@<TRIPOS>MOLECULE
ZINC03812918
   62    64     0     0     0
SMALL
USER_CHARGES

@<TRIPOS>ATOM
      1 C1          0.0184    1.1674    0.0635 C.3       1 <0>        -0.1474
      2 C2          0.0287   -0.3496   -0.1352 C.3       1 <0>        -0.0947
      3 C3          0.8187   -1.0070    0.9982 C.3       1 <0>        -0.1518
      4 C4         -1.4083   -0.8748   -0.1267 C.3       1 <0>         0.0663
      5 O1         -2.1137   -0.3508   -1.2536 O.3       1 <0>        -0.3920
      6 C5         -3.4732   -0.7822   -1.3402 C.3       1 <0>         0.0403
      7 C6         -4.1268   -0.1633   -2.5774 C.3       1 <0>         0.0087
      8 H1         -3.5364   -0.4070   -3.4606 H         1 <0>         0.1470
      9 C7         -5.5419   -0.7218   -2.7399 C.3       1 <0>         0.1111
     10 N1         -5.4715   -2.1608   -3.0055 N.pl3     1 <0>        -0.6164
     11 C8         -5.6171   -3.1168   -1.9050 C.3       1 <0>         0.1596
     12 C9         -7.0717   -3.4743   -1.7394 C.ar      1 <0>        -0.1190
     13 C10        -7.8753   -2.7280   -0.8979 C.ar      1 <0>        -0.1104
     14 C11        -9.2096   -3.0559   -0.7459 C.ar      1 <0>        -0.1193
     15 C12        -9.7403   -4.1299   -1.4358 C.ar      1 <0>        -0.1083
     16 C13        -8.9368   -4.8756   -2.2780 C.ar      1 <0>        -0.1151
     17 C14        -7.6036   -4.5451   -2.4332 C.ar      1 <0>        -0.0996
     18 C15        -5.2654   -2.6213   -4.3080 C.ar      1 <0>         0.2010
     19 C16        -5.2314   -1.7228   -5.3668 C.ar      1 <0>        -0.1983
     20 C17        -5.0270   -2.1814   -6.6533 C.ar      1 <0>        -0.0720
     21 C18        -4.8568   -3.5335   -6.8881 C.ar      1 <0>        -0.1599
     22 C19        -4.8901   -4.4307   -5.8364 C.ar      1 <0>        -0.0679
     23 C20        -5.0883   -3.9782   -4.5467 C.ar      1 <0>        -0.1821
     24 N2         -4.1915    1.2957   -2.4189 N.4       1 <0>        -0.3869
     25 C21        -2.8266    1.8785   -2.4802 C.3       1 <0>         0.0043
     26 C22        -3.0891    3.3561   -2.8654 C.3       1 <0>        -0.1475
     27 C23        -4.2702    3.2502   -3.8572 C.3       1 <0>        -0.1425
     28 C24        -4.9382    1.8984   -3.5443 C.3       1 <0>        -0.0147
     29 H2          1.0421    1.5416    0.0574 H         1 <0>         0.0626
     30 H3         -0.5444    1.6358   -0.7440 H         1 <0>         0.0530
     31 H4         -0.4499    1.4056    1.0185 H         1 <0>         0.0556
     32 H5          0.4969   -0.5878   -1.0902 H         1 <0>         0.0817
     33 H6          0.3504   -0.7688    1.9533 H         1 <0>         0.0592
     34 H7          0.8260   -2.0878    0.8567 H         1 <0>         0.0601
     35 H8          1.8424   -0.6328    0.9922 H         1 <0>         0.0686
     36 H9         -1.3976   -1.9635   -0.1789 H         1 <0>         0.0597
     37 H10        -1.9048   -0.5600    0.7912 H         1 <0>         0.0577
     38 H11        -3.5053   -1.8690   -1.4177 H         1 <0>         0.0975
     39 H12        -4.0126   -0.4655   -0.4475 H         1 <0>         0.0706
     40 H13        -6.1083   -0.5485   -1.8249 H         1 <0>         0.0990
     41 H14        -6.0362   -0.2223   -3.5732 H         1 <0>         0.1014
     42 H15        -5.0447   -4.0172   -2.1278 H         1 <0>         0.0941
     43 H16        -5.2457   -2.6690   -0.9832 H         1 <0>         0.0829
     44 H17        -7.4607   -1.8890   -0.3589 H         1 <0>         0.1141
     45 H18        -9.8373   -2.4733   -0.0880 H         1 <0>         0.1242
     46 H19       -10.7826   -4.3865   -1.3165 H         1 <0>         0.1261
     47 H20        -9.3514   -5.7149   -2.8167 H         1 <0>         0.1263
     48 H21        -6.9768   -5.1254   -3.0940 H         1 <0>         0.1228
     49 H22        -5.3650   -0.6667   -5.1842 H         1 <0>         0.1104
     50 H23        -5.0005   -1.4834   -7.4770 H         1 <0>         0.1243
     51 H24        -4.6978   -3.8896   -7.8953 H         1 <0>         0.1246
     52 H25        -4.7568   -5.4861   -6.0232 H         1 <0>         0.1273
     53 H26        -5.1097   -4.6790   -3.7252 H         1 <0>         0.1251
     54 H27        -2.3374    1.8155   -1.5082 H         1 <0>         0.1430
     55 H28        -2.2301    1.3816   -3.2452 H         1 <0>         0.1326
     56 H29        -3.3725    3.9388   -1.9889 H         1 <0>         0.0961
     57 H30        -2.2148    3.7891   -3.3516 H         1 <0>         0.1156
     58 H31        -4.9743    4.0665   -3.6956 H         1 <0>         0.1049
     59 H32        -3.9044    3.2628   -4.8839 H         1 <0>         0.1035
     60 H33        -4.8847    1.2471   -4.4166 H         1 <0>         0.1285
     61 H34        -5.9782    2.0555   -3.2582 H         1 <0>         0.1323
     62 H35        -4.6326    1.5317   -1.5426 H         1 <0>         0.4221
@<TRIPOS>BOND
     1    1    2 1
     2    1   29 1
     3    1   30 1
     4    1   31 1
     5    2    3 1
     6    2    4 1
     7    2   32 1
     8    3   33 1
     9    3   34 1
    10    3   35 1
    11    4    5 1
    12    4   36 1
    13    4   37 1
    14    5    6 1
    15    6    7 1
    16    6   38 1
    17    6   39 1
    18    7    8 1
    19    7    9 1
    20    7   24 1
    21    9   10 1
    22    9   40 1
    23    9   41 1
    24   10   11 1
    25   10   18 1
    26   11   12 1
    27   11   42 1
    28   11   43 1
    29   12   17 ar
    30   12   13 ar
    31   13   14 ar
    32   13   44 1
    33   14   15 ar
    34   14   45 1
    35   15   16 ar
    36   15   46 1
    37   16   17 ar
    38   16   47 1
    39   17   48 1
    40   18   23 ar
    41   18   19 ar
    42   19   20 ar
    43   19   49 1
    44   20   21 ar
    45   20   50 1
    46   21   22 ar
    47   21   51 1
    48   22   23 ar
    49   22   52 1
    50   23   53 1
    51   24   28 1
    52   24   25 1
    53   24   62 1
    54   25   26 1
    55   25   54 1
    56   25   55 1
    57   26   27 1
    58   26   56 1
    59   26   57 1
    60   27   28 1
    61   27   58 1
    62   27   59 1
    63   28   60 1
    64   28   61 1
@<TRIPOS>MOLECULE
ZINC03830283
   62    64     0     0     0
SMALL
USER_CHARGES

@<TRIPOS>ATOM
      1 C1          0.2141    1.5244   -0.3937 C.3       1 <0>        -0.1472
      2 C2          0.1828   -0.0046   -0.4414 C.3       1 <0>        -0.0916
      3 C3          1.0078   -0.5679    0.7174 C.3       1 <0>        -0.1523
      4 C4         -1.2634   -0.4891   -0.3208 C.3       1 <0>         0.0673
      5 O1         -2.0064   -0.0600   -1.4635 O.3       1 <0>        -0.3943
      6 C5         -3.3774   -0.4626   -1.4501 C.3       1 <0>         0.0400
      7 C6         -4.0716    0.0488   -2.7140 C.3       1 <0>         0.0084
      8 H1         -3.9361    1.1276   -2.7917 H         1 <0>         0.1440
      9 C7         -5.5654   -0.2737   -2.6415 C.3       1 <0>         0.1067
     10 N1         -6.1702    0.4616   -1.5280 N.pl3     1 <0>        -0.6157
     11 C8         -6.6124    1.8453   -1.7182 C.3       1 <0>         0.1618
     12 C9         -8.0199    1.8534   -2.2567 C.ar      1 <0>        -0.1184
     13 C10        -8.2378    1.8344   -3.6217 C.ar      1 <0>        -0.1123
     14 C11        -9.5288    1.8418   -4.1157 C.ar      1 <0>        -0.1189
     15 C12       -10.6020    1.8677   -3.2448 C.ar      1 <0>        -0.1086
     16 C13       -10.3841    1.8857   -1.8798 C.ar      1 <0>        -0.1141
     17 C14        -9.0931    1.8740   -1.3857 C.ar      1 <0>        -0.0997
     18 C15        -6.3253   -0.1565   -0.2851 C.ar      1 <0>         0.1996
     19 C16        -5.9013   -1.4665   -0.1015 C.ar      1 <0>        -0.2011
     20 C17        -6.0557   -2.0746    1.1288 C.ar      1 <0>        -0.0722
     21 C18        -6.6320   -1.3810    2.1772 C.ar      1 <0>        -0.1599
     22 C19        -7.0551   -0.0767    1.9978 C.ar      1 <0>        -0.0677
     23 C20        -6.8986    0.5393    0.7717 C.ar      1 <0>        -0.1828
     24 N2         -3.4863   -0.6043   -3.8925 N.4       1 <0>        -0.3840
     25 C21        -2.0641   -0.2208   -4.0189 C.3       1 <0>         0.0051
     26 C22        -1.8182   -0.1105   -5.5443 C.3       1 <0>        -0.1458
     27 C23        -3.1600    0.4939   -6.0352 C.3       1 <0>        -0.1396
     28 C24        -4.1998   -0.1684   -5.1069 C.3       1 <0>        -0.0198
     29 H2          1.2444    1.8696   -0.4797 H         1 <0>         0.0598
     30 H3         -0.3736    1.9257   -1.2193 H         1 <0>         0.0567
     31 H4         -0.2063    1.8670    0.5518 H         1 <0>         0.0558
     32 H5          0.6032   -0.3472   -1.3869 H         1 <0>         0.0771
     33 H6          0.5874   -0.2253    1.6629 H         1 <0>         0.0602
     34 H7          0.9855   -1.6572    0.6834 H         1 <0>         0.0585
     35 H8          2.0381   -0.2227    0.6315 H         1 <0>         0.0682
     36 H9         -1.2784   -1.5776   -0.2654 H         1 <0>         0.0564
     37 H10        -1.7119   -0.0732    0.5814 H         1 <0>         0.0597
     38 H11        -3.4364   -1.5505   -1.4181 H         1 <0>         0.0704
     39 H12        -3.8698   -0.0461   -0.5713 H         1 <0>         0.1022
     40 H13        -6.0463    0.0199   -3.5746 H         1 <0>         0.1013
     41 H14        -5.6989   -1.3441   -2.4851 H         1 <0>         0.1019
     42 H15        -6.5859    2.3698   -0.7630 H         1 <0>         0.0958
     43 H16        -5.9500    2.3445   -2.4253 H         1 <0>         0.0814
     44 H17        -7.3993    1.8141   -4.3021 H         1 <0>         0.1126
     45 H18        -9.6990    1.8277   -5.1821 H         1 <0>         0.1242
     46 H19       -11.6106    1.8742   -3.6308 H         1 <0>         0.1262
     47 H20       -11.2226    1.9063   -1.1994 H         1 <0>         0.1265
     48 H21        -8.9230    1.8844   -0.3193 H         1 <0>         0.1229
     49 H22        -5.4518   -2.0090   -0.9201 H         1 <0>         0.1144
     50 H23        -5.7262   -3.0930    1.2723 H         1 <0>         0.1244
     51 H24        -6.7521   -1.8590    3.1381 H         1 <0>         0.1246
     52 H25        -7.5048    0.4622    2.8187 H         1 <0>         0.1275
     53 H26        -7.2252    1.5594    0.6335 H         1 <0>         0.1260
     54 H27        -1.8856    0.7396   -3.5353 H         1 <0>         0.1385
     55 H28        -1.4239   -0.9894   -3.5859 H         1 <0>         0.1341
     56 H29        -0.9863    0.5606   -5.7582 H         1 <0>         0.1156
     57 H30        -1.6483   -1.0931   -5.9845 H         1 <0>         0.0965
     58 H31        -3.1644    1.5765   -5.9083 H         1 <0>         0.0977
     59 H32        -3.3459    0.2260   -7.0752 H         1 <0>         0.1123
     60 H33        -4.6455   -1.0298   -5.6044 H         1 <0>         0.1336
     61 H34        -4.9741    0.5521   -4.8436 H         1 <0>         0.1293
     62 H35        -3.5586   -1.6062   -3.7973 H         1 <0>         0.4213
@<TRIPOS>BOND
     1    1    2 1
     2    1   29 1
     3    1   30 1
     4    1   31 1
     5    2    3 1
     6    2    4 1
     7    2   32 1
     8    3   33 1
     9    3   34 1
    10    3   35 1
    11    4    5 1
    12    4   36 1
    13    4   37 1
    14    5    6 1
    15    6    7 1
    16    6   38 1
    17    6   39 1
    18    7    8 1
    19    7    9 1
    20    7   24 1
    21    9   10 1
    22    9   40 1
    23    9   41 1
    24   10   11 1
    25   10   18 1
    26   11   12 1
    27   11   42 1
    28   11   43 1
    29   12   17 ar
    30   12   13 ar
    31   13   14 ar
    32   13   44 1
    33   14   15 ar
    34   14   45 1
    35   15   16 ar
    36   15   46 1
    37   16   17 ar
    38   16   47 1
    39   17   48 1
    40   18   23 ar
    41   18   19 ar
    42   19   20 ar
    43   19   49 1
    44   20   21 ar
    45   20   50 1
    46   21   22 ar
    47   21   51 1
    48   22   23 ar
    49   22   52 1
    50   23   53 1
    51   24   28 1
    52   24   25 1
    53   24   62 1
    54   25   26 1
    55   25   54 1
    56   25   55 1
    57   26   27 1
    58   26   56 1
    59   26   57 1
    60   27   28 1
    61   27   58 1
    62   27   59 1
    63   28   60 1
    64   28   61 1
@<TRIPOS>MOLECULE
ZINC03589671
   31    32     0     0     0
SMALL
USER_CHARGES

@<TRIPOS>ATOM
      1 C1         -0.0167    1.3816    0.0096 C.ar      1 <0>        -0.1075
      2 C2          1.1641    2.0969    0.0022 C.ar      1 <0>        -0.1701
      3 C3          2.3806    1.4310   -0.0134 C.ar      1 <0>         0.1270
      4 C4          2.4046    0.0280   -0.0211 C.ar      1 <0>        -0.1594
      5 C5          1.2002   -0.6832   -0.0130 C.ar      1 <0>        -0.0596
      6 C6          0.0021   -0.0041    0.0020 C.ar      1 <0>        -0.1042
      7 C7         -1.2948   -0.7716    0.0102 C.3       1 <0>        -0.0292
      8 C8         -1.7406   -1.0198   -1.4078 C.ar      1 <0>        -0.1050
      9 C9         -2.5521   -0.0961   -2.0471 C.ar      1 <0>        -0.1070
     10 C10        -2.9673   -0.3109   -3.3461 C.ar      1 <0>        -0.1701
     11 C11        -2.5739   -1.4567   -4.0215 C.ar      1 <0>         0.1275
     12 C12        -1.7523   -2.3949   -3.3782 C.ar      1 <0>        -0.1595
     13 C13        -1.3349   -2.1608   -2.0639 C.ar      1 <0>        -0.0590
     14 C14        -1.3279   -3.6146   -4.0837 C.2       1 <0>         0.5203
     15 O1         -0.6116   -4.4300   -3.5191 O.co2     1 <0>        -0.6863
     16 O2         -1.6915   -3.8133   -5.2348 O.co2     1 <0>        -0.6805
     17 O3         -2.9817   -1.6695   -5.2972 O.3       1 <0>        -0.4783
     18 C15         3.6887   -0.6906   -0.0382 C.2       1 <0>         0.5201
     19 O4          3.7051   -1.9139   -0.0448 O.co2     1 <0>        -0.6860
     20 O5          4.7399   -0.0647   -0.0456 O.co2     1 <0>        -0.6806
     21 O6          3.5412    2.1323   -0.0216 O.3       1 <0>        -0.4759
     22 H1         -0.9611    1.9053    0.0260 H         1 <0>         0.1130
     23 H2          1.1404    3.1767    0.0082 H         1 <0>         0.1149
     24 H3          1.2097   -1.7632   -0.0192 H         1 <0>         0.1306
     25 H4         -1.1494   -1.7253    0.5176 H         1 <0>         0.0780
     26 H5         -2.0558   -0.1935    0.5344 H         1 <0>         0.0716
     27 H6         -2.8620    0.7975   -1.5257 H         1 <0>         0.1129
     28 H7         -3.5996    0.4141   -3.8370 H         1 <0>         0.1150
     29 H8         -0.6992   -2.8757   -1.5628 H         1 <0>         0.1305
     30 H9         -2.3840   -1.3091   -5.9665 H         1 <0>         0.3798
     31 H10         3.8867    2.3313    0.8593 H         1 <0>         0.3771
@<TRIPOS>BOND
     1    1    6 ar
     2    1    2 ar
     3    1   22 1
     4    2    3 ar
     5    2   23 1
     6    3    4 ar
     7    3   21 1
     8    4    5 ar
     9    4   18 1
    10    5    6 ar
    11    5   24 1
    12    6    7 1
    13    7    8 1
    14    7   25 1
    15    7   26 1
    16    8   13 ar
    17    8    9 ar
    18    9   10 ar
    19    9   27 1
    20   10   11 ar
    21   10   28 1
    22   11   12 ar
    23   11   17 1
    24   12   13 ar
    25   12   14 1
    26   13   29 1
    27   14   15 2
    28   14   16 1
    29   17   30 1
    30   18   19 2
    31   18   20 1
    32   21   31 1
@<TRIPOS>MOLECULE
ZINC03044021
   33    35     0     0     0
SMALL
USER_CHARGES
2-[(5Z)-5-[[5-(4-iodophenyl)-2-furyl]methylene]-4-oxo-2-thioxo-thiazolidin-3-yl]acetic acid
@<TRIPOS>ATOM
      1 C1         -8.9113   -4.7222   -0.1897 C.ar      1 <0>        -0.0900
      2 C2         -9.5846   -5.2946   -1.2483 C.ar      1 <0>        -0.0833
      3 C3         -9.2356   -4.9744   -2.5493 C.ar      1 <0>        -0.0931
      4 C4         -8.2132   -4.0744   -2.7971 C.ar      1 <0>        -0.0800
      5 C5         -7.5350   -3.4905   -1.7479 C.ar      1 <0>        -0.0900
      6 C6         -7.8819   -3.8091   -0.4324 C.ar      1 <0>        -0.0048
      7 C7         -7.1604   -3.1886    0.6954 C.2       1 <0>         0.0549
      8 C8         -7.4055   -3.4181    2.0199 C.2       1 <0>        -0.1891
      9 C9         -6.5053   -2.6354    2.7472 C.2       1 <0>        -0.1372
     10 C10        -5.7360   -1.9501    1.8234 C.2       1 <0>        -0.0089
     11 O1         -6.1564   -2.2993    0.5892 O.3       1 <0>        -0.1473
     12 C11        -4.6980   -1.0409    2.1198 C.2       1 <0>         0.0771
     13 C12        -4.0153   -0.4308    1.1073 C.2       1 <0>        -0.2089
     14 C13        -2.9102    0.5396    1.1723 C.2       1 <0>         0.5462
     15 O2         -2.4605    0.9251    2.2365 O.2       1 <0>        -0.4526
     16 N1         -2.4300    0.9727    0.0189 N.am      1 <0>        -0.4905
     17 C14        -2.9347    0.5479   -1.1577 C.2       1 <0>         0.2970
     18 S1         -2.4592    0.9909   -2.7415 S.2       1 <0>        -0.3446
     19 S2         -4.2172   -0.5913   -0.6616 S.3       1 <0>         0.0578
     20 C15        -1.3295    1.9397    0.0189 C.3       1 <0>         0.0350
     21 C16        -0.0143    1.2041    0.0087 C.2       1 <0>         0.4673
     22 O3          0.0021   -0.0041    0.0020 O.co2     1 <0>        -0.6246
     23 I1        -10.2591   -5.8564   -4.1505 I         1 <0>        -0.0389
     24 H1         -9.1815   -4.9763    0.8246 H         1 <0>         0.1387
     25 H2        -10.3832   -5.9975   -1.0622 H         1 <0>         0.1363
     26 H3         -7.9463   -3.8288   -3.8144 H         1 <0>         0.1374
     27 H4         -6.7378   -2.7884   -1.9425 H         1 <0>         0.1425
     28 H5         -8.1546   -4.0805    2.4280 H         1 <0>         0.1605
     29 H6         -6.4252   -2.5766    3.8226 H         1 <0>         0.1662
     30 H7         -4.4438   -0.8279    3.1476 H         1 <0>         0.1850
     31 H8         -1.3915    2.5607    0.9126 H         1 <0>         0.1088
     32 H9         -1.4000    2.5704   -0.8673 H         1 <0>         0.1184
     33 O4          1.1389    1.8910    0.0013 O.co2     1 <0>        -0.7453
@<TRIPOS>BOND
     1    1    6 ar
     2    1    2 ar
     3    1   24 1
     4    2    3 ar
     5    2   25 1
     6    3    4 ar
     7    3   23 1
     8    4    5 ar
     9    4   26 1
    10    5    6 ar
    11    5   27 1
    12    6    7 1
    13    7   11 1
    14    7    8 2
    15    8    9 1
    16    8   28 1
    17    9   10 2
    18    9   29 1
    19   10   11 1
    20   10   12 1
    21   12   13 2
    22   12   30 1
    23   13   19 1
    24   13   14 1
    25   14   15 2
    26   14   16 am
    27   16   17 1
    28   16   20 1
    29   17   18 2
    30   17   19 1
    31   20   21 1
    32   20   31 1
    33   20   32 1
    34   21   22 2
    35   21   33 1
@<TRIPOS>MOLECULE
ZINC02025944
   33    35     0     0     0
SMALL
USER_CHARGES
2-[(5Z)-5-[[5-(3,4-dichlorophenyl)-2-furyl]methylene]-4-oxo-2-thioxo-thiazolidin-3-yl]acetic acid
@<TRIPOS>ATOM
      1 C1         -8.8978   -4.7148   -0.0400 C.ar      1 <0>        -0.0787
      2 C2         -9.5866   -5.3016   -1.0809 C.ar      1 <0>        -0.0951
      3 C3         -9.2573   -4.9988   -2.3913 C.ar      1 <0>        -0.0251
      4 C4         -8.2379   -4.1002   -2.6661 C.ar      1 <0>        -0.0274
      5 C5         -7.5451   -3.5020   -1.6337 C.ar      1 <0>        -0.0767
      6 C6         -7.8732   -3.8040   -0.3094 C.ar      1 <0>        -0.0053
      7 C7         -7.1367   -3.1680    0.7999 C.2       1 <0>         0.0550
      8 C8         -7.3629   -3.3804    2.1306 C.2       1 <0>        -0.1855
      9 C9         -6.4526   -2.5883    2.8348 C.2       1 <0>        -0.1350
     10 C10        -5.6968   -1.9149    1.8914 C.2       1 <0>        -0.0074
     11 O1         -6.1352   -2.2794    0.6679 O.3       1 <0>        -0.1467
     12 C11        -4.6545   -1.0024    2.1612 C.2       1 <0>         0.0851
     13 C12        -3.9866   -0.4052    1.1313 C.2       1 <0>        -0.2109
     14 C13        -2.9136    0.5367    1.1691 C.2       1 <0>         0.5446
     15 O2         -2.4582    0.9267    2.2292 O.2       1 <0>        -0.4569
     16 N1         -2.4300    0.9727    0.0189 N.am      1 <0>        -0.4916
     17 C14        -2.9393    0.5439   -1.1572 C.2       1 <0>         0.2977
     18 S1         -2.4767    0.9761   -2.7479 S.2       1 <0>        -0.3407
     19 S2         -4.2163   -0.5895   -0.6318 S.3       1 <0>         0.0517
     20 C15        -1.3295    1.9397    0.0189 C.3       1 <0>         0.0365
     21 C16        -0.0143    1.2041    0.0087 C.2       1 <0>         0.4672
     22 O3          0.0021   -0.0041    0.0020 O.co2     1 <0>        -0.6247
     23 Cl1        -7.8327   -3.7266   -4.3123 Cl        1 <0>        -0.0349
     24 Cl2       -10.1249   -5.7471   -3.6955 Cl        1 <0>        -0.0431
     25 H1         -9.1528   -4.9557    0.9814 H         1 <0>         0.1470
     26 H2        -10.3817   -6.0024   -0.8734 H         1 <0>         0.1507
     27 H3         -6.7508   -2.8024   -1.8485 H         1 <0>         0.1537
     28 H4         -8.1056   -4.0378    2.5579 H         1 <0>         0.1622
     29 H5         -6.3572   -2.5157    3.9082 H         1 <0>         0.1677
     30 H6         -4.3854   -0.7766    3.1825 H         1 <0>         0.1866
     31 H7         -1.3915    2.5607    0.9126 H         1 <0>         0.1089
     32 H8         -1.4000    2.5704   -0.8673 H         1 <0>         0.1172
     33 O4          1.1389    1.8910    0.0013 O.co2     1 <0>        -0.7458
@<TRIPOS>BOND
     1    1    6 ar
     2    1    2 ar
     3    1   25 1
     4    2    3 ar
     5    2   26 1
     6    3    4 ar
     7    3   24 1
     8    4    5 ar
     9    4   23 1
    10    5    6 ar
    11    5   27 1
    12    6    7 1
    13    7   11 1
    14    7    8 2
    15    8    9 1
    16    8   28 1
    17    9   10 2
    18    9   29 1
    19   10   11 1
    20   10   12 1
    21   12   13 2
    22   12   30 1
    23   13   19 1
    24   13   14 1
    25   14   15 2
    26   14   16 am
    27   16   17 1
    28   16   20 1
    29   17   18 2
    30   17   19 1
    31   20   21 1
    32   20   31 1
    33   20   32 1
    34   21   22 2
    35   21   33 1
@<TRIPOS>MOLECULE
ZINC13678249
   31    33     0     0     0
SMALL
USER_CHARGES
5-[(5-phenyl-2-thienyl)methylene]-2-thioxo-hexahydropyrimidine-4,6-dione
@<TRIPOS>ATOM
      1 C1         -8.1163    7.7705   -0.3257 C.ar      1 <0>        -0.1030
      2 C2         -7.5756    6.5005   -0.2272 C.ar      1 <0>        -0.1151
      3 C3         -6.2076    6.3320   -0.1757 C.ar      1 <0>        -0.0991
      4 C4         -5.3677    7.4469   -0.2233 C.ar      1 <0>        -0.0246
      5 C5         -5.9205    8.7262   -0.3169 C.ar      1 <0>        -0.0878
      6 C6         -7.2901    8.8796   -0.3737 C.ar      1 <0>        -0.1168
      7 C7         -3.9023    7.2744   -0.1688 C.2       1 <0>        -0.0802
      8 C8         -2.9075    8.2455   -0.2024 C.2       1 <0>        -0.1825
      9 C9         -1.6059    7.8540   -0.1392 C.2       1 <0>        -0.0543
     10 C10        -1.3230    6.4878   -0.0428 C.2       1 <0>        -0.2531
     11 S1         -2.9556    5.7654   -0.0517 S.3       1 <0>         0.2226
     12 C11        -0.0773    5.8494    0.0347 C.2       1 <0>         0.1992
     13 C12         0.1152    4.8062    0.9360 C.2       1 <0>        -0.3121
     14 C13         1.3318    3.9770    0.9030 C.2       1 <0>         0.5640
     15 O1          2.2058    4.1826    0.0815 O.2       1 <0>        -0.4680
     16 N1          1.4512    2.9834    1.8074 N.am      1 <0>        -0.6163
     17 C14         0.4959    2.7459    2.7173 C.2       1 <0>         0.5465
     18 S2          0.7330    1.4633    3.8262 S.2       1 <0>        -0.5051
     19 N2         -0.6376    3.4565    2.8011 N.am      1 <0>        -0.6146
     20 C15        -0.8886    4.4843    1.9642 C.2       1 <0>         0.5476
     21 O2         -1.9192    5.1254    2.0537 O.2       1 <0>        -0.4529
     22 H1         -9.1882    7.8967   -0.3656 H         1 <0>         0.1291
     23 H2         -8.2263    5.6393   -0.1908 H         1 <0>         0.1309
     24 H3         -5.7870    5.3402   -0.0992 H         1 <0>         0.1240
     25 H4         -5.2770    9.5929   -0.3497 H         1 <0>         0.1294
     26 H5         -7.7188    9.8678   -0.4510 H         1 <0>         0.1312
     27 H6         -3.1636    9.2920   -0.2771 H         1 <0>         0.1440
     28 H7         -0.8088    8.5823   -0.1633 H         1 <0>         0.1467
     29 H8          0.7330    6.1668   -0.6050 H         1 <0>         0.1729
     30 H9          2.2466    2.4282    1.7993 H         1 <0>         0.4493
     31 H10        -1.2903    3.2291    3.4816 H         1 <0>         0.4482
@<TRIPOS>BOND
     1    1    6 ar
     2    1    2 ar
     3    1   22 1
     4    2    3 ar
     5    2   23 1
     6    3    4 ar
     7    3   24 1
     8    4    5 ar
     9    4    7 1
    10    5    6 ar
    11    5   25 1
    12    6   26 1
    13    7   11 1
    14    7    8 2
    15    8    9 1
    16    8   27 1
    17    9   10 2
    18    9   28 1
    19   10   11 1
    20   10   12 1
    21   12   13 2
    22   12   29 1
    23   13   20 1
    24   13   14 1
    25   14   15 2
    26   14   16 am
    27   16   17 1
    28   16   30 1
    29   17   18 2
    30   17   19 1
    31   19   20 am
    32   19   31 1
    33   20   21 2
@<TRIPOS>MOLECULE
ZINC00880427
   35    37     0     0     0
SMALL
USER_CHARGES
5-[[5-(3-chloro-4-methoxy-phenyl)-2-furyl]methylene]-2-thioxo-hexahydropyrimidine-4,6-dione
@<TRIPOS>ATOM
      1 C1         -2.1846    9.4371    2.2575 C.3       1 <0>         0.0217
      2 O1         -3.0061    8.2790    2.0965 O.3       1 <0>        -0.2989
      3 C2         -2.3796    7.1193    1.7695 C.ar      1 <0>         0.1602
      4 C3         -0.9997    7.0994    1.6072 C.ar      1 <0>        -0.1986
      5 C4         -0.3597    5.9257    1.2761 C.ar      1 <0>        -0.0380
      6 C5         -1.1005    4.7522    1.1024 C.ar      1 <0>        -0.0669
      7 C6         -2.4896    4.7776    1.2604 C.ar      1 <0>        -0.0375
      8 C7         -3.1210    5.9555    1.5976 C.ar      1 <0>        -0.0718
      9 Cl1        -4.8448    5.9877    1.8012 Cl        1 <0>        -0.0417
     10 C8         -0.4197    3.4940    0.7480 C.2       1 <0>         0.1111
     11 C9         -1.0355    2.2741    0.5447 C.2       1 <0>        -0.2151
     12 C10        -0.0348    1.3581    0.2347 C.2       1 <0>        -0.0957
     13 C11         1.1676    2.0559    0.2504 C.2       1 <0>        -0.0673
     14 O2          0.9028    3.3432    0.5636 O.3       1 <0>        -0.1200
     15 C12         2.4333    1.5178   -0.0122 C.2       1 <0>         0.1690
     16 C13         3.3781    2.2678   -0.7092 C.2       1 <0>        -0.3001
     17 C14         3.0222    3.5417   -1.3559 C.2       1 <0>         0.5515
     18 O3          1.8867    3.9758   -1.2982 O.2       1 <0>        -0.4509
     19 N1          3.9895    4.2173   -2.0098 N.am      1 <0>        -0.6157
     20 C15         5.2427    3.7477   -2.0860 C.2       1 <0>         0.5468
     21 S1          6.4034    4.6687   -2.9436 S.2       1 <0>        -0.5040
     22 N2          5.6346    2.5944   -1.5262 N.am      1 <0>        -0.6161
     23 C16         4.7741    1.8177   -0.8364 C.2       1 <0>         0.5628
     24 O4          5.1418    0.7724   -0.3330 O.2       1 <0>        -0.4667
     25 H1         -1.6580    9.6415    1.3253 H         1 <0>         0.0617
     26 H2         -2.8088   10.2921    2.5172 H         1 <0>         0.1083
     27 H3         -1.4603    9.2611    3.0529 H         1 <0>         0.0614
     28 H4         -0.4280    8.0058    1.7414 H         1 <0>         0.1462
     29 H5          0.7129    5.9116    1.1503 H         1 <0>         0.1391
     30 H6         -3.0663    3.8748    1.1230 H         1 <0>         0.1497
     31 H7         -2.0936    2.0695    0.6154 H         1 <0>         0.1642
     32 H8         -0.1673    0.3082    0.0188 H         1 <0>         0.1688
     33 H9          2.6772    0.5214    0.3256 H         1 <0>         0.1847
     34 H10         3.7722    5.0600   -2.4382 H         1 <0>         0.4481
     35 H11         6.5580    2.3122   -1.6189 H         1 <0>         0.4497
@<TRIPOS>BOND
     1    1    2 1
     2    1   25 1
     3    1   26 1
     4    1   27 1
     5    2    3 1
     6    3    8 ar
     7    3    4 ar
     8    4    5 ar
     9    4   28 1
    10    5    6 ar
    11    5   29 1
    12    6    7 ar
    13    6   10 1
    14    7    8 ar
    15    7   30 1
    16    8    9 1
    17   10   14 1
    18   10   11 2
    19   11   12 1
    20   11   31 1
    21   12   13 2
    22   12   32 1
    23   13   14 1
    24   13   15 1
    25   15   16 2
    26   15   33 1
    27   16   23 1
    28   16   17 1
    29   17   18 2
    30   17   19 am
    31   19   20 1
    32   19   34 1
    33   20   21 2
    34   20   22 1
    35   22   23 am
    36   22   35 1
    37   23   24 2
@<TRIPOS>MOLECULE
ZINC02240009
   36    38     0     0     0
SMALL
USER_CHARGES
3-[5-[[5-(4-chlorophenyl)-2-furyl]methylene]-4-oxo-2-thioxo-thiazolidin-3-yl]propanoic acid
@<TRIPOS>ATOM
      1 C1         -6.4167    6.0988    0.0586 C.ar      1 <0>        -0.0790
      2 C2         -6.7094    7.4462    0.0717 C.ar      1 <0>        -0.1087
      3 C3         -5.6865    8.3802    0.0715 C.ar      1 <0>        -0.0243
      4 C4         -4.3641    7.9682    0.0635 C.ar      1 <0>        -0.1057
      5 C5         -4.0577    6.6238    0.0557 C.ar      1 <0>        -0.0798
      6 C6         -5.0848    5.6764    0.0558 C.ar      1 <0>        -0.0252
      7 C7         -4.7642    4.2361    0.0470 C.2       1 <0>         0.0688
      8 C8         -5.6755    3.2178    0.0463 C.2       1 <0>        -0.1955
      9 C9         -4.9555    2.0206    0.0367 C.2       1 <0>        -0.1248
     10 C10        -3.6145    2.3618    0.0320 C.2       1 <0>        -0.0239
     11 O1         -3.5265    3.7087    0.0442 O.3       1 <0>        -0.1479
     12 C11        -2.5291    1.4598    0.0221 C.2       1 <0>         0.1015
     13 C12        -1.2485    1.9327    0.0183 C.2       1 <0>        -0.2293
     14 C13        -0.0144    1.2138    0.0087 C.2       1 <0>         0.5381
     15 O2          0.0021   -0.0041    0.0020 O.2       1 <0>        -0.4530
     16 N1          1.1091    1.9099    0.0017 N.am      1 <0>        -0.5180
     17 C14         1.0902    3.2612    0.0083 C.2       1 <0>         0.2812
     18 S1          2.4094    4.3525    0.0016 S.2       1 <0>        -0.3245
     19 S2         -0.6595    3.6204    0.0266 S.3       1 <0>         0.0556
     20 C15         2.3939    1.2062   -0.0138 C.3       1 <0>         0.1020
     21 C16         2.8277    0.9684   -1.4616 C.3       1 <0>        -0.1674
     22 C17         4.1493    0.2445   -1.4776 C.2       1 <0>         0.4732
     23 O3          4.6889   -0.0509   -0.4377 O.co2     1 <0>        -0.6359
     24 Cl1        -6.0637   10.0747    0.0807 Cl        1 <0>        -0.0630
     25 H1         -7.2151    5.3715    0.0542 H         1 <0>         0.1405
     26 H2         -7.7384    7.7740    0.0776 H         1 <0>         0.1416
     27 H3         -3.5713    8.7015    0.0637 H         1 <0>         0.1425
     28 H4         -3.0262    6.3039    0.0498 H         1 <0>         0.1433
     29 H5         -6.7507    3.3195    0.0520 H         1 <0>         0.1619
     30 H6         -5.3662    1.0217    0.0331 H         1 <0>         0.1677
     31 H7         -2.7116    0.3953    0.0176 H         1 <0>         0.1867
     32 H8          3.1449    1.8096    0.4961 H         1 <0>         0.1150
     33 H9          2.2898    0.2485    0.4962 H         1 <0>         0.1068
     34 H10         2.0767    0.3650   -1.9715 H         1 <0>         0.0687
     35 H11         2.9318    1.9261   -1.9717 H         1 <0>         0.0746
     36 O4          4.7271   -0.0720   -2.6471 O.co2     1 <0>        -0.7637
@<TRIPOS>BOND
     1    1    6 ar
     2    1    2 ar
     3    1   25 1
     4    2    3 ar
     5    2   26 1
     6    3    4 ar
     7    3   24 1
     8    4    5 ar
     9    4   27 1
    10    5    6 ar
    11    5   28 1
    12    6    7 1
    13    7   11 1
    14    7    8 2
    15    8    9 1
    16    8   29 1
    17    9   10 2
    18    9   30 1
    19   10   11 1
    20   10   12 1
    21   12   13 2
    22   12   31 1
    23   13   19 1
    24   13   14 1
    25   14   15 2
    26   14   16 am
    27   16   17 1
    28   16   20 1
    29   17   18 2
    30   17   19 1
    31   20   21 1
    32   20   32 1
    33   20   33 1
    34   21   22 1
    35   21   34 1
    36   21   35 1
    37   22   23 2
    38   22   36 1
@<TRIPOS>MOLECULE
ZINC17196692
   30    32     0     0     0
SMALL
USER_CHARGES
5-[[5-(4-chlorophenyl)-2-furyl]methylene]-2-thioxo-hexahydropyrimidine-4,6-dione
@<TRIPOS>ATOM
      1 C1         -1.5456   -1.8393    1.2180 C.ar      1 <0>        -0.0860
      2 C2         -2.7137   -2.4926    1.5488 C.ar      1 <0>        -0.1101
      3 C3         -3.8836   -1.7746    1.7353 C.ar      1 <0>        -0.0313
      4 C4         -3.8876   -0.3964    1.5954 C.ar      1 <0>        -0.1061
      5 C5         -2.7255    0.2698    1.2693 C.ar      1 <0>        -0.0779
      6 C6         -1.5415   -0.4484    1.0802 C.ar      1 <0>        -0.0084
      7 C7         -0.2946    0.2577    0.7306 C.2       1 <0>         0.0500
      8 C8          0.9341   -0.3350    0.5186 C.2       1 <0>        -0.1991
      9 C9          1.8323    0.6844    0.2138 C.2       1 <0>        -0.1581
     10 C10         1.1158    1.8747    0.2502 C.2       1 <0>         0.0070
     11 O1         -0.1654    1.5848    0.5650 O.3       1 <0>        -0.1055
     12 C11         1.6328    3.1534    0.0034 C.2       1 <0>         0.0633
     13 C12         0.8649    4.0955   -0.6759 C.2       1 <0>        -0.2637
     14 C13        -0.4067    3.7288   -1.3218 C.2       1 <0>         0.5227
     15 O2         -0.8223    2.5858   -1.2791 O.3       1 <0>        -0.5000
     16 N1         -1.1011    4.6949   -1.9574 N.2       1 <0>        -0.6255
     17 C14        -0.6520    5.9565   -2.0171 C.2       1 <0>         0.5522
     18 S1         -1.5964    7.1150   -2.8518 S.2       1 <0>        -0.7061
     19 N2          0.4980    6.3585   -1.4579 N.am      1 <0>        -0.6627
     20 C15         1.2922    5.5006   -0.7848 C.2       1 <0>         0.5609
     21 O3          2.3340    5.8777   -0.2814 O.2       1 <0>        -0.5243
     22 Cl1        -5.3515   -2.6058    2.1456 Cl        1 <0>        -0.0719
     23 H1         -0.6350   -2.4006    1.0689 H         1 <0>         0.1382
     24 H2         -2.7175   -3.5670    1.6589 H         1 <0>         0.1383
     25 H3         -4.8032    0.1574    1.7419 H         1 <0>         0.1388
     26 H4         -2.7301    1.3442    1.1599 H         1 <0>         0.1423
     27 H5          1.1568   -1.3901    0.5783 H         1 <0>         0.1536
     28 H6          2.8832    0.5718   -0.0082 H         1 <0>         0.1575
     29 H7          2.6452    3.4130    0.3463 H         1 <0>         0.1689
     30 H8          0.8129    7.4091   -1.5424 H         1 <0>         0.4429
@<TRIPOS>BOND
     1    1    6 ar
     2    1    2 ar
     3    1   23 1
     4    2    3 ar
     5    2   24 1
     6    3    4 ar
     7    3   22 1
     8    4    5 ar
     9    4   25 1
    10    5    6 ar
    11    5   26 1
    12    6    7 1
    13    7   11 1
    14    7    8 2
    15    8    9 1
    16    8   27 1
    17    9   10 2
    18    9   28 1
    19   10   11 1
    20   10   12 1
    21   12   13 2
    22   12   29 1
    23   13   20 1
    24   13   14 1
    25   14   15 1
    26   14   16 2
    27   16   17 1
    28   17   18 2
    29   17   19 1
    30   19   20 am
    31   19   30 1
    32   20   21 2
@<TRIPOS>MOLECULE
ZINC17196692
   30    32     0     0     0
SMALL
USER_CHARGES
5-[[5-(4-chlorophenyl)-2-furyl]methylene]-2-thioxo-hexahydropyrimidine-4,6-dione
@<TRIPOS>ATOM
      1 C1         -1.5456   -1.8393    1.2180 C.ar      1 <0>        -0.0862
      2 C2         -2.7137   -2.4926    1.5488 C.ar      1 <0>        -0.1083
      3 C3         -3.8836   -1.7746    1.7353 C.ar      1 <0>        -0.0318
      4 C4         -3.8876   -0.3964    1.5954 C.ar      1 <0>        -0.1061
      5 C5         -2.7255    0.2698    1.2693 C.ar      1 <0>        -0.0818
      6 C6         -1.5415   -0.4484    1.0802 C.ar      1 <0>        -0.0071
      7 C7         -0.2946    0.2577    0.7306 C.2       1 <0>         0.0440
      8 C8          0.9341   -0.3350    0.5186 C.2       1 <0>        -0.1953
      9 C9          1.8323    0.6844    0.2138 C.2       1 <0>        -0.1586
     10 C10         1.1158    1.8747    0.2502 C.2       1 <0>         0.0045
     11 O1         -0.1654    1.5848    0.5650 O.3       1 <0>        -0.1134
     12 C11         1.6328    3.1534    0.0034 C.2       1 <0>         0.0611
     13 C12         0.8649    4.0955   -0.6759 C.2       1 <0>        -0.2570
     14 C13        -0.4067    3.7288   -1.3218 C.2       1 <0>         0.5529
     15 O2         -0.8223    2.5858   -1.2791 O.2       1 <0>        -0.5053
     16 N1         -1.1011    4.6949   -1.9574 N.am      1 <0>        -0.6631
     17 C14        -0.6520    5.9565   -2.0171 C.2       1 <0>         0.5522
     18 S1         -1.5964    7.1150   -2.8518 S.2       1 <0>        -0.7035
     19 N2          0.4980    6.3585   -1.4579 N.2       1 <0>        -0.6278
     20 C15         1.2922    5.5006   -0.7848 C.2       1 <0>         0.5307
     21 O3          2.3340    5.8777   -0.2814 O.3       1 <0>        -0.5184
     22 Cl1        -5.3515   -2.6058    2.1456 Cl        1 <0>        -0.0702
     23 H1         -0.6350   -2.4006    1.0689 H         1 <0>         0.1387
     24 H2         -2.7175   -3.5670    1.6589 H         1 <0>         0.1390
     25 H3         -4.8032    0.1574    1.7419 H         1 <0>         0.1386
     26 H4         -2.7301    1.3442    1.1599 H         1 <0>         0.1399
     27 H5          1.1568   -1.3901    0.5783 H         1 <0>         0.1540
     28 H6          2.8832    0.5718   -0.0082 H         1 <0>         0.1589
     29 H7          2.6452    3.4130    0.3463 H         1 <0>         0.1775
     30 H8         -2.0592    4.4554   -2.4419 H         1 <0>         0.4421
@<TRIPOS>BOND
     1    1    6 ar
     2    1    2 ar
     3    1   23 1
     4    2    3 ar
     5    2   24 1
     6    3    4 ar
     7    3   22 1
     8    4    5 ar
     9    4   25 1
    10    5    6 ar
    11    5   26 1
    12    6    7 1
    13    7   11 1
    14    7    8 2
    15    8    9 1
    16    8   27 1
    17    9   10 2
    18    9   28 1
    19   10   11 1
    20   10   12 1
    21   12   13 2
    22   12   29 1
    23   13   20 1
    24   13   14 1
    25   14   15 2
    26   14   16 am
    27   16   17 1
    28   16   30 1
    29   17   18 2
    30   17   19 1
    31   19   20 2
    32   20   21 1
@<TRIPOS>MOLECULE
ZINC00714467
   31    33     0     0     0
SMALL
USER_CHARGES
5-[[5-(3,4-dichlorophenyl)-2-furyl]methylene]-2-thioxo-hexahydropyrimidine-4,6-dione
@<TRIPOS>ATOM
      1 C1         -0.3622    5.9270    1.2724 C.ar      1 <0>        -0.0719
      2 C2         -1.0047    7.1016    1.6025 C.ar      1 <0>        -0.0956
      3 C3         -2.3799    7.1208    1.7643 C.ar      1 <0>        -0.0182
      4 C4         -3.1201    5.9605    1.5953 C.ar      1 <0>        -0.0311
      5 C5         -2.4901    4.7802    1.2588 C.ar      1 <0>        -0.0691
      6 C6         -1.1016    4.7537    1.1004 C.ar      1 <0>        -0.0167
      7 C7         -0.4204    3.4940    0.7473 C.2       1 <0>         0.0928
      8 C8         -1.0359    2.2748    0.5454 C.2       1 <0>        -0.2024
      9 C9         -0.0347    1.3581    0.2355 C.2       1 <0>        -0.1014
     10 C10         1.1670    2.0558    0.2506 C.2       1 <0>        -0.0560
     11 O1          0.9019    3.3431    0.5629 O.3       1 <0>        -0.1177
     12 C11         2.4338    1.5174   -0.0116 C.2       1 <0>         0.1649
     13 C12         3.3781    2.2668   -0.7083 C.2       1 <0>        -0.2932
     14 C13         3.0223    3.5407   -1.3557 C.2       1 <0>         0.5519
     15 O2          1.8868    3.9748   -1.2986 O.2       1 <0>        -0.4508
     16 N1          3.9901    4.2165   -2.0087 N.am      1 <0>        -0.6154
     17 C14         5.2433    3.7469   -2.0842 C.2       1 <0>         0.5451
     18 S1          6.4043    4.6680   -2.9413 S.2       1 <0>        -0.4991
     19 N2          5.6352    2.5937   -1.5243 N.am      1 <0>        -0.6160
     20 C15         4.7746    1.8167   -0.8349 C.2       1 <0>         0.5626
     21 O3          5.1423    0.7716   -0.3314 O.2       1 <0>        -0.4647
     22 Cl1        -4.8437    5.9950    1.7997 Cl        1 <0>        -0.0338
     23 Cl2        -3.1805    8.6037    2.1810 Cl        1 <0>        -0.0353
     24 H1          0.7104    5.9138    1.1466 H         1 <0>         0.1458
     25 H2         -0.4339    8.0088    1.7356 H         1 <0>         0.1520
     26 H3         -3.0677    3.8779    1.1229 H         1 <0>         0.1520
     27 H4         -2.0939    2.0702    0.6168 H         1 <0>         0.1656
     28 H5         -0.1671    0.3081    0.0202 H         1 <0>         0.1704
     29 H6          2.6777    0.5212    0.3267 H         1 <0>         0.1864
     30 H7          3.7732    5.0594   -2.4369 H         1 <0>         0.4488
     31 H8          6.5587    2.3117   -1.6167 H         1 <0>         0.4502
@<TRIPOS>BOND
     1    1    6 ar
     2    1    2 ar
     3    1   24 1
     4    2    3 ar
     5    2   25 1
     6    3    4 ar
     7    3   23 1
     8    4    5 ar
     9    4   22 1
    10    5    6 ar
    11    5   26 1
    12    6    7 1
    13    7   11 1
    14    7    8 2
    15    8    9 1
    16    8   27 1
    17    9   10 2
    18    9   28 1
    19   10   11 1
    20   10   12 1
    21   12   13 2
    22   12   29 1
    23   13   20 1
    24   13   14 1
    25   14   15 2
    26   14   16 am
    27   16   17 1
    28   16   30 1
    29   17   18 2
    30   17   19 1
    31   19   20 am
    32   19   31 1
    33   20   21 2
@<TRIPOS>MOLECULE
ZINC00244546
   31    32     0     0     0
SMALL
USER_CHARGES
2-[4-(2,5-dimethylpyrrol-1-yl)phenyl]acetic acid
@<TRIPOS>ATOM
      1 C1         -1.2490    2.2284    0.0204 C.3       1 <0>        -0.0821
      2 C2         -0.0164    1.3615    0.0095 C.2       1 <0>         0.0167
      3 C3          1.2587    1.8001   -0.0003 C.2       1 <0>        -0.2006
      4 C4          2.0959    0.6663   -0.0144 C.2       1 <0>        -0.2029
      5 C5          1.3017   -0.4234   -0.0126 C.2       1 <0>         0.0241
      6 N1          0.0021   -0.0041    0.0020 N.pl3     1 <0>        -0.3897
      7 C6         -1.1257   -0.8370    0.0083 C.ar      1 <0>         0.0847
      8 C7         -1.9732   -0.8518    1.1077 C.ar      1 <0>        -0.1047
      9 C8         -3.0859   -1.6702    1.1092 C.ar      1 <0>        -0.1039
     10 C9         -3.3504   -2.4817    0.0213 C.ar      1 <0>        -0.0160
     11 C10        -2.5054   -2.4726   -1.0732 C.ar      1 <0>        -0.1039
     12 C11        -1.3939   -1.6528   -1.0825 C.ar      1 <0>        -0.1050
     13 C12        -4.5618   -3.3781    0.0287 C.3       1 <0>        -0.1355
     14 C13        -4.1937   -4.7152    0.6185 C.2       1 <0>         0.4659
     15 O1         -3.0637   -4.9192    0.9942 O.co2     1 <0>        -0.6298
     16 C14         1.7677   -1.8565   -0.0252 C.3       1 <0>        -0.0866
     17 H1         -1.5411    2.4319    1.0506 H         1 <0>         0.0675
     18 H2         -1.0367    3.1682   -0.4894 H         1 <0>         0.0754
     19 H3         -2.0608    1.7123   -0.4923 H         1 <0>         0.0637
     20 H4          1.5797    2.8313    0.0019 H         1 <0>         0.1330
     21 H5          3.1759    0.6698   -0.0243 H         1 <0>         0.1334
     22 H6         -1.7648   -0.2213    1.9595 H         1 <0>         0.1211
     23 H7         -3.7476   -1.6795    1.9627 H         1 <0>         0.1261
     24 H8         -2.7146   -3.1075   -1.9215 H         1 <0>         0.1261
     25 H9         -0.7339   -1.6466   -1.9373 H         1 <0>         0.1211
     26 H10        -5.3487   -2.9207    0.6285 H         1 <0>         0.0791
     27 H11        -4.9174   -3.5168   -0.9923 H         1 <0>         0.0791
     28 H12         1.8703   -2.1962   -1.0559 H         1 <0>         0.0683
     29 H13         2.7312   -1.9297    0.4791 H         1 <0>         0.0763
     30 H14         1.0386   -2.4802    0.4919 H         1 <0>         0.0683
     31 O2         -5.1213   -5.6794    0.7263 O.co2     1 <0>        -0.7692
@<TRIPOS>BOND
     1    1    2 1
     2    1   17 1
     3    1   18 1
     4    1   19 1
     5    2    6 1
     6    2    3 2
     7    3    4 1
     8    3   20 1
     9    4    5 2
    10    4   21 1
    11    5    6 1
    12    5   16 1
    13    6    7 1
    14    7   12 ar
    15    7    8 ar
    16    8    9 ar
    17    8   22 1
    18    9   10 ar
    19    9   23 1
    20   10   11 ar
    21   10   13 1
    22   11   12 ar
    23   11   24 1
    24   12   25 1
    25   13   14 1
    26   13   26 1
    27   13   27 1
    28   14   15 2
    29   14   31 1
    30   16   28 1
    31   16   29 1
    32   16   30 1
@<TRIPOS>MOLECULE
ZINC13343438
   33    34     0     0     0
SMALL
USER_CHARGES
3-[(5Z)-5-[(3-bromo-4-methoxy-phenyl)methylene]-4-oxo-2-thioxo-thiazolidin-3-yl]propanoic acid
@<TRIPOS>ATOM
      1 C1          0.3983    9.2508    0.1594 C.3       1 <0>         0.0218
      2 O1         -0.2613    8.1021   -0.3769 O.3       1 <0>        -0.2970
      3 C2          0.3943    6.9165   -0.2864 C.ar      1 <0>         0.1790
      4 C3          1.6496    6.8629    0.3082 C.ar      1 <0>        -0.2069
      5 C4          2.3192    5.6638    0.4022 C.ar      1 <0>        -0.0218
      6 C5          1.7336    4.4959   -0.1025 C.ar      1 <0>        -0.1232
      7 C6          0.4714    4.5560   -0.7058 C.ar      1 <0>        -0.0239
      8 C7         -0.1923    5.7603   -0.7895 C.ar      1 <0>        -0.1260
      9 Br1        -1.9003    5.8427   -1.5968 Br        1 <0>        -0.0203
     10 C8          2.4433    3.2142   -0.0048 C.2       1 <0>         0.0754
     11 C9          1.8091    2.0603   -0.3349 C.2       1 <0>        -0.2299
     12 C10         2.3500    0.6923   -0.4629 C.2       1 <0>         0.5415
     13 O2          3.5259    0.4485   -0.2646 O.2       1 <0>        -0.4489
     14 N1          1.4921   -0.2547   -0.8034 N.am      1 <0>        -0.5153
     15 C11         0.1899    0.0197   -1.0218 C.2       1 <0>         0.2704
     16 S1         -1.0637   -1.0581   -1.4666 S.2       1 <0>        -0.3286
     17 S2          0.0898    1.7793   -0.7354 S.3       1 <0>         0.0458
     18 C12         1.9669   -1.6332   -0.9463 C.3       1 <0>         0.0998
     19 C13         2.4175   -1.8705   -2.3890 C.3       1 <0>        -0.1675
     20 C14         2.9060   -3.2886   -2.5359 C.2       1 <0>         0.4733
     21 O3          2.8948   -4.0330   -1.5843 O.co2     1 <0>        -0.6359
     22 H1         -0.2326   10.1290    0.0224 H         1 <0>         0.1069
     23 H2          0.5846    9.0995    1.2226 H         1 <0>         0.0614
     24 H3          1.3461    9.4000   -0.3579 H         1 <0>         0.0615
     25 H4          2.1004    7.7638    0.6975 H         1 <0>         0.1460
     26 H5          3.2943    5.6236    0.8648 H         1 <0>         0.1459
     27 H6          0.0172    3.6592   -1.1007 H         1 <0>         0.1485
     28 H7          3.4699    3.1895    0.3296 H         1 <0>         0.1664
     29 H8          2.8064   -1.8001   -0.2713 H         1 <0>         0.1061
     30 H9          1.1597   -2.3229   -0.6996 H         1 <0>         0.1160
     31 H10         1.5781   -1.7036   -3.0640 H         1 <0>         0.0752
     32 H11         3.2247   -1.1808   -2.6357 H         1 <0>         0.0684
     33 O4          3.3534   -3.7246   -3.7240 O.co2     1 <0>        -0.7638
@<TRIPOS>BOND
     1    1    2 1
     2    1   22 1
     3    1   23 1
     4    1   24 1
     5    2    3 1
     6    3    8 ar
     7    3    4 ar
     8    4    5 ar
     9    4   25 1
    10    5    6 ar
    11    5   26 1
    12    6    7 ar
    13    6   10 1
    14    7    8 ar
    15    7   27 1
    16    8    9 1
    17   10   11 2
    18   10   28 1
    19   11   17 1
    20   11   12 1
    21   12   13 2
    22   12   14 am
    23   14   15 1
    24   14   18 1
    25   15   16 2
    26   15   17 1
    27   18   19 1
    28   18   29 1
    29   18   30 1
    30   19   20 1
    31   19   31 1
    32   19   32 1
    33   20   21 2
    34   20   33 1
@<TRIPOS>MOLECULE
ZINC00266941
   28    29     0     0     0
SMALL
USER_CHARGES
2-chloro-5-(2,5-dimethylpyrrol-1-yl)benzoic acid
@<TRIPOS>ATOM
      1 C1         -3.2261   -2.0529   -2.2737 C.3       1 <0>        -0.0898
      2 C2         -3.3061   -2.8296   -0.9847 C.2       1 <0>         0.0265
      3 C3         -4.3131   -3.6470   -0.6152 C.2       1 <0>        -0.2005
      4 C4         -3.9934   -4.1639    0.6563 C.2       1 <0>        -0.1981
      5 C5         -2.8000   -3.6481    1.0146 C.2       1 <0>         0.0177
      6 N1         -2.3699   -2.8300    0.0093 N.pl3     1 <0>        -0.3923
      7 C6         -1.1687   -2.1057    0.0018 C.ar      1 <0>         0.0922
      8 C7          0.0476   -2.7782   -0.0134 C.ar      1 <0>        -0.1042
      9 C8          1.2344   -2.0707   -0.0209 C.ar      1 <0>        -0.1201
     10 C9          1.2202   -0.6891   -0.0133 C.ar      1 <0>        -0.0002
     11 C10         0.0021   -0.0041    0.0020 C.ar      1 <0>        -0.0957
     12 C11        -1.1956   -0.7212    0.0154 C.ar      1 <0>        -0.0552
     13 C12        -0.0179    1.4723    0.0101 C.2       1 <0>         0.4858
     14 O1          1.0257    2.0940    0.0035 O.co2     1 <0>        -0.5999
     15 Cl1         2.7141    0.1952   -0.0222 Cl        1 <0>        -0.0370
     16 C13        -2.0679   -3.9261    2.3021 C.3       1 <0>        -0.0850
     17 H1         -2.7311   -2.6587   -3.0328 H         1 <0>         0.0675
     18 H2         -4.2321   -1.8009   -2.6091 H         1 <0>         0.0788
     19 H3         -2.6571   -1.1375   -2.1115 H         1 <0>         0.0700
     20 H4         -5.2036   -3.8626   -1.1871 H         1 <0>         0.1346
     21 H5         -4.5943   -4.8477    1.2375 H         1 <0>         0.1340
     22 H6          0.0651   -3.8580   -0.0198 H         1 <0>         0.1299
     23 H7          2.1761   -2.5993   -0.0324 H         1 <0>         0.1362
     24 H8         -2.1402   -0.1979    0.0318 H         1 <0>         0.1441
     25 H9         -2.3684   -3.1980    3.0555 H         1 <0>         0.0695
     26 H10        -2.3119   -4.9301    2.6494 H         1 <0>         0.0764
     27 H11        -0.9937   -3.8513    2.1327 H         1 <0>         0.0638
     28 O2         -1.1937    2.1300    0.0193 O.co2     1 <0>        -0.7489
@<TRIPOS>BOND
     1    1    2 1
     2    1   17 1
     3    1   18 1
     4    1   19 1
     5    2    6 1
     6    2    3 2
     7    3    4 1
     8    3   20 1
     9    4    5 2
    10    4   21 1
    11    5    6 1
    12    5   16 1
    13    6    7 1
    14    7   12 ar
    15    7    8 ar
    16    8    9 ar
    17    8   22 1
    18    9   10 ar
    19    9   23 1
    20   10   11 ar
    21   10   15 1
    22   11   12 ar
    23   11   13 1
    24   12   24 1
    25   13   14 2
    26   13   28 1
    27   16   25 1
    28   16   26 1
    29   16   27 1
@<TRIPOS>MOLECULE
ZINC00029121
   29    30     0     0     0
SMALL
USER_CHARGES
4-(2,5-dimethylpyrrol-1-yl)-2-hydroxy-benzoic acid
@<TRIPOS>ATOM
      1 C1          3.3372    3.2078    2.2832 C.3       1 <0>        -0.0861
      2 C2          4.0445    2.9292    0.9820 C.2       1 <0>         0.0203
      3 C3          5.2388    3.4306    0.6083 C.2       1 <0>        -0.1995
      4 C4          5.5280    2.9238   -0.6752 C.2       1 <0>        -0.2003
      5 C5          4.5027    2.1266   -1.0363 C.2       1 <0>         0.0230
      6 N1          3.5880    2.1217   -0.0213 N.pl3     1 <0>        -0.3922
      7 C6          2.3829    1.4133   -0.0131 C.ar      1 <0>         0.1178
      8 C7          2.3969    0.0209   -0.0207 C.ar      1 <0>        -0.1366
      9 C8          1.2260   -0.6813   -0.0133 C.ar      1 <0>        -0.0521
     10 C9          0.0021   -0.0041    0.0020 C.ar      1 <0>        -0.1295
     11 C10        -0.0170    1.3994    0.0097 C.ar      1 <0>         0.1494
     12 C11         1.1773    2.1005    0.0021 C.ar      1 <0>        -0.1554
     13 O1         -1.1987    2.0653    0.0189 O.3       1 <0>        -0.4712
     14 C12        -1.2607   -0.7602    0.0095 C.2       1 <0>         0.4870
     15 O2         -2.3228   -0.1694    0.0224 O.co2     1 <0>        -0.6112
     16 C13         4.3853    1.3717   -2.3353 C.3       1 <0>        -0.0876
     17 H1          3.6418    2.4718    3.0272 H         1 <0>         0.0689
     18 H2          3.5986    4.2068    2.6322 H         1 <0>         0.0769
     19 H3          2.2596    3.1464    2.1314 H         1 <0>         0.0653
     20 H4          5.8585    4.1015    1.1847 H         1 <0>         0.1341
     21 H5          6.4097    3.1358   -1.2618 H         1 <0>         0.1343
     22 H6          3.3393   -0.5065   -0.0322 H         1 <0>         0.1246
     23 H7          1.2448   -1.7611   -0.0196 H         1 <0>         0.1436
     24 H8          1.1704    3.1805    0.0076 H         1 <0>         0.1283
     25 H9         -1.5371    2.2536    0.9050 H         1 <0>         0.3882
     26 H10         3.8810    1.9952   -3.0736 H         1 <0>         0.0689
     27 H11         5.3807    1.1136   -2.6968 H         1 <0>         0.0772
     28 H12         3.8093    0.4603   -2.1751 H         1 <0>         0.0675
     29 O3         -1.2393   -2.1079    0.0021 O.co2     1 <0>        -0.7536
@<TRIPOS>BOND
     1    1    2 1
     2    1   17 1
     3    1   18 1
     4    1   19 1
     5    2    6 1
     6    2    3 2
     7    3    4 1
     8    3   20 1
     9    4    5 2
    10    4   21 1
    11    5    6 1
    12    5   16 1
    13    6    7 1
    14    7   12 ar
    15    7    8 ar
    16    8    9 ar
    17    8   22 1
    18    9   10 ar
    19    9   23 1
    20   10   11 ar
    21   10   14 1
    22   11   12 ar
    23   11   13 1
    24   12   24 1
    25   13   25 1
    26   14   15 2
    27   14   29 1
    28   16   26 1
    29   16   27 1
    30   16   28 1
@<TRIPOS>MOLECULE
ZINC00671822
   43    45     0     0     0
SMALL
USER_CHARGES

@<TRIPOS>ATOM
      1 C1          0.3068   -0.0945   -1.2529 C.3       1 <0>        -0.1456
      2 C2          0.0636   -1.5965   -1.4132 C.3       1 <0>        -0.0023
      3 C3         -1.4035   -1.8899   -1.2325 C.2       1 <0>        -0.0333
      4 N1         -2.3745   -1.9308   -2.1220 N.2       1 <0>        -0.2320
      5 N2         -3.5661   -2.1955   -1.8046 N.2       1 <0>        -0.4364
      6 C4         -3.9157   -2.4498   -0.5506 C.2       1 <0>         0.4265
      7 S1         -2.3226   -2.2901    0.2511 S.3       1 <0>        -0.1394
      8 N3         -5.1577   -2.7565   -0.0149 N.2       1 <0>        -1.0172
      9 S2         -6.4851   -2.8474   -1.0009 S.o2      1 <0>         2.6405
     10 O1         -6.7158   -1.5347   -1.4936 O.2       1 <0>        -1.0029
     11 O2         -6.2762   -3.9585   -1.8618 O.2       1 <0>        -1.0018
     12 C5         -7.8643   -3.2524    0.0182 C.ar      1 <0>        -0.6389
     13 C6         -8.1894   -4.5772    0.2448 C.ar      1 <0>         0.0008
     14 C7         -9.2698   -4.8979    1.0431 C.ar      1 <0>        -0.1435
     15 C8        -10.0297   -3.8882    1.6189 C.ar      1 <0>         0.1975
     16 C9         -9.7004   -2.5588    1.3899 C.ar      1 <0>        -0.1683
     17 C10        -8.6158   -2.2447    0.5944 C.ar      1 <0>         0.0003
     18 N4        -11.1253   -4.2098    2.4279 N.am      1 <0>        -0.6789
     19 C11       -11.0978   -5.3221    3.1886 C.2       1 <0>         0.7026
     20 O3        -10.0869   -5.9953    3.2449 O.2       1 <0>        -0.5437
     21 N5        -12.1909   -5.6880    3.8870 N.am      1 <0>        -0.6823
     22 C12       -12.1301   -6.7801    4.7606 C.ar      1 <0>         0.1720
     23 C13       -10.9544   -7.0590    5.4447 C.ar      1 <0>        -0.1081
     24 C14       -10.8972   -8.1368    6.3064 C.ar      1 <0>        -0.0867
     25 C15       -12.0103   -8.9385    6.4884 C.ar      1 <0>        -0.0526
     26 C16       -13.1833   -8.6628    5.8078 C.ar      1 <0>        -0.0894
     27 C17       -13.2473   -7.5831    4.9490 C.ar      1 <0>        -0.1360
     28 Cl1       -11.9350  -10.2928    7.5718 Cl        1 <0>        -0.0723
     29 H1          1.3679    0.1178   -1.3836 H         1 <0>         0.0575
     30 H2         -0.2675    0.4487   -2.0034 H         1 <0>         0.0583
     31 H3         -0.0068    0.2202   -0.2575 H         1 <0>         0.0549
     32 H4          0.3771   -1.9111   -2.4086 H         1 <0>         0.0856
     33 H5          0.6379   -2.1397   -0.6628 H         1 <0>         0.0770
     34 H6         -7.5980   -5.3620   -0.2033 H         1 <0>         0.1427
     35 H7         -9.5236   -5.9328    1.2191 H         1 <0>         0.1412
     36 H8        -10.2894   -1.7713    1.8363 H         1 <0>         0.1319
     37 H9         -8.3569   -1.2110    0.4189 H         1 <0>         0.1439
     38 H10       -11.9045   -3.6323    2.4412 H         1 <0>         0.4098
     39 H11       -13.0197   -5.1946    3.7842 H         1 <0>         0.4103
     40 H12       -10.0853   -6.4338    5.3028 H         1 <0>         0.1476
     41 H13        -9.9828   -8.3543    6.8385 H         1 <0>         0.1381
     42 H14       -14.0505   -9.2903    5.9513 H         1 <0>         0.1373
     43 H15       -14.1642   -7.3659    4.4212 H         1 <0>         0.1353
@<TRIPOS>BOND
     1    1    2 1
     2    1   29 1
     3    1   30 1
     4    1   31 1
     5    2    3 1
     6    2   32 1
     7    2   33 1
     8    3    7 1
     9    3    4 2
    10    4    5 1
    11    5    6 2
    12    6    7 1
    13    6    8 1
    14    8    9 1
    15    9   10 2
    16    9   11 2
    17    9   12 1
    18   12   17 ar
    19   12   13 ar
    20   13   14 ar
    21   13   34 1
    22   14   15 ar
    23   14   35 1
    24   15   16 ar
    25   15   18 1
    26   16   17 ar
    27   16   36 1
    28   17   37 1
    29   18   19 am
    30   18   38 1
    31   19   20 2
    32   19   21 am
    33   21   22 1
    34   21   39 1
    35   22   27 ar
    36   22   23 ar
    37   23   24 ar
    38   23   40 1
    39   24   25 ar
    40   24   41 1
    41   25   26 ar
    42   25   28 1
    43   26   27 ar
    44   26   42 1
    45   27   43 1
@<TRIPOS>MOLECULE
ZINC12730092
   40    42     0     0     0
SMALL
USER_CHARGES

@<TRIPOS>ATOM
      1 C1         -0.1559    1.3274   -0.0876 C.3       1 <0>        -0.1450
      2 C2          0.8407    0.2241    0.1587 C.2       1 <0>         0.0907
      3 C3          1.7249   -0.1668   -0.8393 C.2       1 <0>        -0.1383
      4 C4          2.6830   -1.2412   -0.5747 C.2       1 <0>         0.5741
      5 O1          3.4584   -1.5846   -1.4484 O.2       1 <0>        -0.4886
      6 N1          2.7172   -1.8530    0.6220 N.am      1 <0>        -0.6595
      7 C5          1.8766   -1.5017    1.6116 C.2       1 <0>         0.5605
      8 O2          1.9315   -2.0745    2.6841 O.2       1 <0>        -0.4790
      9 C6          0.8972   -0.4268    1.4074 C.2       1 <0>        -0.2034
     10 C7          0.0260   -0.0564    2.4396 C.2       1 <0>         0.1119
     11 C8         -0.0448   -0.8254    3.6034 C.2       1 <0>        -0.0345
     12 C9         -0.1491   -0.3345    4.9030 C.2       1 <0>        -0.1190
     13 C10        -0.1901   -1.4388    5.7470 C.2       1 <0>        -0.1921
     14 C11        -0.1105   -2.5639    4.9480 C.2       1 <0>         0.0702
     15 O3         -0.0298   -2.1751    3.6645 O.3       1 <0>        -0.1142
     16 C12        -0.1192   -3.9595    5.4247 C.ar      1 <0>         0.0321
     17 C13        -0.2198   -4.2341    6.7915 C.ar      1 <0>        -0.1134
     18 C14        -0.2273   -5.5416    7.2298 C.ar      1 <0>        -0.0181
     19 C15        -0.1349   -6.5805    6.3201 C.ar      1 <0>        -0.6701
     20 C16        -0.0350   -6.3164    4.9652 C.ar      1 <0>        -0.0131
     21 C17        -0.0326   -5.0141    4.5115 C.ar      1 <0>        -0.1137
     22 S1         -0.1441   -8.2479    6.8897 S.o2      1 <0>         2.7017
     23 O4          0.5024   -9.0225    5.8891 O.2       1 <0>        -0.9588
     24 O5          0.3034   -8.2188    8.2381 O.2       1 <0>        -0.9568
     25 N2         -1.7235   -8.7443    6.9258 N.pl3     1 <0>        -1.2471
     26 C18         1.6986    0.4768   -2.1182 C.1       1 <0>         0.2679
     27 N3          1.6778    0.9874   -3.1328 N.1       1 <0>        -0.3945
     28 H1          0.2885    2.2853    0.1827 H         1 <0>         0.1053
     29 H2         -0.4315    1.3394   -1.1421 H         1 <0>         0.0890
     30 H3         -1.0453    1.1555    0.5186 H         1 <0>         0.0910
     31 H4          3.3610   -2.5623    0.7748 H         1 <0>         0.4257
     32 H5         -0.5912    0.8238    2.3357 H         1 <0>         0.1807
     33 H6         -0.1896    0.7036    5.1982 H         1 <0>         0.1680
     34 H7         -0.2689   -1.4209    6.8240 H         1 <0>         0.1638
     35 H8         -0.2912   -3.4244    7.5026 H         1 <0>         0.1432
     36 H9         -0.3050   -5.7554    8.2856 H         1 <0>         0.1521
     37 H10         0.0371   -7.1322    4.2612 H         1 <0>         0.1497
     38 H11         0.0406   -4.8096    3.4535 H         1 <0>         0.1410
     39 H12        -1.9417   -9.6784    6.7815 H         1 <0>         0.4232
     40 H13        -2.4304   -8.1010    7.0912 H         1 <0>         0.4175
@<TRIPOS>BOND
     1    1    2 1
     2    1   28 1
     3    1   29 1
     4    1   30 1
     5    2    9 1
     6    2    3 2
     7    3    4 1
     8    3   26 1
     9    4    5 2
    10    4    6 am
    11    6    7 am
    12    6   31 1
    13    7    8 2
    14    7    9 1
    15    9   10 2
    16   10   11 1
    17   10   32 1
    18   11   15 1
    19   11   12 2
    20   12   13 1
    21   12   33 1
    22   13   14 2
    23   13   34 1
    24   14   15 1
    25   14   16 1
    26   16   21 ar
    27   16   17 ar
    28   17   18 ar
    29   17   35 1
    30   18   19 ar
    31   18   36 1
    32   19   20 ar
    33   19   22 1
    34   20   21 ar
    35   20   37 1
    36   21   38 1
    37   22   23 2
    38   22   24 2
    39   22   25 1
    40   25   39 1
    41   25   40 1
    42   26   27 3
@<TRIPOS>MOLECULE
ZINC00060919
   36    37     0     0     0
SMALL
USER_CHARGES

@<TRIPOS>ATOM
      1 C1         -0.0167    1.3793    0.0096 C.ar      1 <0>        -0.1243
      2 C2          1.1684    2.0934    0.0021 C.ar      1 <0>        -0.1177
      3 C3          2.3774    1.4290   -0.0134 C.ar      1 <0>        -0.1083
      4 C4          2.4033    0.0337   -0.0211 C.ar      1 <0>         0.0023
      5 C5          1.2044   -0.6806   -0.0130 C.ar      1 <0>        -0.1030
      6 C6          0.0021   -0.0041    0.0020 C.ar      1 <0>        -0.1149
      7 C7          3.6954   -0.6848   -0.0382 C.2       1 <0>         0.0048
      8 C8          3.8483   -2.0316   -0.0523 C.2       1 <0>        -0.1494
      9 C9          5.2968   -2.2701   -0.0661 C.2       1 <0>        -0.1830
     10 C10         5.8767   -1.0310   -0.0588 C.2       1 <0>         0.0110
     11 O1          4.9114   -0.1082   -0.0481 O.3       1 <0>        -0.1773
     12 C11         7.3580   -0.7535   -0.0671 C.3       1 <0>         0.0272
     13 S1          7.9397   -0.6262   -1.7805 S.3       1 <0>        -0.2683
     14 C12         9.7158   -0.2954   -1.6175 C.3       1 <0>        -0.1017
     15 C13        10.3398   -0.1636   -3.0083 C.3       1 <0>        -0.0233
     16 H1          9.8646    0.6586   -3.5433 H         1 <0>         0.1383
     17 C14        11.8153    0.1112   -2.8729 C.2       1 <0>         0.4976
     18 O2         12.6260   -0.7431   -3.1882 O.co2     1 <0>        -0.6688
     19 O3         12.1984    1.1879   -2.4480 O.co2     1 <0>        -0.6365
     20 N1         10.1409   -1.4132   -3.7546 N.4       1 <0>        -0.6120
     21 C15         5.9821   -3.5707   -0.0840 C.2       1 <0>         0.5458
     22 O4          5.3297   -4.6059   -0.0892 O.co2     1 <0>        -0.6816
     23 O5          7.2048   -3.6180   -0.0937 O.co2     1 <0>        -0.6803
     24 H2         -0.9605    1.9041    0.0260 H         1 <0>         0.1219
     25 H3          1.1469    3.1731    0.0081 H         1 <0>         0.1238
     26 H4          3.3017    1.9876   -0.0199 H         1 <0>         0.1267
     27 H5          1.2177   -1.7605   -0.0192 H         1 <0>         0.1302
     28 H6         -0.9265   -0.5556    0.0082 H         1 <0>         0.1266
     29 H7          3.0657   -2.7759   -0.0530 H         1 <0>         0.1537
     30 H8          7.5551    0.1833    0.4541 H         1 <0>         0.0924
     31 H9          7.8826   -1.5662    0.4353 H         1 <0>         0.1384
     32 H10         9.8634    0.6318   -1.0638 H         1 <0>         0.1213
     33 H11        10.1910   -1.1177   -1.0825 H         1 <0>         0.1029
     34 H12        10.5807   -2.1744   -3.2594 H         1 <0>         0.4346
     35 H13         9.1530   -1.5972   -3.8453 H         1 <0>         0.4225
     36 H14        10.5524   -1.3263   -4.6718 H         1 <0>         0.4283
@<TRIPOS>BOND
     1    1    6 ar
     2    1    2 ar
     3    1   24 1
     4    2    3 ar
     5    2   25 1
     6    3    4 ar
     7    3   26 1
     8    4    5 ar
     9    4    7 1
    10    5    6 ar
    11    5   27 1
    12    6   28 1
    13    7   11 1
    14    7    8 2
    15    8    9 1
    16    8   29 1
    17    9   10 2
    18    9   21 1
    19   10   11 1
    20   10   12 1
    21   12   13 1
    22   12   30 1
    23   12   31 1
    24   13   14 1
    25   14   15 1
    26   14   32 1
    27   14   33 1
    28   15   16 1
    29   15   17 1
    30   15   20 1
    31   17   18 2
    32   17   19 1
    33   20   34 1
    34   20   35 1
    35   20   36 1
    36   21   22 2
    37   21   23 1
@<TRIPOS>MOLECULE
ZINC05604479
   36    37     0     0     0
SMALL
USER_CHARGES

@<TRIPOS>ATOM
      1 C1         -0.0167    1.3793    0.0096 C.ar      1 <0>        -0.1251
      2 C2          1.1684    2.0934    0.0021 C.ar      1 <0>        -0.1180
      3 C3          2.3774    1.4290   -0.0134 C.ar      1 <0>        -0.1098
      4 C4          2.4033    0.0337   -0.0211 C.ar      1 <0>         0.0042
      5 C5          1.2044   -0.6806   -0.0130 C.ar      1 <0>        -0.1032
      6 C6          0.0021   -0.0041    0.0020 C.ar      1 <0>        -0.1140
      7 C7          3.6954   -0.6848   -0.0382 C.2       1 <0>         0.0018
      8 C8          3.8483   -2.0316   -0.0523 C.2       1 <0>        -0.1474
      9 C9          5.2968   -2.2701   -0.0661 C.2       1 <0>        -0.1774
     10 C10         5.8767   -1.0310   -0.0588 C.2       1 <0>         0.0071
     11 O1          4.9114   -0.1082   -0.0481 O.3       1 <0>        -0.1799
     12 C11         7.3580   -0.7535   -0.0671 C.3       1 <0>         0.0268
     13 S1          7.9397   -0.6262   -1.7805 S.3       1 <0>        -0.2632
     14 C12         9.7158   -0.2954   -1.6175 C.3       1 <0>        -0.1030
     15 C13        10.3398   -0.1636   -3.0083 C.3       1 <0>        -0.0250
     16 H1         10.1157   -1.0558   -3.5930 H         1 <0>         0.1431
     17 C14        11.8333   -0.0114   -2.8764 C.2       1 <0>         0.4956
     18 O2         12.5487   -0.9987   -2.8725 O.co2     1 <0>        -0.6299
     19 O3         12.3261    1.0990   -2.7736 O.co2     1 <0>        -0.6702
     20 N1          9.7850    1.0169   -3.6840 N.4       1 <0>        -0.6128
     21 C15         5.9821   -3.5707   -0.0840 C.2       1 <0>         0.5430
     22 O4          5.3297   -4.6059   -0.0892 O.co2     1 <0>        -0.6827
     23 O5          7.2048   -3.6180   -0.0937 O.co2     1 <0>        -0.6737
     24 H2         -0.9605    1.9041    0.0260 H         1 <0>         0.1218
     25 H3          1.1469    3.1731    0.0081 H         1 <0>         0.1232
     26 H4          3.3017    1.9876   -0.0199 H         1 <0>         0.1255
     27 H5          1.2177   -1.7605   -0.0192 H         1 <0>         0.1307
     28 H6         -0.9265   -0.5556    0.0082 H         1 <0>         0.1268
     29 H7          3.0657   -2.7759   -0.0530 H         1 <0>         0.1539
     30 H8          7.5551    0.1833    0.4541 H         1 <0>         0.0887
     31 H9          7.8826   -1.5662    0.4353 H         1 <0>         0.1402
     32 H10         9.8634    0.6318   -1.0638 H         1 <0>         0.0974
     33 H11        10.1910   -1.1177   -1.0825 H         1 <0>         0.1257
     34 H12         9.9924    1.8427   -3.1427 H         1 <0>         0.4310
     35 H13        10.1965    1.1037   -4.6012 H         1 <0>         0.4285
     36 H14         8.7851    0.9149   -3.7723 H         1 <0>         0.4203
@<TRIPOS>BOND
     1    1    6 ar
     2    1    2 ar
     3    1   24 1
     4    2    3 ar
     5    2   25 1
     6    3    4 ar
     7    3   26 1
     8    4    5 ar
     9    4    7 1
    10    5    6 ar
    11    5   27 1
    12    6   28 1
    13    7   11 1
    14    7    8 2
    15    8    9 1
    16    8   29 1
    17    9   10 2
    18    9   21 1
    19   10   11 1
    20   10   12 1
    21   12   13 1
    22   12   30 1
    23   12   31 1
    24   13   14 1
    25   14   15 1
    26   14   32 1
    27   14   33 1
    28   15   16 1
    29   15   17 1
    30   15   20 1
    31   17   18 2
    32   17   19 1
    33   20   34 1
    34   20   35 1
    35   20   36 1
    36   21   22 2
    37   21   23 1
@<TRIPOS>MOLECULE
ZINC33701288
   48    53     0     0     0
SMALL
USER_CHARGES
5-chloro-2-[5-[(Z)-(dioxoBLAHylidene)methyl]-2-furyl]benzoic acid
@<TRIPOS>ATOM
      1 C1        -10.2628    1.5866   11.0629 C.ar      1 <0>        -0.1173
      2 C2        -10.4717    1.3457    9.7211 C.ar      1 <0>        -0.0870
      3 C3         -9.6142    0.4934    9.0232 C.ar      1 <0>        -0.0296
      4 C4         -8.5305   -0.1080    9.6977 C.ar      1 <0>        -0.0681
      5 C5         -8.3343    0.1533   11.0535 C.ar      1 <0>        -0.0703
      6 C6         -9.1978    0.9956   11.7262 C.ar      1 <0>        -0.0301
      7 Cl1        -8.9486    1.3165   13.4139 Cl        1 <0>        -0.0763
      8 C7         -7.6120   -1.0057    8.9742 C.2       1 <0>         0.4838
      9 O1         -7.7868   -1.2301    7.7928 O.co2     1 <0>        -0.5995
     10 O2         -6.5785   -1.5776    9.6231 O.co2     1 <0>        -0.7353
     11 C8         -9.8355    0.2286    7.5916 C.2       1 <0>         0.1510
     12 C9        -11.0290   -0.1554    7.0192 C.2       1 <0>        -0.2294
     13 C10       -10.7989   -0.2919    5.6490 C.2       1 <0>        -0.1062
     14 C11        -9.4640    0.0063    5.4352 C.2       1 <0>        -0.0675
     15 O3         -8.9061    0.3204    6.6224 O.3       1 <0>        -0.1013
     16 C12        -8.8023   -0.0098    4.1888 C.2       1 <0>         0.1550
     17 C13        -7.4771    0.3122    4.1150 C.2       1 <0>        -0.2856
     18 C14        -6.6231    0.3609    2.9812 C.2       1 <0>         0.5515
     19 O4         -7.0563    0.0914    1.8755 O.2       1 <0>        -0.4650
     20 N1         -5.3351    0.7063    3.1367 N.am      1 <0>        -0.4834
     21 C15        -4.3884    0.7949    2.1272 C.2       1 <0>         0.0729
     22 C16        -3.0698    1.1580    2.3578 C.2       1 <0>        -0.2202
     23 C17        -2.1990    1.2000    1.1812 C.2       1 <0>        -0.0504
     24 C18        -2.7601    0.8860   -0.0055 C.2       1 <0>        -0.1796
     25 S1         -4.4527    0.5213    0.3758 S.3       1 <0>         0.1733
     26 C19        -2.0929    0.8548   -1.3458 C.3       1 <0>        -0.0355
     27 C20        -0.7501    1.5915   -1.2354 C.3       1 <0>        -0.1144
     28 C21        -0.0127    1.0858    0.0080 C.3       1 <0>        -0.1214
     29 C22        -0.7251    1.5773    1.2688 C.3       1 <0>        -0.0617
     30 C23        -2.7174    1.4539    3.7694 C.2       1 <0>         0.5601
     31 O5         -1.5821    1.7827    4.0755 O.2       1 <0>        -0.4631
     32 N2         -3.6748    1.3512    4.6968 N.2       1 <0>        -0.5320
     33 C24        -4.9004    1.0018    4.4082 C.2       1 <0>         0.4010
     34 S2         -6.3512    0.7854    5.4183 S.3       1 <0>         0.2286
     35 H1        -10.9311    2.2434   11.6000 H         1 <0>         0.1358
     36 H2        -11.3010    1.8132    9.2112 H         1 <0>         0.1364
     37 H3         -7.5071   -0.3026   11.5773 H         1 <0>         0.1498
     38 H4        -11.9656   -0.3155    7.5326 H         1 <0>         0.1574
     39 H5        -11.5227   -0.5775    4.9000 H         1 <0>         0.1609
     40 H6         -9.3539   -0.2817    3.2767 H         1 <0>         0.1878
     41 H7         -1.9256   -0.1896   -1.6479 H         1 <0>         0.0859
     42 H8         -2.7355    1.3524   -2.0870 H         1 <0>         0.0834
     43 H9         -0.1475    1.3921   -2.1338 H         1 <0>         0.0750
     44 H10        -0.9313    2.6730   -1.1481 H         1 <0>         0.0697
     45 H11         0.0016   -0.0141    0.0038 H         1 <0>         0.0670
     46 H12         1.0195    1.4659    0.0021 H         1 <0>         0.0725
     47 H13        -0.6305    2.6704    1.3474 H         1 <0>         0.0814
     48 H14        -0.2780    1.1059    2.1564 H         1 <0>         0.0898
@<TRIPOS>BOND
     1    1    6 ar
     2    1    2 ar
     3    1   35 1
     4    2    3 ar
     5    2   36 1
     6    3    4 ar
     7    3   11 1
     8    4    5 ar
     9    4    8 1
    10    5    6 ar
    11    5   37 1
    12    6    7 1
    13    8    9 2
    14    8   10 1
    15   11   15 1
    16   11   12 2
    17   12   13 1
    18   12   38 1
    19   13   14 2
    20   13   39 1
    21   14   15 1
    22   14   16 1
    23   16   17 2
    24   16   40 1
    25   17   34 1
    26   17   18 1
    27   18   19 2
    28   18   20 am
    29   20   33 1
    30   20   21 1
    31   21   25 1
    32   21   22 2
    33   22   23 1
    34   22   30 1
    35   23   29 1
    36   23   24 2
    37   24   25 1
    38   24   26 1
    39   26   27 1
    40   26   41 1
    41   26   42 1
    42   27   28 1
    43   27   43 1
    44   27   44 1
    45   28   29 1
    46   28   45 1
    47   28   46 1
    48   29   47 1
    49   29   48 1
    50   30   31 2
    51   30   32 1
    52   32   33 2
    53   33   34 1
@<TRIPOS>MOLECULE
ZINC08035014
   73    73     0     0     0
SMALL
USER_CHARGES
N-[2-(3,4-dihydroxyphenyl)ethyl]octadec-9-enamide
@<TRIPOS>ATOM
      1 C1         -4.2408   18.8244    6.2126 C.3       1 <0>        -0.1543
      2 C2         -4.0861   17.3157    6.0108 C.3       1 <0>        -0.1260
      3 C3         -5.0558   16.8443    4.9252 C.3       1 <0>        -0.1214
      4 C4         -4.9010   15.3355    4.7234 C.3       1 <0>        -0.1210
      5 C5         -5.8707   14.8641    3.6378 C.3       1 <0>        -0.1206
      6 C6         -5.7160   13.3554    3.4360 C.3       1 <0>        -0.1204
      7 C7         -6.6856   12.8840    2.3505 C.3       1 <0>        -0.1137
      8 C8         -6.5309   11.3753    2.1486 C.3       1 <0>        -0.1019
      9 C9         -7.4860   10.9109    1.0794 C.2       1 <0>        -0.1603
     10 C10        -7.0396   10.2299    0.0532 C.2       1 <0>        -0.1597
     11 C11        -5.6066    9.7642    0.0238 C.3       1 <0>        -0.1015
     12 C12        -5.5646    8.2612   -0.2595 C.3       1 <0>        -0.1145
     13 C13        -4.1098    7.7884   -0.2894 C.3       1 <0>        -0.1198
     14 C14        -4.0678    6.2854   -0.5726 C.3       1 <0>        -0.1207
     15 C15        -2.6130    5.8125   -0.6025 C.3       1 <0>        -0.1197
     16 C16        -2.5710    4.3096   -0.8857 C.3       1 <0>        -0.1057
     17 C17        -1.1162    3.8367   -0.9156 C.3       1 <0>        -0.1404
     18 C18        -1.0748    2.3563   -1.1945 C.2       1 <0>         0.5103
     19 O1         -2.1072    1.7402   -1.3537 O.2       1 <0>        -0.5362
     20 N1          0.1096    1.7171   -1.2671 N.am      1 <0>        -0.7360
     21 C19         0.1498    0.2780   -1.5383 C.3       1 <0>         0.1222
     22 C20         1.6048   -0.1936   -1.5750 C.3       1 <0>        -0.0901
     23 C21         1.6462   -1.6739   -1.8539 C.ar      1 <0>        -0.0761
     24 C22         1.6283   -2.5742   -0.8049 C.ar      1 <0>        -0.1046
     25 C23         1.6604   -3.9333   -1.0558 C.ar      1 <0>        -0.1272
     26 C24         1.7221   -4.3957   -2.3605 C.ar      1 <0>         0.0801
     27 C25         1.7459   -3.4894   -3.4162 C.ar      1 <0>         0.0833
     28 C26         1.7077   -2.1286   -3.1580 C.ar      1 <0>        -0.1240
     29 O2          1.8059   -3.9383   -4.6985 O.3       1 <0>        -0.4872
     30 O3          1.7589   -5.7323   -2.6089 O.3       1 <0>        -0.4878
     31 H1         -4.0193   19.3405    5.2785 H         1 <0>         0.0533
     32 H2         -5.2634   19.0472    6.5172 H         1 <0>         0.0533
     33 H3         -3.5500   19.1602    6.9860 H         1 <0>         0.0534
     34 H4         -4.3077   16.7995    6.9449 H         1 <0>         0.0602
     35 H5         -3.0635   17.0928    5.7063 H         1 <0>         0.0602
     36 H6         -4.8342   17.3604    3.9911 H         1 <0>         0.0606
     37 H7         -6.0784   17.0671    5.2298 H         1 <0>         0.0606
     38 H8         -5.1226   14.8194    5.6575 H         1 <0>         0.0606
     39 H9         -3.8785   15.1127    4.4189 H         1 <0>         0.0605
     40 H10        -5.6491   15.3803    2.7037 H         1 <0>         0.0607
     41 H11        -6.8933   15.0870    3.9424 H         1 <0>         0.0607
     42 H12        -5.9376   12.8393    4.3702 H         1 <0>         0.0611
     43 H13        -4.6934   13.1326    3.1315 H         1 <0>         0.0607
     44 H14        -6.4640   13.4001    1.4163 H         1 <0>         0.0615
     45 H15        -7.7082   13.1068    2.6550 H         1 <0>         0.0612
     46 H16        -6.7525   10.8591    3.0828 H         1 <0>         0.0676
     47 H17        -5.5083   11.1524    1.8441 H         1 <0>         0.0758
     48 H18        -8.5385   11.1396    1.1591 H         1 <0>         0.1071
     49 H19        -7.6984   10.0023   -0.7717 H         1 <0>         0.1073
     50 H20        -5.1393    9.9655    0.9877 H         1 <0>         0.0757
     51 H21        -5.0675   10.2968   -0.7597 H         1 <0>         0.0677
     52 H22        -6.0320    8.0599   -1.2234 H         1 <0>         0.0616
     53 H23        -6.1037    7.7286    0.5240 H         1 <0>         0.0619
     54 H24        -3.6425    7.9897    0.6746 H         1 <0>         0.0608
     55 H25        -3.5707    8.3209   -1.0728 H         1 <0>         0.0611
     56 H26        -4.5351    6.0841   -1.5365 H         1 <0>         0.0624
     57 H27        -4.6069    5.7528    0.2109 H         1 <0>         0.0624
     58 H28        -2.1456    6.0138    0.3615 H         1 <0>         0.0620
     59 H29        -2.0739    6.3451   -1.3859 H         1 <0>         0.0620
     60 H30        -3.0383    4.1083   -1.8496 H         1 <0>         0.0696
     61 H31        -3.1101    3.7770   -0.1022 H         1 <0>         0.0696
     62 H32        -0.6488    4.0380    0.0483 H         1 <0>         0.0935
     63 H33        -0.5770    4.3693   -1.6990 H         1 <0>         0.0934
     64 H34         0.9354    2.2107   -1.1437 H         1 <0>         0.4012
     65 H35        -0.3851   -0.2549   -0.7522 H         1 <0>         0.0706
     66 H36        -0.3219    0.0762   -2.4999 H         1 <0>         0.0701
     67 H37         2.1398    0.3394   -2.3610 H         1 <0>         0.0820
     68 H38         2.0766    0.0083   -0.6133 H         1 <0>         0.0835
     69 H39         1.5847   -2.2151    0.2127 H         1 <0>         0.1316
     70 H40         1.6418   -4.6346   -0.2347 H         1 <0>         0.1355
     71 H41         1.7264   -1.4231   -3.9755 H         1 <0>         0.1341
     72 H42         2.7058   -4.0501   -5.0344 H         1 <0>         0.3883
     73 H43         2.6520   -6.1011   -2.6456 H         1 <0>         0.3883
@<TRIPOS>BOND
     1    1    2 1
     2    1   31 1
     3    1   32 1
     4    1   33 1
     5    2    3 1
     6    2   34 1
     7    2   35 1
     8    3    4 1
     9    3   36 1
    10    3   37 1
    11    4    5 1
    12    4   38 1
    13    4   39 1
    14    5    6 1
    15    5   40 1
    16    5   41 1
    17    6    7 1
    18    6   42 1
    19    6   43 1
    20    7    8 1
    21    7   44 1
    22    7   45 1
    23    8    9 1
    24    8   46 1
    25    8   47 1
    26    9   10 2
    27    9   48 1
    28   10   11 1
    29   10   49 1
    30   11   12 1
    31   11   50 1
    32   11   51 1
    33   12   13 1
    34   12   52 1
    35   12   53 1
    36   13   14 1
    37   13   54 1
    38   13   55 1
    39   14   15 1
    40   14   56 1
    41   14   57 1
    42   15   16 1
    43   15   58 1
    44   15   59 1
    45   16   17 1
    46   16   60 1
    47   16   61 1
    48   17   18 1
    49   17   62 1
    50   17   63 1
    51   18   19 2
    52   18   20 am
    53   20   21 1
    54   20   64 1
    55   21   22 1
    56   21   65 1
    57   21   66 1
    58   22   23 1
    59   22   67 1
    60   22   68 1
    61   23   28 ar
    62   23   24 ar
    63   24   25 ar
    64   24   69 1
    65   25   26 ar
    66   25   70 1
    67   26   27 ar
    68   26   30 1
    69   27   28 ar
    70   27   29 1
    71   28   71 1
    72   29   72 1
    73   30   73 1
@<TRIPOS>MOLECULE
ZINC03639948
   36    38     0     0     0
SMALL
USER_CHARGES
2-[(5Z)-5-[[5-[2-chloro-5-(trifluoromethyl)phenyl]-2-furyl]methylene]-4-oxo-2-thioxo-thiazolidin-3-yl]acetic acid
@<TRIPOS>ATOM
      1 C1         -3.4107   -2.5301    0.0202 C.ar      1 <0>        -0.0446
      2 C2         -3.3089   -1.5054    0.9444 C.ar      1 <0>        -0.1090
      3 C3         -2.2000   -0.6834    0.9486 C.ar      1 <0>         0.0168
      4 C4         -1.1840   -0.8816    0.0082 C.ar      1 <0>        -0.0159
      5 C5         -1.2951   -1.9182   -0.9216 C.ar      1 <0>        -0.0293
      6 C6         -2.4066   -2.7350   -0.9097 C.ar      1 <0>        -0.1786
      7 C7         -2.5279   -3.8533   -1.9125 C.3       1 <0>         0.5110
      8 F1         -1.9561   -5.0163   -1.3856 F         1 <0>        -0.1688
      9 F2         -3.8790   -4.0837   -2.1929 F         1 <0>        -0.1747
     10 F3         -1.8612   -3.4981   -3.0901 F         1 <0>        -0.1724
     11 C8          0.0021   -0.0041    0.0020 C.2       1 <0>         0.0415
     12 C9         -0.0166    1.3722    0.0096 C.2       1 <0>        -0.1712
     13 C10         1.3139    1.7988   -0.0008 C.2       1 <0>        -0.1349
     14 C11         2.0990    0.6598   -0.0144 C.2       1 <0>        -0.0084
     15 O1          1.2832   -0.4151   -0.0124 O.3       1 <0>        -0.1401
     16 C12         3.5099    0.6276   -0.0281 C.2       1 <0>         0.0862
     17 C13         4.1652   -0.5698   -0.0403 C.2       1 <0>        -0.2120
     18 C14         5.5681   -0.8378   -0.0550 C.2       1 <0>         0.5448
     19 O2          6.3801    0.0700   -0.0583 O.2       1 <0>        -0.4571
     20 N1          5.9585   -2.1004   -0.0645 N.am      1 <0>        -0.4918
     21 C15         5.0571   -3.1074   -0.0604 C.2       1 <0>         0.2976
     22 S1          5.3356   -4.7965   -0.0704 S.2       1 <0>        -0.3418
     23 S2          3.5015   -2.2295   -0.0342 S.3       1 <0>         0.0532
     24 C16         7.3896   -2.4132   -0.0802 C.3       1 <0>         0.0365
     25 C17         7.8946   -2.5267    1.3351 C.2       1 <0>         0.4673
     26 O3          7.1367   -2.3632    2.2618 O.co2     1 <0>        -0.6247
     27 Cl1        -2.0701    0.5973    2.1134 Cl        1 <0>        -0.0351
     28 H1         -4.2784   -3.1731    0.0243 H         1 <0>         0.1518
     29 H2         -4.0966   -1.3512    1.6670 H         1 <0>         0.1548
     30 H3         -0.5124   -2.0799   -1.6479 H         1 <0>         0.1536
     31 H4         -0.8934    2.0028    0.0174 H         1 <0>         0.1609
     32 H5          1.6623    2.8210    0.0010 H         1 <0>         0.1679
     33 H6          4.0711    1.5504   -0.0289 H         1 <0>         0.1865
     34 H7          7.5494   -3.3579   -0.5999 H         1 <0>         0.1171
     35 H8          7.9294   -1.6190   -0.5959 H         1 <0>         0.1089
     36 O4          9.1862   -2.8095    1.5662 O.co2     1 <0>        -0.7460
@<TRIPOS>BOND
     1    1    6 ar
     2    1    2 ar
     3    1   28 1
     4    2    3 ar
     5    2   29 1
     6    3    4 ar
     7    3   27 1
     8    4    5 ar
     9    4   11 1
    10    5    6 ar
    11    5   30 1
    12    6    7 1
    13    7    8 1
    14    7    9 1
    15    7   10 1
    16   11   15 1
    17   11   12 2
    18   12   13 1
    19   12   31 1
    20   13   14 2
    21   13   32 1
    22   14   15 1
    23   14   16 1
    24   16   17 2
    25   16   33 1
    26   17   23 1
    27   17   18 1
    28   18   19 2
    29   18   20 am
    30   20   21 1
    31   20   24 1
    32   21   22 2
    33   21   23 1
    34   24   25 1
    35   24   34 1
    36   24   35 1
    37   25   26 2
    38   25   36 1
@<TRIPOS>MOLECULE
ZINC04471247
   45    47     0     0     0
SMALL
USER_CHARGES
2-chloro-5-[4-[(4-isopropylphenyl)methylene]-3-methyl-5-oxo-pyrazol-1-yl]-benzoic acid
@<TRIPOS>ATOM
      1 C1          7.2407   -0.6538    0.0075 C.3       1 <0>        -0.0790
      2 C2          5.7981   -0.9749   -0.2872 C.2       1 <0>         0.1194
      3 N1          4.8650   -0.1194   -0.5712 N.2       1 <0>        -0.2186
      4 N2          3.6408   -0.7513   -0.7861 N.am      1 <0>        -0.4009
      5 C3          3.7763   -2.0858   -0.6470 C.2       1 <0>         0.5234
      6 O1          2.9058   -2.9287   -0.7728 O.2       1 <0>        -0.4838
      7 C4          5.1939   -2.3161   -0.3124 C.2       1 <0>        -0.2362
      8 C5          5.8175   -3.5255   -0.0751 C.2       1 <0>         0.0818
      9 C6          5.0216   -4.7510    0.0363 C.ar      1 <0>        -0.1160
     10 C7          3.7694   -4.7236    0.6654 C.ar      1 <0>        -0.0342
     11 C8          3.0257   -5.8798    0.7609 C.ar      1 <0>        -0.1239
     12 C9          3.5169   -7.0683    0.2475 C.ar      1 <0>        -0.0500
     13 C10         4.7554   -7.1061   -0.3705 C.ar      1 <0>        -0.1354
     14 C11         5.5106   -5.9587   -0.4803 C.ar      1 <0>        -0.0792
     15 C12         2.6982   -8.3284    0.3617 C.3       1 <0>        -0.0601
     16 C13         2.4423   -8.6383    1.8379 C.3       1 <0>        -0.1447
     17 C14         1.3619   -8.1354   -0.3580 C.3       1 <0>        -0.1459
     18 C15         2.4447   -0.0953   -1.1062 C.ar      1 <0>         0.1435
     19 C16         1.2813   -0.8301   -1.3054 C.ar      1 <0>        -0.1389
     20 C17         0.0987   -0.1893   -1.6212 C.ar      1 <0>        -0.1086
     21 C18         0.0641    1.1868   -1.7417 C.ar      1 <0>        -0.0186
     22 C19         1.2284    1.9341   -1.5433 C.ar      1 <0>        -0.0891
     23 C20         2.4220    1.2848   -1.2234 C.ar      1 <0>        -0.0728
     24 C21         1.1958    3.4048   -1.6706 C.2       1 <0>         0.4875
     25 O2          0.1556    3.9675   -1.9483 O.co2     1 <0>        -0.6027
     26 Cl1        -1.4228    1.9862   -2.1463 Cl        1 <0>        -0.0452
     27 H1          7.8109   -0.6579   -0.9214 H         1 <0>         0.0899
     28 H2          7.3065    0.3310    0.4700 H         1 <0>         0.0893
     29 H3          7.6479   -1.4024    0.6872 H         1 <0>         0.0840
     30 H4          6.8917   -3.5680    0.0283 H         1 <0>         0.1518
     31 H5          3.3867   -3.7984    1.0703 H         1 <0>         0.1258
     32 H6          2.0588   -5.8598    1.2416 H         1 <0>         0.1239
     33 H7          5.1305   -8.0376   -0.7680 H         1 <0>         0.1239
     34 H8          6.4761   -5.9898   -0.9633 H         1 <0>         0.1271
     35 H9          3.2404   -9.1566   -0.0948 H         1 <0>         0.0777
     36 H10         1.8502   -9.5498    1.9205 H         1 <0>         0.0584
     37 H11         3.3943   -8.7759    2.3506 H         1 <0>         0.0558
     38 H12         1.9001   -7.8102    2.2944 H         1 <0>         0.0583
     39 H13         1.5442   -7.9146   -1.4097 H         1 <0>         0.0570
     40 H14         0.7698   -9.0468   -0.2754 H         1 <0>         0.0582
     41 H15         0.8197   -7.3073    0.0984 H         1 <0>         0.0592
     42 H16         1.3021   -1.9059   -1.2133 H         1 <0>         0.1536
     43 H17        -0.8016   -0.7658   -1.7747 H         1 <0>         0.1340
     44 H18         3.3251    1.8565   -1.0685 H         1 <0>         0.1511
     45 O3          2.3196    4.1226   -1.4789 O.co2     1 <0>        -0.7508
@<TRIPOS>BOND
     1    1    2 1
     2    1   27 1
     3    1   28 1
     4    1   29 1
     5    2    7 1
     6    2    3 2
     7    3    4 1
     8    4    5 am
     9    4   18 1
    10    5    6 2
    11    5    7 1
    12    7    8 2
    13    8    9 1
    14    8   30 1
    15    9   14 ar
    16    9   10 ar
    17   10   11 ar
    18   10   31 1
    19   11   12 ar
    20   11   32 1
    21   12   13 ar
    22   12   15 1
    23   13   14 ar
    24   13   33 1
    25   14   34 1
    26   15   16 1
    27   15   17 1
    28   15   35 1
    29   16   36 1
    30   16   37 1
    31   16   38 1
    32   17   39 1
    33   17   40 1
    34   17   41 1
    35   18   23 ar
    36   18   19 ar
    37   19   20 ar
    38   19   42 1
    39   20   21 ar
    40   20   43 1
    41   21   22 ar
    42   21   26 1
    43   22   23 ar
    44   22   24 1
    45   23   44 1
    46   24   25 2
    47   24   45 1
@<TRIPOS>MOLECULE
ZINC02412589
   35    37     0     0     0
SMALL
USER_CHARGES
2-[5-[[5-(2-nitrophenyl)-2-furyl]methylene]-4-oxo-2-thioxo-thiazolidin-3-yl]acetic acid
@<TRIPOS>ATOM
      1 C1         -8.7252   -5.7656   -1.6270 C.ar      1 <0>        -0.0629
      2 C2         -9.2162   -4.9587   -2.6424 C.ar      1 <0>        -0.1107
      3 C3         -9.0474   -3.5835   -2.5912 C.ar      1 <0>        -0.0495
      4 C4         -8.3893   -3.0051   -1.5295 C.ar      1 <0>         0.0079
      5 C5         -7.8877   -3.8140   -0.4950 C.ar      1 <0>         0.0490
      6 C6         -8.0597   -5.2080   -0.5594 C.ar      1 <0>        -0.0927
      7 C7         -7.1861   -3.2098    0.6382 C.2       1 <0>         0.0046
      8 C8         -7.4624   -3.4669    1.9967 C.2       1 <0>        -0.1570
      9 C9         -6.6016   -2.7189    2.7398 C.2       1 <0>        -0.1375
     10 C10        -5.7703   -1.9787    1.7848 C.2       1 <0>        -0.0044
     11 O1         -6.1837   -2.3207    0.5441 O.3       1 <0>        -0.0938
     12 C11        -4.7542   -1.0896    2.0965 C.2       1 <0>         0.0681
     13 C12        -4.0397   -0.4512    1.0690 C.2       1 <0>        -0.2390
     14 C13        -2.9197    0.5313    1.1668 C.2       1 <0>         0.5451
     15 O2         -2.4838    0.9041    2.2370 O.2       1 <0>        -0.4506
     16 N1         -2.4300    0.9727    0.0189 N.am      1 <0>        -0.4892
     17 C14        -2.9434    0.5403   -1.1498 C.2       1 <0>         0.2840
     18 S1         -2.4755    0.9773   -2.7376 S.2       1 <0>        -0.3520
     19 S2         -4.2242   -0.5963   -0.6512 S.3       1 <0>         0.1174
     20 C15        -1.3295    1.9397    0.0189 C.3       1 <0>         0.0384
     21 C16        -0.0143    1.2041    0.0087 C.2       1 <0>         0.4676
     22 O3          0.0021   -0.0041    0.0020 O.co2     1 <0>        -0.6250
     23 N2         -8.2101   -1.5367   -1.4776 N.pl3     1 <0>        -0.0259
     24 O4         -8.6810   -0.7811   -2.4481 O.2       1 <0>        -0.1716
     25 O5         -7.5797   -0.9858   -0.4609 O.3       1 <0>        -0.1353
     26 H1         -8.8623   -6.8358   -1.6762 H         1 <0>         0.1513
     27 H2         -9.7334   -5.4046   -3.4790 H         1 <0>         0.1525
     28 H3         -9.4333   -2.9640   -3.3872 H         1 <0>         0.1604
     29 H4         -7.6741   -5.8386    0.2282 H         1 <0>         0.1557
     30 H5         -8.2191   -4.1363    2.3784 H         1 <0>         0.1616
     31 H6         -6.5428   -2.6784    3.8174 H         1 <0>         0.1693
     32 H7         -4.5115   -0.8875    3.1293 H         1 <0>         0.1831
     33 H8         -1.3915    2.5607    0.9126 H         1 <0>         0.1084
     34 H9         -1.4000    2.5704   -0.8673 H         1 <0>         0.1185
     35 O6          1.1389    1.8910    0.0013 O.co2     1 <0>        -0.7460
@<TRIPOS>BOND
     1    1    6 ar
     2    1    2 ar
     3    1   26 1
     4    2    3 ar
     5    2   27 1
     6    3    4 ar
     7    3   28 1
     8    4    5 ar
     9    4   23 1
    10    5    6 ar
    11    5    7 1
    12    6   29 1
    13    7   11 1
    14    7    8 2
    15    8    9 1
    16    8   30 1
    17    9   10 2
    18    9   31 1
    19   10   11 1
    20   10   12 1
    21   12   13 2
    22   12   32 1
    23   13   19 1
    24   13   14 1
    25   14   15 2
    26   14   16 am
    27   16   17 1
    28   16   20 1
    29   17   18 2
    30   17   19 1
    31   20   21 1
    32   20   33 1
    33   20   34 1
    34   21   22 2
    35   21   35 1
    36   23   24 2
    37   23   25 1
@<TRIPOS>MOLECULE
ZINC02697121
   33    35     0     0     0
SMALL
USER_CHARGES
2-[(5Z)-5-[[5-(4-bromophenyl)-2-furyl]methylene]-4-oxo-2-thioxo-thiazolidin-3-yl]acetic acid
@<TRIPOS>ATOM
      1 C1         -8.9110   -4.7225   -0.1894 C.ar      1 <0>        -0.0884
      2 C2         -9.5843   -5.2951   -1.2478 C.ar      1 <0>        -0.0888
      3 C3         -9.2356   -4.9746   -2.5491 C.ar      1 <0>        -0.0833
      4 C4         -8.2132   -4.0741   -2.7969 C.ar      1 <0>        -0.0853
      5 C5         -7.5352   -3.4902   -1.7477 C.ar      1 <0>        -0.0885
      6 C6         -7.8819   -3.8091   -0.4322 C.ar      1 <0>        -0.0084
      7 C7         -7.1604   -3.1886    0.6955 C.2       1 <0>         0.0554
      8 C8         -7.4053   -3.4182    2.0201 C.2       1 <0>        -0.1895
      9 C9         -6.5049   -2.6357    2.7473 C.2       1 <0>        -0.1371
     10 C10        -5.7358   -1.9502    1.8235 C.2       1 <0>        -0.0090
     11 O1         -6.1564   -2.2991    0.5893 O.3       1 <0>        -0.1475
     12 C11        -4.6978   -1.0411    2.1198 C.2       1 <0>         0.0772
     13 C12        -4.0153   -0.4308    1.1073 C.2       1 <0>        -0.2090
     14 C13        -2.9102    0.5396    1.1723 C.2       1 <0>         0.5462
     15 O2         -2.4605    0.9251    2.2365 O.2       1 <0>        -0.4526
     16 N1         -2.4300    0.9727    0.0189 N.am      1 <0>        -0.4904
     17 C14        -2.9347    0.5479   -1.1577 C.2       1 <0>         0.2969
     18 S1         -2.4592    0.9908   -2.7415 S.2       1 <0>        -0.3446
     19 S2         -4.2172   -0.5912   -0.6616 S.3       1 <0>         0.0578
     20 C15        -1.3295    1.9397    0.0189 C.3       1 <0>         0.0350
     21 C16        -0.0143    1.2041    0.0087 C.2       1 <0>         0.4673
     22 O3          0.0021   -0.0041    0.0020 O.co2     1 <0>        -0.6246
     23 Br1       -10.1594   -5.7708   -3.9943 Br        1 <0>        -0.0462
     24 H1         -9.1811   -4.9764    0.8250 H         1 <0>         0.1396
     25 H2        -10.3827   -5.9982   -1.0615 H         1 <0>         0.1400
     26 H3         -7.9465   -3.8282   -3.8141 H         1 <0>         0.1412
     27 H4         -6.7382   -2.7878   -1.9422 H         1 <0>         0.1434
     28 H5         -8.1541   -4.0809    2.4282 H         1 <0>         0.1605
     29 H6         -6.4244   -2.5773    3.8227 H         1 <0>         0.1662
     30 H7         -4.4434   -0.8283    3.1476 H         1 <0>         0.1850
     31 H8         -1.3915    2.5607    0.9126 H         1 <0>         0.1088
     32 H9         -1.4000    2.5704   -0.8673 H         1 <0>         0.1184
     33 O4          1.1389    1.8910    0.0013 O.co2     1 <0>        -0.7453
@<TRIPOS>BOND
     1    1    6 ar
     2    1    2 ar
     3    1   24 1
     4    2    3 ar
     5    2   25 1
     6    3    4 ar
     7    3   23 1
     8    4    5 ar
     9    4   26 1
    10    5    6 ar
    11    5   27 1
    12    6    7 1
    13    7   11 1
    14    7    8 2
    15    8    9 1
    16    8   28 1
    17    9   10 2
    18    9   29 1
    19   10   11 1
    20   10   12 1
    21   12   13 2
    22   12   30 1
    23   13   19 1
    24   13   14 1
    25   14   15 2
    26   14   16 am
    27   16   17 1
    28   16   20 1
    29   17   18 2
    30   17   19 1
    31   20   21 1
    32   20   31 1
    33   20   32 1
    34   21   22 2
    35   21   33 1
@<TRIPOS>MOLECULE
ZINC00244550
   32    33     0     0     0
SMALL
USER_CHARGES
2-[4-(2,5-dimethylpyrrol-1-yl)phenyl]sulfanylacetic acid
@<TRIPOS>ATOM
      1 C1         -1.2491    2.2280    0.0203 C.3       1 <0>        -0.0844
      2 C2         -0.0164    1.3611    0.0095 C.2       1 <0>         0.0197
      3 C3          1.2590    1.7998   -0.0003 C.2       1 <0>        -0.1985
      4 C4          2.0959    0.6662   -0.0144 C.2       1 <0>        -0.1985
      5 C5          1.3012   -0.4236   -0.0126 C.2       1 <0>         0.0191
      6 N1          0.0021   -0.0041    0.0020 N.pl3     1 <0>        -0.3924
      7 C6         -1.1271   -0.8379    0.0087 C.ar      1 <0>         0.0857
      8 C7         -1.9732   -0.8513    1.1095 C.ar      1 <0>        -0.0844
      9 C8         -3.0864   -1.6674    1.1147 C.ar      1 <0>        -0.1305
     10 C9         -3.3541   -2.4838    0.0226 C.ar      1 <0>        -0.0804
     11 C10        -2.5040   -2.4738   -1.0766 C.ar      1 <0>        -0.0972
     12 C11        -1.3943   -1.6530   -1.0829 C.ar      1 <0>        -0.0881
     13 S1         -4.7706   -3.5317    0.0317 S.3       1 <0>        -0.0470
     14 C12        -5.5496   -3.2027    1.6366 C.3       1 <0>        -0.1522
     15 C13        -6.7903   -4.0467    1.7752 C.2       1 <0>         0.4809
     16 O1         -7.1157   -4.7935    0.8829 O.co2     1 <0>        -0.6142
     17 C14         1.7668   -1.8568   -0.0252 C.3       1 <0>        -0.0840
     18 H1         -1.5411    2.4314    1.0506 H         1 <0>         0.0688
     19 H2         -1.0368    3.1677   -0.4894 H         1 <0>         0.0774
     20 H3         -2.0608    1.7118   -0.4923 H         1 <0>         0.0640
     21 H4          1.5800    2.8310    0.0022 H         1 <0>         0.1345
     22 H5          3.1759    0.6695   -0.0247 H         1 <0>         0.1345
     23 H6         -1.7624   -0.2202    1.9602 H         1 <0>         0.1263
     24 H7         -3.7467   -1.6747    1.9693 H         1 <0>         0.1331
     25 H8         -2.7117   -3.1079   -1.9259 H         1 <0>         0.1356
     26 H9         -0.7335   -1.6451   -1.9371 H         1 <0>         0.1280
     27 H10        -4.8514   -3.4489    2.4366 H         1 <0>         0.0918
     28 H11        -5.8184   -2.1483    1.7006 H         1 <0>         0.0919
     29 H12         1.8694   -2.1965   -1.0559 H         1 <0>         0.0687
     30 H13         2.7303   -1.9302    0.4791 H         1 <0>         0.0771
     31 H14         1.0376   -2.4803    0.4919 H         1 <0>         0.0641
     32 O2         -7.5340   -3.9687    2.8899 O.co2     1 <0>        -0.7496
@<TRIPOS>BOND
     1    1    2 1
     2    1   18 1
     3    1   19 1
     4    1   20 1
     5    2    6 1
     6    2    3 2
     7    3    4 1
     8    3   21 1
     9    4    5 2
    10    4   22 1
    11    5    6 1
    12    5   17 1
    13    6    7 1
    14    7   12 ar
    15    7    8 ar
    16    8    9 ar
    17    8   23 1
    18    9   10 ar
    19    9   24 1
    20   10   11 ar
    21   10   13 1
    22   11   12 ar
    23   11   25 1
    24   12   26 1
    25   13   14 1
    26   14   15 1
    27   14   27 1
    28   14   28 1
    29   15   16 2
    30   15   32 1
    31   17   29 1
    32   17   30 1
    33   17   31 1
@<TRIPOS>MOLECULE
ZINC12428587
   38    41     0     0     0
SMALL
USER_CHARGES
2-hydroxy-5-[5-[(Z)-(2-imino-4-oxo-3-thiazol-2-yl-thiazolidin-5-ylidene)methyl]-2-furyl]benzoic acid
@<TRIPOS>ATOM
      1 C1          0.0417   -2.0817    1.1994 C.ar      1 <0>        -0.0703
      2 C2          0.0230   -0.7045    1.2006 C.ar      1 <0>        -0.1677
      3 C3          0.0021   -0.0041    0.0020 C.ar      1 <0>         0.1622
      4 C4         -0.0058   -0.6992   -1.2174 C.ar      1 <0>        -0.1448
      5 C5          0.0189   -2.0931   -1.2193 C.ar      1 <0>        -0.0268
      6 C6          0.0398   -2.7859   -0.0103 C.ar      1 <0>        -0.0836
      7 C7          0.0605   -4.2611   -0.0054 C.2       1 <0>         0.1164
      8 C8          0.0877   -5.0531    1.1078 C.2       1 <0>        -0.2234
      9 C9          0.0962   -6.3799    0.6695 C.2       1 <0>        -0.1129
     10 C10         0.0829   -6.3429   -0.7135 C.2       1 <0>        -0.0555
     11 O1          0.0614   -5.0486   -1.0964 O.3       1 <0>        -0.1454
     12 C11         0.0906   -7.4623   -1.5732 C.2       1 <0>         0.1137
     13 C12         0.0751   -7.2837   -2.9261 C.2       1 <0>        -0.2278
     14 C13         0.0790   -8.2604   -3.9650 C.2       1 <0>         0.5643
     15 O2          0.0988   -9.4497   -3.7026 O.2       1 <0>        -0.4758
     16 N1          0.0611   -7.8445   -5.2195 N.am      1 <0>        -0.4486
     17 C14         0.0392   -6.4874   -5.4984 C.2       1 <0>         0.3974
     18 N2          0.0193   -5.8904   -6.6583 N.2       1 <0>        -0.5886
     19 S1          0.0366   -5.7640   -3.8653 S.3       1 <0>        -0.0047
     20 C15         0.0648   -8.7694   -6.2599 C.2       1 <0>         0.2645
     21 N3          0.0493   -8.5533   -7.5606 N.2       1 <0>        -0.4953
     22 C16         0.0558   -9.5533   -8.4196 C.2       1 <0>         0.0487
     23 C17         0.0788  -10.8199   -7.9366 C.2       1 <0>        -0.2556
     24 S2          0.0985  -10.5037   -6.1780 S.3       1 <0>         0.1573
     25 C18        -0.0340    0.0421   -2.4915 C.2       1 <0>         0.4885
     26 O3         -0.0505    1.2570   -2.4873 O.co2     1 <0>        -0.6123
     27 O4         -0.0163    1.3517    0.0095 O.3       1 <0>        -0.4744
     28 H1          0.0575   -2.6203    2.1354 H         1 <0>         0.1285
     29 H2          0.0249   -0.1674    2.1375 H         1 <0>         0.1325
     30 H3          0.0178   -2.6340   -2.1541 H         1 <0>         0.1426
     31 H4          0.0980   -4.7167    2.1340 H         1 <0>         0.1597
     32 H5          0.1139   -7.2634    1.2903 H         1 <0>         0.1632
     33 H6          0.1087   -8.4601   -1.1604 H         1 <0>         0.1824
     34 H7          0.0051   -4.9216   -6.7049 H         1 <0>         0.3807
     35 H8          0.0427   -9.3679   -9.4835 H         1 <0>         0.1733
     36 H9          0.0877  -11.7601   -8.4679 H         1 <0>         0.1984
     37 H10         0.8616    1.7570    0.0033 H         1 <0>         0.3904
     38 O5         -0.0416   -0.6278   -3.6607 O.co2     1 <0>        -0.7513
@<TRIPOS>BOND
     1    1    6 ar
     2    1    2 ar
     3    1   28 1
     4    2    3 ar
     5    2   29 1
     6    3    4 ar
     7    3   27 1
     8    4    5 ar
     9    4   25 1
    10    5    6 ar
    11    5   30 1
    12    6    7 1
    13    7   11 1
    14    7    8 2
    15    8    9 1
    16    8   31 1
    17    9   10 2
    18    9   32 1
    19   10   11 1
    20   10   12 1
    21   12   13 2
    22   12   33 1
    23   13   19 1
    24   13   14 1
    25   14   15 2
    26   14   16 am
    27   16   17 1
    28   16   20 1
    29   17   18 2
    30   17   19 1
    31   18   34 1
    32   20   24 1
    33   20   21 2
    34   21   22 1
    35   22   23 2
    36   22   35 1
    37   23   24 1
    38   23   36 1
    39   25   26 2
    40   25   38 1
    41   27   37 1
@<TRIPOS>MOLECULE
ZINC06221909
   41    44     0     0     0
SMALL
USER_CHARGES
4-[5-[[1-(4-chlorophenyl)-3,5-dioxo-pyrazolidin-4-ylidene]methyl]-2-furyl]benzoic acid
@<TRIPOS>ATOM
      1 C1          2.5287    5.0874    0.0043 C.ar      1 <0>        -0.0933
      2 C2          2.4751    3.7174   -0.0016 C.ar      1 <0>        -0.0938
      3 C3          1.2383    3.0660    0.0067 C.ar      1 <0>        -0.0840
      4 C4          0.0556    3.8112    0.0162 C.ar      1 <0>        -0.0847
      5 C5          0.1084    5.1812    0.0279 C.ar      1 <0>        -0.0965
      6 C6          1.3457    5.8332    0.0192 C.ar      1 <0>        -0.0654
      7 C7          1.4029    7.3070    0.0260 C.2       1 <0>         0.1251
      8 C8          0.3146    8.1547    0.0405 C.2       1 <0>        -0.2334
      9 C9          0.8117    9.4570    0.0424 C.2       1 <0>        -0.0980
     10 C10         2.1958    9.3577    0.0289 C.2       1 <0>        -0.0919
     11 O1          2.5239    8.0482    0.0251 O.3       1 <0>        -0.1011
     12 C11         3.0993   10.4337    0.0258 C.2       1 <0>         0.1557
     13 C12         4.4661   10.1922    0.0118 C.2       1 <0>        -0.3217
     14 C13         5.5513   11.1884    0.0071 C.2       1 <0>         0.5794
     15 O2          5.4241   12.3987    0.0149 O.2       1 <0>        -0.5060
     16 N1          6.7107   10.5039   -0.0069 N.am      1 <0>        -0.5197
     17 N2          6.4678    9.1304   -0.0118 N.am      1 <0>        -0.3606
     18 C14         5.1440    8.8849    0.0049 C.2       1 <0>         0.5605
     19 O3          4.6097    7.7914    0.0100 O.2       1 <0>        -0.4505
     20 C15         7.4610    8.1454   -0.0254 C.ar      1 <0>         0.1741
     21 C16         7.1086    6.8020   -0.0229 C.ar      1 <0>        -0.1339
     22 C17         8.0911    5.8316   -0.0422 C.ar      1 <0>        -0.0700
     23 C18         9.4259    6.1968   -0.0529 C.ar      1 <0>        -0.0587
     24 C19         9.7799    7.5346   -0.0492 C.ar      1 <0>        -0.0772
     25 C20         8.8014    8.5091   -0.0357 C.ar      1 <0>        -0.1510
     26 Cl1        10.6584    4.9744   -0.0704 Cl        1 <0>        -0.0671
     27 C21         1.1810    1.5908   -0.0007 C.2       1 <0>         0.4850
     28 O4          2.2087    0.9431   -0.0140 O.co2     1 <0>        -0.6249
     29 H1          3.4843    5.5906   -0.0028 H         1 <0>         0.1334
     30 H2          3.3886    3.1414   -0.0131 H         1 <0>         0.1340
     31 H3         -0.8999    3.3077    0.0184 H         1 <0>         0.1397
     32 H4         -0.8053    5.7569    0.0394 H         1 <0>         0.1248
     33 H5         -0.7256    7.8643    0.0491 H         1 <0>         0.1605
     34 H6          0.2314   10.3679    0.0527 H         1 <0>         0.1630
     35 H7          2.7303   11.4487    0.0344 H         1 <0>         0.1767
     36 H8          7.5919   10.9094   -0.0125 H         1 <0>         0.4354
     37 H9          6.0671    6.5165   -0.0101 H         1 <0>         0.1684
     38 H10         7.8175    4.7869   -0.0444 H         1 <0>         0.1464
     39 H11        10.8223    7.8169   -0.0571 H         1 <0>         0.1397
     40 H12         9.0782    9.5530   -0.0335 H         1 <0>         0.1305
     41 O5         -0.0110    0.9628    0.0073 O.co2     1 <0>        -0.7489
@<TRIPOS>BOND
     1    1    6 ar
     2    1    2 ar
     3    1   29 1
     4    2    3 ar
     5    2   30 1
     6    3    4 ar
     7    3   27 1
     8    4    5 ar
     9    4   31 1
    10    5    6 ar
    11    5   32 1
    12    6    7 1
    13    7   11 1
    14    7    8 2
    15    8    9 1
    16    8   33 1
    17    9   10 2
    18    9   34 1
    19   10   11 1
    20   10   12 1
    21   12   13 2
    22   12   35 1
    23   13   18 1
    24   13   14 1
    25   14   15 2
    26   14   16 am
    27   16   17 1
    28   16   36 1
    29   17   18 am
    30   17   20 1
    31   18   19 2
    32   20   25 ar
    33   20   21 ar
    34   21   22 ar
    35   21   37 1
    36   22   23 ar
    37   22   38 1
    38   23   24 ar
    39   23   26 1
    40   24   25 ar
    41   24   39 1
    42   25   40 1
    43   27   28 2
    44   27   41 1
@<TRIPOS>MOLECULE
ZINC01756243
   33    35     0     0     0
SMALL
USER_CHARGES
2-[5-[[5-(4-chlorophenyl)-2-furyl]methylene]-4-oxo-2-thioxo-thiazolidin-3-yl]acetic acid
@<TRIPOS>ATOM
      1 C1         -8.8985   -4.7143   -0.0401 C.ar      1 <0>        -0.0806
      2 C2         -9.5869   -5.3004   -1.0812 C.ar      1 <0>        -0.1089
      3 C3         -9.2570   -4.9965   -2.3917 C.ar      1 <0>        -0.0259
      4 C4         -8.2379   -4.0993   -2.6655 C.ar      1 <0>        -0.1053
      5 C5         -7.5454   -3.5019   -1.6336 C.ar      1 <0>        -0.0806
      6 C6         -7.8735   -3.8037   -0.3094 C.ar      1 <0>        -0.0217
      7 C7         -7.1367   -3.1680    0.7999 C.2       1 <0>         0.0616
      8 C8         -7.3629   -3.3804    2.1306 C.2       1 <0>        -0.1932
      9 C9         -6.4526   -2.5883    2.8349 C.2       1 <0>        -0.1326
     10 C10        -5.6968   -1.9149    1.8914 C.2       1 <0>        -0.0145
     11 O1         -6.1352   -2.2793    0.6679 O.3       1 <0>        -0.1471
     12 C11        -4.6545   -1.0024    2.1612 C.2       1 <0>         0.0890
     13 C12        -3.9866   -0.4052    1.1313 C.2       1 <0>        -0.2148
     14 C13        -2.9136    0.5367    1.1691 C.2       1 <0>         0.5448
     15 O2         -2.4582    0.9267    2.2292 O.2       1 <0>        -0.4577
     16 N1         -2.4300    0.9727    0.0189 N.am      1 <0>        -0.4915
     17 C14        -2.9393    0.5439   -1.1572 C.2       1 <0>         0.2984
     18 S1         -2.4766    0.9760   -2.7479 S.2       1 <0>        -0.3452
     19 S2         -4.2163   -0.5895   -0.6318 S.3       1 <0>         0.0522
     20 C15        -1.3295    1.9397    0.0189 C.3       1 <0>         0.0365
     21 C16        -0.0143    1.2041    0.0087 C.2       1 <0>         0.4673
     22 O3          0.0021   -0.0041    0.0020 O.co2     1 <0>        -0.6248
     23 Cl1       -10.1242   -5.7439   -3.6967 Cl        1 <0>        -0.0650
     24 H1         -9.1539   -4.9552    0.9813 H         1 <0>         0.1400
     25 H2        -10.3821   -6.0013   -0.8744 H         1 <0>         0.1408
     26 H3         -7.9853   -3.8669   -3.6896 H         1 <0>         0.1421
     27 H4         -6.7514   -2.8020   -1.8485 H         1 <0>         0.1439
     28 H5         -8.1060   -4.0374    2.5579 H         1 <0>         0.1607
     29 H6         -6.3570   -2.5159    3.9082 H         1 <0>         0.1665
     30 H7         -4.3854   -0.7766    3.1825 H         1 <0>         0.1858
     31 H8         -1.3915    2.5607    0.9126 H         1 <0>         0.1087
     32 H9         -1.4000    2.5704   -0.8673 H         1 <0>         0.1172
     33 O4          1.1389    1.8910    0.0013 O.co2     1 <0>        -0.7460
@<TRIPOS>BOND
     1    1    6 ar
     2    1    2 ar
     3    1   24 1
     4    2    3 ar
     5    2   25 1
     6    3    4 ar
     7    3   23 1
     8    4    5 ar
     9    4   26 1
    10    5    6 ar
    11    5   27 1
    12    6    7 1
    13    7   11 1
    14    7    8 2
    15    8    9 1
    16    8   28 1
    17    9   10 2
    18    9   29 1
    19   10   11 1
    20   10   12 1
    21   12   13 2
    22   12   30 1
    23   13   19 1
    24   13   14 1
    25   14   15 2
    26   14   16 am
    27   16   17 1
    28   16   20 1
    29   17   18 2
    30   17   19 1
    31   20   21 1
    32   20   31 1
    33   20   32 1
    34   21   22 2
    35   21   33 1
@<TRIPOS>MOLECULE
ZINC12360440
   38    41     0     0     0
SMALL
USER_CHARGES

@<TRIPOS>ATOM
      1 C1          1.2978    1.7054   -1.2477 C.ar      1 <0>        -0.0879
      2 C2          1.3472    2.1321    0.0719 C.ar      1 <0>        -0.0841
      3 C3          1.7104    1.2359    1.0607 C.ar      1 <0>        -0.0541
      4 C4          2.0153   -0.0585    0.7196 C.ar      1 <0>        -0.1286
      5 C5          1.9743   -0.5237   -0.6161 C.ar      1 <0>         0.0949
      6 C6          1.5979    0.4256   -1.5960 C.ar      1 <0>        -0.0767
      7 N1          2.2997   -1.8194   -0.7944 N.2       1 <0>        -0.5210
      8 C7          2.6357   -2.6081    0.2072 C.2       1 <0>         0.3620
      9 S1          2.5157   -1.5104    1.6126 S.3       1 <0>        -0.0695
     10 N2          2.9847   -3.9222    0.1783 N.2       1 <0>        -0.5009
     11 C8          4.2228   -4.2635   -0.0518 C.2       1 <0>         0.4251
     12 C9          4.7723   -5.6639   -0.2408 C.3       1 <0>        -0.0797
     13 C10         6.2522   -5.4444   -0.4722 C.2       1 <0>         0.0668
     14 N3          6.4674   -4.1633   -0.4190 N.2       1 <0>        -0.1968
     15 N4          5.3077   -3.4310   -0.1809 N.pl3     1 <0>        -0.4285
     16 C11         5.2550   -2.0362   -0.0825 C.ar      1 <0>         0.1509
     17 C12         5.4354   -1.4179    1.1482 C.ar      1 <0>        -0.1084
     18 C13         5.3832   -0.0410    1.2417 C.ar      1 <0>        -0.0272
     19 C14         5.1513    0.7220    0.1119 C.ar      1 <0>        -0.6361
     20 C15         4.9713    0.1096   -1.1149 C.ar      1 <0>        -0.0262
     21 C16         5.0279   -1.2665   -1.2163 C.ar      1 <0>        -0.1032
     22 S2          5.0843    2.4784    0.2359 S.o2      1 <0>         2.6919
     23 O1          4.2843    2.9506   -0.8835 O.2       1 <0>        -1.0525
     24 O2          4.4652    2.7882    1.5152 O.2       1 <0>        -1.0584
     25 O3          6.4553    2.9594    0.1650 O.3       1 <0>        -1.0710
     26 C17         7.2242   -6.4503   -0.7035 C.2       1 <0>         0.5511
     27 O4          8.3964   -6.1407   -0.8774 O.co2     1 <0>        -0.6548
     28 O5          6.8916   -7.6289   -0.7293 O.co2     1 <0>        -0.6724
     29 H1          1.0094    2.4064   -2.0170 H         1 <0>         0.1244
     30 H2          1.1047    3.1539    0.3242 H         1 <0>         0.1308
     31 H3          1.7541    1.5518    2.0925 H         1 <0>         0.1296
     32 H4          1.5485    0.1298   -2.6336 H         1 <0>         0.1203
     33 H5          4.6099   -6.2629    0.6553 H         1 <0>         0.1397
     34 H6          4.3159   -6.1402   -1.1085 H         1 <0>         0.1407
     35 H7          5.6158   -2.0132    2.0310 H         1 <0>         0.1220
     36 H8          5.5234    0.4403    2.1983 H         1 <0>         0.1331
     37 H9          4.7903    0.7084   -1.9953 H         1 <0>         0.1343
     38 H10         4.8913   -1.7440   -2.1754 H         1 <0>         0.1205
@<TRIPOS>BOND
     1    1    6 ar
     2    1    2 ar
     3    1   29 1
     4    2    3 ar
     5    2   30 1
     6    3    4 ar
     7    3   31 1
     8    4    9 1
     9    4    5 ar
    10    5    6 ar
    11    5    7 1
    12    6   32 1
    13    7    8 2
    14    8    9 1
    15    8   10 1
    16   10   11 2
    17   11   15 1
    18   11   12 1
    19   12   13 1
    20   12   33 1
    21   12   34 1
    22   13   14 2
    23   13   26 1
    24   14   15 1
    25   15   16 1
    26   16   21 ar
    27   16   17 ar
    28   17   18 ar
    29   17   35 1
    30   18   19 ar
    31   18   36 1
    32   19   20 ar
    33   19   22 1
    34   20   21 ar
    35   20   37 1
    36   21   38 1
    37   22   23 2
    38   22   24 2
    39   22   25 1
    40   26   27 2
    41   26   28 1
@<TRIPOS>MOLECULE
ZINC43706449
   65    64     0     0     0
SMALL
USER_CHARGES

@<TRIPOS>ATOM
      1 C1         -0.7558    2.1060   -1.7120 C.3       1 <0>        -0.1548
      2 C2         -0.6694    0.5861   -1.5597 C.3       1 <0>        -0.1260
      3 C3          0.0861   -0.0039   -2.7521 C.3       1 <0>        -0.1215
      4 C4          0.1725   -1.5239   -2.5998 C.3       1 <0>        -0.1211
      5 C5          0.9281   -2.1138   -3.7922 C.3       1 <0>        -0.1210
      6 C6          1.0144   -3.6338   -3.6399 C.3       1 <0>        -0.1205
      7 C7          1.7700   -4.2237   -4.8324 C.3       1 <0>        -0.1212
      8 C8          1.8563   -5.7437   -4.6800 C.3       1 <0>        -0.1203
      9 C9          2.6119   -6.3336   -5.8725 C.3       1 <0>        -0.1216
     10 C10         2.6982   -7.8536   -5.7202 C.3       1 <0>        -0.1199
     11 C11         3.4538   -8.4435   -6.9126 C.3       1 <0>        -0.1226
     12 C12         3.5402   -9.9635   -6.7603 C.3       1 <0>        -0.1145
     13 C13         4.2957  -10.5534   -7.9528 C.3       1 <0>        -0.1051
     14 C14         4.3808  -12.0505   -7.8027 C.2       1 <0>        -0.0847
     15 C15         3.9446  -12.8306   -8.7605 C.2       1 <0>        -0.2353
     16 C16         4.0296  -14.3277   -8.6104 C.3       1 <0>         0.1331
     17 H1          4.4788  -14.5715   -7.6476 H         1 <0>         0.1189
     18 C17         2.6244  -14.9283   -8.6843 C.3       1 <0>        -0.0036
     19 H2          2.0137  -14.5243   -7.8769 H         1 <0>         0.1531
     20 C18         1.9889  -14.5749  -10.0305 C.3       1 <0>         0.0477
     21 O1          2.8115  -15.0681  -11.0897 O.3       1 <0>        -0.5747
     22 N1          2.7085  -16.3889   -8.5509 N.4       1 <0>        -0.3778
     23 C19         3.3187  -16.7282   -7.2585 C.3       1 <0>        -0.0533
     24 C20         1.3593  -16.9655   -8.6219 C.3       1 <0>        -0.0521
     25 O2          4.8340  -14.8669   -9.6613 O.3       1 <0>        -0.5488
     26 H3          0.2497    2.5252   -1.7485 H         1 <0>         0.0537
     27 H4         -1.2845    2.3493   -2.6336 H         1 <0>         0.0535
     28 H5         -1.2941    2.5263   -0.8625 H         1 <0>         0.0543
     29 H6         -0.1407    0.3427   -0.6381 H         1 <0>         0.0604
     30 H7         -1.6749    0.1669   -1.5232 H         1 <0>         0.0601
     31 H8         -0.4426    0.2394   -3.6737 H         1 <0>         0.0606
     32 H9          1.0916    0.4153   -2.7886 H         1 <0>         0.0609
     33 H10         0.7012   -1.7672   -1.6782 H         1 <0>         0.0606
     34 H11        -0.8330   -1.9431   -2.5633 H         1 <0>         0.0603
     35 H12         0.3993   -1.8705   -4.7138 H         1 <0>         0.0605
     36 H13         1.9336   -1.6946   -3.8287 H         1 <0>         0.0609
     37 H14         1.5431   -3.8771   -2.7183 H         1 <0>         0.0606
     38 H15         0.0089   -4.0530   -3.6034 H         1 <0>         0.0601
     39 H16         1.2412   -3.9804   -5.7540 H         1 <0>         0.0606
     40 H17         2.7755   -3.8045   -4.8688 H         1 <0>         0.0612
     41 H18         2.3851   -5.9870   -3.7584 H         1 <0>         0.0608
     42 H19         0.8508   -6.1629   -4.6436 H         1 <0>         0.0599
     43 H20         2.0832   -6.0903   -6.7941 H         1 <0>         0.0609
     44 H21         3.6174   -5.9144   -5.9090 H         1 <0>         0.0620
     45 H22         3.2270   -8.0969   -4.7986 H         1 <0>         0.0617
     46 H23         1.6927   -8.2728   -5.6837 H         1 <0>         0.0599
     47 H24         2.9251   -8.2002   -7.8342 H         1 <0>         0.0624
     48 H25         4.4593   -8.0243   -6.9491 H         1 <0>         0.0648
     49 H26         4.0689  -10.2068   -5.8387 H         1 <0>         0.0658
     50 H27         2.5347  -10.3827   -6.7238 H         1 <0>         0.0614
     51 H28         3.7670  -10.3101   -8.8743 H         1 <0>         0.0718
     52 H29         5.3012  -10.1342   -7.9892 H         1 <0>         0.0847
     53 H30         4.8014  -12.4803   -6.9056 H         1 <0>         0.1160
     54 H31         3.5240  -12.4009   -9.6576 H         1 <0>         0.1234
     55 H32         1.0005  -15.0297  -10.0962 H         1 <0>         0.0780
     56 H33         1.8970  -13.4921  -10.1158 H         1 <0>         0.0969
     57 H34         2.4689  -14.8796  -11.9741 H         1 <0>         0.4111
     58 H35         3.3811  -17.8119   -7.1595 H         1 <0>         0.1271
     59 H36         4.3198  -16.3003   -7.2058 H         1 <0>         0.1253
     60 H37         2.7079  -16.3242   -6.4511 H         1 <0>         0.1213
     61 H38         0.9065  -16.7137   -9.5809 H         1 <0>         0.1220
     62 H39         1.4216  -18.0492   -8.5230 H         1 <0>         0.1267
     63 H40         0.7485  -16.5615   -7.8145 H         1 <0>         0.1213
     64 H41         4.5858  -14.5593  -10.5439 H         1 <0>         0.3973
     65 H42         3.2738  -16.7629   -9.2983 H         1 <0>         0.4368
@<TRIPOS>BOND
     1    1    2 1
     2    1   26 1
     3    1   27 1
     4    1   28 1
     5    2    3 1
     6    2   29 1
     7    2   30 1
     8    3    4 1
     9    3   31 1
    10    3   32 1
    11    4    5 1
    12    4   33 1
    13    4   34 1
    14    5    6 1
    15    5   35 1
    16    5   36 1
    17    6    7 1
    18    6   37 1
    19    6   38 1
    20    7    8 1
    21    7   39 1
    22    7   40 1
    23    8    9 1
    24    8   41 1
    25    8   42 1
    26    9   10 1
    27    9   43 1
    28    9   44 1
    29   10   11 1
    30   10   45 1
    31   10   46 1
    32   11   12 1
    33   11   47 1
    34   11   48 1
    35   12   13 1
    36   12   49 1
    37   12   50 1
    38   13   14 1
    39   13   51 1
    40   13   52 1
    41   14   15 2
    42   14   53 1
    43   15   16 1
    44   15   54 1
    45   16   17 1
    46   16   18 1
    47   16   25 1
    48   18   19 1
    49   18   20 1
    50   18   22 1
    51   20   21 1
    52   20   55 1
    53   20   56 1
    54   21   57 1
    55   22   23 1
    56   22   24 1
    57   22   65 1
    58   23   58 1
    59   23   59 1
    60   23   60 1
    61   24   61 1
    62   24   62 1
    63   24   63 1
    64   25   64 1
@<TRIPOS>MOLECULE
ZINC04342760
   31    32     0     0     0
SMALL
USER_CHARGES
5-amino-2-(4-aminophenyl)amino-benzenesulfonic acid
@<TRIPOS>ATOM
      1 C1         -5.5754    7.2201   -0.6796 C.ar      1 <0>        -0.1704
      2 C2         -5.5552    5.8441   -0.7915 C.ar      1 <0>        -0.1046
      3 C3         -4.8921    5.0797    0.1599 C.ar      1 <0>         0.1278
      4 C4         -4.2543    5.6994    1.2269 C.ar      1 <0>        -0.1086
      5 C5         -4.2702    7.0757    1.3357 C.ar      1 <0>        -0.1722
      6 C6         -4.9329    7.8399    0.3841 C.ar      1 <0>         0.1811
      7 N1         -4.9535    9.2350    0.4974 N.pl3     1 <0>        -0.8863
      8 N2         -4.8714    3.6846    0.0466 N.pl3     1 <0>        -0.6900
      9 C7         -3.6890    2.9792    0.2993 C.ar      1 <0>         0.2271
     10 C8         -2.5021    3.6679    0.5156 C.ar      1 <0>        -0.1699
     11 C9         -1.3373    2.9724    0.7714 C.ar      1 <0>        -0.1264
     12 C10        -1.3498    1.5838    0.8007 C.ar      1 <0>         0.1382
     13 C11        -2.5360    0.8953    0.5841 C.ar      1 <0>        -0.0560
     14 C12        -3.7024    1.5911    0.3343 C.ar      1 <0>        -0.6766
     15 S1         -5.2079    0.7174    0.0606 S.o2      1 <0>         2.6990
     16 O1         -5.7473    0.4261    1.3425 O.2       1 <0>        -1.0528
     17 O2         -5.9293    1.4490   -0.9211 O.2       1 <0>        -1.0569
     18 N3         -0.1675    0.8785    1.0544 N.pl3     1 <0>        -0.8897
     19 H1         -6.0913    7.8145   -1.4192 H         1 <0>         0.1193
     20 H2         -6.0546    5.3621   -1.6189 H         1 <0>         0.1279
     21 H3         -3.7425    5.1048    1.9691 H         1 <0>         0.1286
     22 H4         -3.7708    7.5578    2.1631 H         1 <0>         0.1185
     23 H5         -5.4166    9.7687   -0.1670 H         1 <0>         0.3938
     24 H6         -4.5047    9.6679    1.2404 H         1 <0>         0.3937
     25 H7         -5.6765    3.2066   -0.2071 H         1 <0>         0.4211
     26 H8         -2.4915    4.7475    0.4884 H         1 <0>         0.1288
     27 H9         -0.4156    3.5079    0.9446 H         1 <0>         0.1157
     28 H10        -2.5464   -0.1843    0.6113 H         1 <0>         0.1311
     29 H11        -0.1770   -0.0911    1.0788 H         1 <0>         0.3943
     30 H12         0.6619    1.3593    1.2018 H         1 <0>         0.3897
     31 O3         -4.8445   -0.6182   -0.5722 O.3       1 <0>        -1.0754
@<TRIPOS>BOND
     1    1    6 ar
     2    1    2 ar
     3    1   19 1
     4    2    3 ar
     5    2   20 1
     6    3    4 ar
     7    3    8 1
     8    4    5 ar
     9    4   21 1
    10    5    6 ar
    11    5   22 1
    12    6    7 1
    13    7   23 1
    14    7   24 1
    15    8    9 1
    16    8   25 1
    17    9   14 ar
    18    9   10 ar
    19   10   11 ar
    20   10   26 1
    21   11   12 ar
    22   11   27 1
    23   12   13 ar
    24   12   18 1
    25   13   14 ar
    26   13   28 1
    27   14   15 1
    28   15   16 2
    29   15   17 2
    30   15   31 1
    31   18   29 1
    32   18   30 1
@<TRIPOS>MOLECULE
ZINC00173788
   41    41     0     0     0
SMALL
USER_CHARGES

@<TRIPOS>ATOM
      1 C1         -0.0187    1.5258    0.0104 C.3       1 <0>        -0.1527
      2 C2          0.0021   -0.0041    0.0020 C.3       1 <0>         0.0592
      3 O1         -1.3386   -0.4987    0.0122 O.3       1 <0>        -0.3555
      4 C3         -1.4964   -1.8317    0.0065 C.2       1 <0>         0.4623
      5 O2         -0.5283   -2.5546   -0.0066 O.2       1 <0>        -0.5068
      6 C4         -2.8809   -2.4266    0.0165 C.3       1 <0>        -0.1015
      7 C5         -2.7801   -3.9532    0.0074 C.3       1 <0>        -0.0431
      8 C6         -4.1647   -4.5481    0.0174 C.2       1 <0>        -0.0767
      9 C7         -4.9193   -4.8768    1.1513 C.2       1 <0>        -0.1661
     10 C8         -6.1008   -5.3822    0.7289 C.2       1 <0>         0.0486
     11 N1         -6.1116   -5.3811   -0.6314 N.pl3     1 <0>        -0.5391
     12 H1         -6.8398   -5.6913   -1.1920 H         1 <0>         0.4222
     13 C9         -4.9201   -4.8617   -1.0783 C.2       1 <0>         0.0328
     14 C10        -4.5276   -4.6793   -2.4807 C.2       1 <0>         0.1670
     15 N2         -3.3668   -4.1778   -2.7692 N.2       1 <0>        -0.3203
     16 O3         -2.9881   -4.0018   -4.1223 O.3       1 <0>        -0.4099
     17 C11        -4.4910   -4.6996    2.5852 C.3       1 <0>        -0.0396
     18 C12        -4.7979   -3.2931    3.0310 C.2       1 <0>         0.4569
     19 O4         -5.3117   -2.5145    2.2630 O.2       1 <0>        -0.4945
     20 O5         -4.5004   -2.9052    4.2811 O.3       1 <0>        -0.3560
     21 C13        -4.8190   -1.5580    4.6355 C.3       1 <0>         0.0605
     22 C14        -4.4100   -1.3024    6.0875 C.3       1 <0>        -0.1532
     23 H2          1.0039    1.9031    0.0027 H         1 <0>         0.0795
     24 H3         -0.5459    1.8868   -0.8726 H         1 <0>         0.0665
     25 H4         -0.5289    1.8773    0.9072 H         1 <0>         0.0663
     26 H5          0.5123   -0.3556   -0.8948 H         1 <0>         0.0670
     27 H6          0.5293   -0.3651    0.8851 H         1 <0>         0.0668
     28 H7         -3.4091   -2.1027    0.9134 H         1 <0>         0.1048
     29 H8         -3.4261   -2.0931   -0.8665 H         1 <0>         0.1034
     30 H9         -2.2520   -4.2771   -0.8894 H         1 <0>         0.0975
     31 H10        -2.2350   -4.2867    0.8904 H         1 <0>         0.0755
     32 H11        -6.9015   -5.7292    1.3652 H         1 <0>         0.1747
     33 H12        -5.2054   -4.9626   -3.2723 H         1 <0>         0.1219
     34 H13        -2.1064   -3.6219   -4.2377 H         1 <0>         0.4084
     35 H14        -5.0305   -5.4064    3.2156 H         1 <0>         0.1133
     36 H15        -3.4196   -4.8818    2.6696 H         1 <0>         0.1135
     37 H16        -4.2807   -0.8730    3.9804 H         1 <0>         0.0668
     38 H17        -5.8916   -1.3976    4.5265 H         1 <0>         0.0670
     39 H18        -4.9483   -1.9874    6.7426 H         1 <0>         0.0667
     40 H19        -3.3374   -1.4628    6.1965 H         1 <0>         0.0667
     41 H20        -4.6530   -0.2748    6.3578 H         1 <0>         0.0791
@<TRIPOS>BOND
     1    1    2 1
     2    1   23 1
     3    1   24 1
     4    1   25 1
     5    2    3 1
     6    2   26 1
     7    2   27 1
     8    3    4 1
     9    4    5 2
    10    4    6 1
    11    6    7 1
    12    6   28 1
    13    6   29 1
    14    7    8 1
    15    7   30 1
    16    7   31 1
    17    8   13 2
    18    8    9 1
    19    9   10 2
    20    9   17 1
    21   10   11 1
    22   10   32 1
    23   11   12 1
    24   11   13 1
    25   13   14 1
    26   14   15 2
    27   14   33 1
    28   15   16 1
    29   16   34 1
    30   17   18 1
    31   17   35 1
    32   17   36 1
    33   18   19 2
    34   18   20 1
    35   20   21 1
    36   21   22 1
    37   21   37 1
    38   21   38 1
    39   22   39 1
    40   22   40 1
    41   22   41 1
@<TRIPOS>MOLECULE
ZINC01028598
   38    41     0     0     0
SMALL
USER_CHARGES

@<TRIPOS>ATOM
      1 C1         -0.0184    1.5028    0.0103 C.3       1 <0>        -0.1032
      2 C2          0.0021   -0.0041    0.0020 C.2       1 <0>        -0.0167
      3 C3          0.0060   -0.6864   -1.1581 C.2       1 <0>        -0.2378
      4 S1          0.0323   -2.3883   -0.6289 S.3       1 <0>        -0.1002
      5 C4          0.0372   -2.1335    1.1360 C.2       1 <0>         0.3147
      6 C5          0.0239   -0.7480    1.2359 C.2       1 <0>        -0.2329
      7 C6          0.0270   -0.0708    2.5426 C.2       1 <0>         0.3095
      8 N1          0.0060    1.2210    2.8047 N.2       1 <0>        -0.5687
      9 C7          0.0122    1.7030    4.0644 C.ar      1 <0>         0.1135
     10 C8         -0.0077    3.0549    4.4814 C.ar      1 <0>        -0.0925
     11 C9          0.0028    3.3768    5.8133 C.ar      1 <0>        -0.1118
     12 C10         0.0335    2.3976    6.7958 C.ar      1 <0>        -0.1363
     13 C11         0.0535    1.0655    6.4244 C.ar      1 <0>        -0.0550
     14 C12         0.0427    0.7329    5.0929 C.ar      1 <0>        -0.1979
     15 S2          0.0523   -0.7904    4.1784 S.3       1 <0>         0.0271
     16 N2          0.0548   -3.0786    2.1512 N.2       1 <0>        -1.0056
     17 S3          0.0755   -4.6923    1.7799 S.o2      1 <0>         2.6105
     18 O1         -1.1687   -4.9819    1.1575 O.2       1 <0>        -0.9985
     19 O2          1.3217   -4.9473    1.1465 O.2       1 <0>        -0.9985
     20 C13         0.0945   -5.5773    3.3034 C.ar      1 <0>        -0.6208
     21 C14         1.2991   -5.9027    3.8984 C.ar      1 <0>        -0.0067
     22 C15         1.3147   -6.5969    5.0935 C.ar      1 <0>        -0.1350
     23 C16         0.1244   -6.9660    5.6943 C.ar      1 <0>         0.0081
     24 C17        -1.0809   -6.6400    5.0984 C.ar      1 <0>        -0.1351
     25 C18        -1.0953   -5.9409    3.9061 C.ar      1 <0>        -0.0068
     26 Cl1         0.1431   -7.8384    7.1951 Cl        1 <0>        -0.0693
     27 H1          1.0042    1.8801    0.0026 H         1 <0>         0.0613
     28 H2         -0.5455    1.8639   -0.8728 H         1 <0>         0.0514
     29 H3         -0.5286    1.8543    0.9071 H         1 <0>         0.0937
     30 H4         -0.0045   -0.2972   -2.1655 H         1 <0>         0.1728
     31 H5         -0.0309    3.8417    3.7420 H         1 <0>         0.1220
     32 H6         -0.0128    4.4166    6.1050 H         1 <0>         0.1210
     33 H7          0.0420    2.6728    7.8401 H         1 <0>         0.1250
     34 H8          0.0777    0.2917    7.1775 H         1 <0>         0.1212
     35 H9          2.2283   -5.6149    3.4291 H         1 <0>         0.1484
     36 H10         2.2559   -6.8514    5.5580 H         1 <0>         0.1403
     37 H11        -2.0104   -6.9281    5.5667 H         1 <0>         0.1402
     38 H12        -2.0361   -5.6822    3.4433 H         1 <0>         0.1485
@<TRIPOS>BOND
     1    1    2 1
     2    1   27 1
     3    1   28 1
     4    1   29 1
     5    2    6 1
     6    2    3 2
     7    3    4 1
     8    3   30 1
     9    4    5 1
    10    5    6 2
    11    5   16 1
    12    6    7 1
    13    7   15 1
    14    7    8 2
    15    8    9 1
    16    9   14 ar
    17    9   10 ar
    18   10   11 ar
    19   10   31 1
    20   11   12 ar
    21   11   32 1
    22   12   13 ar
    23   12   33 1
    24   13   14 ar
    25   13   34 1
    26   14   15 1
    27   16   17 1
    28   17   18 2
    29   17   19 2
    30   17   20 1
    31   20   25 ar
    32   20   21 ar
    33   21   22 ar
    34   21   35 1
    35   22   23 ar
    36   22   36 1
    37   23   24 ar
    38   23   26 1
    39   24   25 ar
    40   24   37 1
    41   25   38 1
@<TRIPOS>MOLECULE
ZINC01028598
   39    42     0     0     0
SMALL
USER_CHARGES

@<TRIPOS>ATOM
      1 C1         -0.3191    1.4825    0.0478 C.3       1 <0>        -0.0965
      2 C2         -0.1421   -0.0138    0.0200 C.2       1 <0>        -0.0544
      3 C3         -0.2305   -0.6964   -1.1366 C.2       1 <0>        -0.1908
      4 S1          0.0486   -2.3839   -0.6353 S.3       1 <0>         0.1165
      5 C4          0.2760   -2.1233    1.1140 C.2       1 <0>         0.1254
      6 C5          0.1317   -0.7465    1.2301 C.2       1 <0>        -0.1032
      7 C6          0.2483   -0.0677    2.5309 C.2       1 <0>         0.2263
      8 N1          0.9257    1.0207    2.8380 N.2       1 <0>        -0.4825
      9 C7          0.9415    1.5343    4.0850 C.ar      1 <0>         0.0736
     10 C8          1.6217    2.6863    4.5457 C.ar      1 <0>        -0.0574
     11 C9          1.5324    3.0745    5.8568 C.ar      1 <0>        -0.1111
     12 C10         0.7783    2.3584    6.7753 C.ar      1 <0>        -0.0896
     13 C11         0.1001    1.2269    6.3600 C.ar      1 <0>        -0.0686
     14 C12         0.1828    0.8303    5.0487 C.ar      1 <0>        -0.1347
     15 S2         -0.4987   -0.5046    4.0946 S.3       1 <0>        -0.0288
     16 N2          0.5359   -3.0574    2.1060 N.pl3     1 <0>        -1.0022
     17 S3          0.6732   -4.6613    1.7176 S.o2      1 <0>         2.6738
     18 O1          0.9628   -5.3487    2.9271 O.2       1 <0>        -0.9251
     19 O2         -0.4514   -4.9813    0.9100 O.2       1 <0>        -0.9185
     20 C13         2.0949   -4.8287    0.6903 C.ar      1 <0>        -0.6837
     21 C14         1.9734   -4.7121   -0.6818 C.ar      1 <0>         0.0018
     22 C15         3.0882   -4.8434   -1.4882 C.ar      1 <0>        -0.1263
     23 C16         4.3259   -5.0915   -0.9219 C.ar      1 <0>         0.0254
     24 C17         4.4468   -5.2081    0.4514 C.ar      1 <0>        -0.1299
     25 C18         3.3322   -5.0710    1.2571 C.ar      1 <0>         0.0004
     26 Cl1         5.7265   -5.2570   -1.9341 Cl        1 <0>        -0.0458
     27 H1          0.6569    1.9649   -0.0054 H         1 <0>         0.0806
     28 H2         -0.9246    1.7927   -0.8038 H         1 <0>         0.0725
     29 H3         -0.8177    1.7723    0.9728 H         1 <0>         0.0648
     30 H4         -0.4240   -0.3143   -2.1280 H         1 <0>         0.2003
     31 H5          2.2180    3.2659    3.8565 H         1 <0>         0.1350
     32 H6          2.0615    3.9578    6.1827 H         1 <0>         0.1369
     33 H7          0.7219    2.6812    7.8044 H         1 <0>         0.1414
     34 H8         -0.4908    0.6588    7.0632 H         1 <0>         0.1357
     35 H9          1.0071   -4.5188   -1.1238 H         1 <0>         0.1519
     36 H10         2.9932   -4.7526   -2.5602 H         1 <0>         0.1505
     37 H11         5.4127   -5.4021    0.8940 H         1 <0>         0.1490
     38 H12         3.4273   -5.1573    2.3295 H         1 <0>         0.1528
     39 H13         0.6373   -2.7710    3.0273 H         1 <0>         0.4346
@<TRIPOS>BOND
     1    1    2 1
     2    1   27 1
     3    1   28 1
     4    1   29 1
     5    2    6 1
     6    2    3 2
     7    3    4 1
     8    3   30 1
     9    4    5 1
    10    5    6 2
    11    5   16 1
    12    6    7 1
    13    7   15 1
    14    7    8 2
    15    8    9 1
    16    9   14 ar
    17    9   10 ar
    18   10   11 ar
    19   10   31 1
    20   11   12 ar
    21   11   32 1
    22   12   13 ar
    23   12   33 1
    24   13   14 ar
    25   13   34 1
    26   14   15 1
    27   16   17 1
    28   16   39 1
    29   17   18 2
    30   17   19 2
    31   17   20 1
    32   20   25 ar
    33   20   21 ar
    34   21   22 ar
    35   21   35 1
    36   22   23 ar
    37   22   36 1
    38   23   24 ar
    39   23   26 1
    40   24   25 ar
    41   24   37 1
    42   25   38 1
@<TRIPOS>MOLECULE
ZINC04322764
   25    26     0     0     0
SMALL
USER_CHARGES
2-(2-furylcarbonyl)-3-(5-nitro-2-thienyl)-prop-2-enenitrile
@<TRIPOS>ATOM
      1 C1          8.0525    3.7175   -0.0557 C.2       1 <0>        -0.2292
      2 C2          7.3653    2.4938   -0.0560 C.2       1 <0>        -0.1002
      3 C3          6.0318    2.7921   -0.0412 C.2       1 <0>        -0.1175
      4 O1          5.9047    4.1350   -0.0382 O.3       1 <0>        -0.1585
      5 C4          7.1210    4.6969   -0.0410 C.2       1 <0>         0.0148
      6 C5          4.9316    1.8220   -0.0360 C.2       1 <0>         0.4971
      7 O2          5.1724    0.6273   -0.0452 O.2       1 <0>        -0.4199
      8 C6          3.5399    2.2904   -0.0198 C.2       1 <0>        -0.1184
      9 C7          2.4996    1.3732   -0.0149 C.2       1 <0>         0.0977
     10 C8          1.1668    1.8218    0.0007 C.2       1 <0>        -0.1636
     11 C9         -0.0126    1.0758    0.0080 C.2       1 <0>        -0.0995
     12 C10        -1.1890    1.7758    0.0172 C.2       1 <0>        -0.0775
     13 C11        -1.1542    3.1373    0.0300 C.2       1 <0>        -0.1861
     14 S1          0.5424    3.4930    0.0157 S.3       1 <0>         0.3156
     15 N1         -2.2913    4.0851    0.0456 N.pl3     1 <0>         0.0671
     16 O3         -3.4345    3.6647    0.0539 O.2       1 <0>        -0.1287
     17 O4         -2.0838    5.2853    0.0501 O.3       1 <0>        -0.1414
     18 C12         3.2569    3.6941   -0.0090 C.1       1 <0>         0.2253
     19 N2          3.0324    4.8077   -0.0005 N.1       1 <0>        -0.3495
     20 H1          9.1241    3.8515   -0.0651 H         1 <0>         0.1617
     21 H2          7.8052    1.5075   -0.0656 H         1 <0>         0.1653
     22 H3          7.3238    5.7576   -0.0369 H         1 <0>         0.2135
     23 H4          2.7130    0.3146   -0.0230 H         1 <0>         0.1894
     24 H5          0.0021   -0.0041    0.0020 H         1 <0>         0.1751
     25 H6         -2.1346    1.2540    0.0186 H         1 <0>         0.1674
@<TRIPOS>BOND
     1    1    5 2
     2    1    2 1
     3    1   20 1
     4    2    3 2
     5    2   21 1
     6    3    4 1
     7    3    6 1
     8    4    5 1
     9    5   22 1
    10    6    7 2
    11    6    8 1
    12    8    9 2
    13    8   18 1
    14    9   10 1
    15    9   23 1
    16   10   14 1
    17   10   11 2
    18   11   12 1
    19   11   24 1
    20   12   13 2
    21   12   25 1
    22   13   14 1
    23   13   15 1
    24   15   16 2
    25   15   17 1
    26   18   19 3
@<TRIPOS>MOLECULE
ZINC03830212
   61    63     0     0     0
SMALL
USER_CHARGES
(2-butylbenzofuran-3-yl)-[4-(2-diethylaminoethoxy)-3,5-diiodo-phenyl]-methanone
@<TRIPOS>ATOM
      1 C1         -4.1677    4.6447    4.0546 C.3       1 <0>        -0.1559
      2 C2         -2.9795    4.1958    4.9076 C.3       1 <0>        -0.1215
      3 C3         -2.2245    3.0795    4.1832 C.3       1 <0>        -0.1217
      4 C4         -1.0363    2.6306    5.0361 C.3       1 <0>        -0.0556
      5 C5         -0.2927    1.5310    4.3226 C.2       1 <0>         0.1031
      6 C6          0.7390    1.7197    3.4530 C.2       1 <0>        -0.2632
      7 C7          1.1431    0.3689    3.0136 C.ar      1 <0>        -0.0982
      8 C8          2.1157   -0.1196    2.1476 C.ar      1 <0>        -0.0789
      9 C9          2.2335   -1.4791    1.9520 C.ar      1 <0>        -0.1205
     10 C10         1.3877   -2.3551    2.6156 C.ar      1 <0>        -0.0885
     11 C11         0.4203   -1.8818    3.4760 C.ar      1 <0>        -0.0979
     12 C12         0.2862   -0.5146    3.6855 C.ar      1 <0>         0.0534
     13 O1         -0.5429    0.2233    4.4527 O.3       1 <0>        -0.1754
     14 C13         1.3271    3.0012    3.0377 C.2       1 <0>         0.4789
     15 O2          0.9433    3.5452    2.0190 O.2       1 <0>        -0.4115
     16 C14         2.3833    3.6285    3.8565 C.ar      1 <0>        -0.1423
     17 C15         2.9023    2.9553    4.9660 C.ar      1 <0>         0.0014
     18 C16         3.8914    3.5418    5.7244 C.ar      1 <0>        -0.1300
     19 C17         4.3655    4.8065    5.3942 C.ar      1 <0>         0.1789
     20 C18         3.8481    5.4816    4.2943 C.ar      1 <0>        -0.1306
     21 C19         2.8628    4.8995    3.5275 C.ar      1 <0>         0.0029
     22 I1          4.5683    7.3863    3.8021 I         1 <0>        -0.0105
     23 O3          5.3362    5.3834    6.1473 O.3       1 <0>        -0.3308
     24 C20         4.9106    6.1869    7.2496 C.3       1 <0>         0.0219
     25 C21         6.1355    6.7485    7.9743 C.3       1 <0>        -0.0014
     26 C22         6.0477    8.8560    6.7855 C.3       1 <0>        -0.0236
     27 C23         5.8232    9.6517    8.0729 C.3       1 <0>        -0.1842
     28 C24         8.1576    8.0399    7.6484 C.3       1 <0>        -0.0132
     29 C25         9.0268    8.6709    6.5589 C.3       1 <0>        -0.1896
     30 I2          4.6769    2.5302    7.3823 I         1 <0>         0.0118
     31 H1         -3.8070    5.0137    3.0946 H         1 <0>         0.0557
     32 H2         -4.8371    3.8002    3.8910 H         1 <0>         0.0574
     33 H3         -4.7056    5.4399    4.5707 H         1 <0>         0.0582
     34 H4         -3.3403    3.8267    5.8677 H         1 <0>         0.0666
     35 H5         -2.3101    5.0403    5.0713 H         1 <0>         0.0616
     36 H6         -2.8939    2.2350    4.0195 H         1 <0>         0.0747
     37 H7         -1.8638    3.4485    3.2231 H         1 <0>         0.0717
     38 H8         -0.3669    3.4751    5.1998 H         1 <0>         0.0938
     39 H9         -1.3971    2.2615    5.9962 H         1 <0>         0.0985
     40 H10         2.7746    0.5624    1.6307 H         1 <0>         0.1258
     41 H11         2.9870   -1.8632    1.2803 H         1 <0>         0.1358
     42 H12         1.4876   -3.4186    2.4564 H         1 <0>         0.1419
     43 H13        -0.2334   -2.5732    3.9869 H         1 <0>         0.1384
     44 H14         2.5311    1.9750    5.2260 H         1 <0>         0.1552
     45 H15         2.4616    5.4243    2.6731 H         1 <0>         0.1598
     46 H16         4.2961    7.0095    6.8838 H         1 <0>         0.0851
     47 H17         4.3279    5.5772    7.9401 H         1 <0>         0.1097
     48 H18         5.8148    7.2875    8.8658 H         1 <0>         0.1566
     49 H19         6.7945    5.9295    8.2624 H         1 <0>         0.1467
     50 H20         6.5703    9.4791    6.0597 H         1 <0>         0.1322
     51 H21         5.0854    8.5497    6.3753 H         1 <0>         0.1222
     52 H22         6.7760   10.0446    8.4280 H         1 <0>         0.0855
     53 H23         5.1406   10.4781    7.8749 H         1 <0>         0.1082
     54 H24         5.3932    8.9994    8.8329 H         1 <0>         0.0802
     55 H25         8.0090    8.7572    8.4556 H         1 <0>         0.1366
     56 H26         8.6530    7.1510    8.0390 H         1 <0>         0.1317
     57 H27        10.0246    8.8607    6.9545 H         1 <0>         0.1088
     58 H28         9.0959    7.9908    5.7099 H         1 <0>         0.0802
     59 H29         8.5791    9.6109    6.2359 H         1 <0>         0.0800
     60 N1          6.8605    7.6515    7.0557 N.4       1 <0>        -0.3989
     61 H30         7.0320    7.1595    6.1709 H         1 <0>         0.4328
@<TRIPOS>BOND
     1    1    2 1
     2    1   31 1
     3    1   32 1
     4    1   33 1
     5    2    3 1
     6    2   34 1
     7    2   35 1
     8    3    4 1
     9    3   36 1
    10    3   37 1
    11    4    5 1
    12    4   38 1
    13    4   39 1
    14    5   13 1
    15    5    6 2
    16    6    7 1
    17    6   14 1
    18    7   12 ar
    19    7    8 ar
    20    8    9 ar
    21    8   40 1
    22    9   10 ar
    23    9   41 1
    24   10   11 ar
    25   10   42 1
    26   11   12 ar
    27   11   43 1
    28   12   13 1
    29   14   15 2
    30   14   16 1
    31   16   21 ar
    32   16   17 ar
    33   17   18 ar
    34   17   44 1
    35   18   19 ar
    36   18   30 1
    37   19   20 ar
    38   19   23 1
    39   20   21 ar
    40   20   22 1
    41   21   45 1
    42   23   24 1
    43   24   25 1
    44   24   46 1
    45   24   47 1
    46   25   48 1
    47   25   49 1
    48   25   60 1
    49   26   27 1
    50   26   50 1
    51   26   51 1
    52   26   60 1
    53   27   52 1
    54   27   53 1
    55   27   54 1
    56   28   29 1
    57   28   55 1
    58   28   56 1
    59   28   60 1
    60   29   57 1
    61   29   58 1
    62   29   59 1
    63   60   61 1
@<TRIPOS>MOLECULE
ZINC00585151
   56    60     0     0     0
SMALL
USER_CHARGES

@<TRIPOS>ATOM
      1 C1         -0.0178    1.4648    0.0101 C.3       1 <0>        -0.0534
      2 N1          0.0021   -0.0041    0.0020 N.4       1 <0>        -0.3866
      3 C2          0.6897   -0.4778   -1.2066 C.3       1 <0>        -0.0478
      4 C3          0.7126   -0.4907    1.1921 C.3       1 <0>        -0.0080
      5 C4         -0.0711   -0.1034    2.4478 C.3       1 <0>        -0.1730
      6 C5          0.6689   -0.6103    3.6874 C.3       1 <0>         0.1182
      7 N2         -0.0815   -0.2395    4.8897 N.pl3     1 <0>        -0.4815
      8 C6          0.1469    0.8758    5.6359 C.2       1 <0>         0.0901
      9 C7         -0.7280    0.9160    6.6813 C.2       1 <0>        -0.1149
     10 C8         -1.5728   -0.2860    6.5675 C.ar      1 <0>        -0.0758
     11 C9         -1.1242   -0.9677    5.4239 C.ar      1 <0>         0.0951
     12 C10        -1.7430   -2.1563    5.0519 C.ar      1 <0>        -0.1325
     13 C11        -2.7877   -2.6520    5.8018 C.ar      1 <0>        -0.0916
     14 C12        -3.2317   -1.9762    6.9290 C.ar      1 <0>        -0.1341
     15 C13        -2.6274   -0.8005    7.3180 C.ar      1 <0>        -0.0675
     16 C14        -0.8118    1.9563    7.7201 C.2       1 <0>        -0.0396
     17 C15        -1.3439    3.2331    7.5833 C.2       1 <0>        -0.0216
     18 C16        -1.1928    3.8832    8.9015 C.2       1 <0>         0.5528
     19 O1         -1.5431    5.0129    9.1789 O.2       1 <0>        -0.4407
     20 N3         -0.6040    3.0163    9.7426 N.am      1 <0>        -0.6896
     21 C17        -0.3529    1.8519    9.1208 C.2       1 <0>         0.5557
     22 O2          0.1678    0.8770    9.6251 O.2       1 <0>        -0.4448
     23 C18        -1.9376    3.8193    6.3699 C.2       1 <0>        -0.1386
     24 C19        -3.1673    3.5437    5.8485 C.2       1 <0>         0.1034
     25 N4         -3.3630    4.2810    4.7213 N.pl3     1 <0>        -0.5859
     26 H1         -4.1640    4.2562    4.1748 H         1 <0>         0.4208
     27 C20        -2.2594    5.0687    4.4669 C.ar      1 <0>         0.0921
     28 C21        -1.3222    4.8236    5.4844 C.ar      1 <0>        -0.0761
     29 C22        -0.1012    5.4938    5.4850 C.ar      1 <0>        -0.0737
     30 C23         0.1803    6.3997    4.4856 C.ar      1 <0>        -0.1372
     31 C24        -0.7458    6.6457    3.4825 C.ar      1 <0>        -0.0980
     32 C25        -1.9544    5.9835    3.4647 C.ar      1 <0>        -0.1284
     33 H2          1.0047    1.8421    0.0024 H         1 <0>         0.1243
     34 H3         -0.5450    1.8259   -0.8730 H         1 <0>         0.1260
     35 H4         -0.5280    1.8163    0.9069 H         1 <0>         0.1232
     36 H5          1.7123   -0.1005   -1.2143 H         1 <0>         0.1234
     37 H6          0.7044   -1.5677   -1.2126 H         1 <0>         0.1246
     38 H7          0.1625   -0.1167   -2.0897 H         1 <0>         0.1259
     39 H8          0.8051   -1.5756    1.1418 H         1 <0>         0.1349
     40 H9          1.7055   -0.0428    1.2310 H         1 <0>         0.1343
     41 H10        -0.1636    0.9815    2.4982 H         1 <0>         0.0962
     42 H11        -1.0640   -0.5514    2.4090 H         1 <0>         0.0946
     43 H12         0.7614   -1.6952    3.6370 H         1 <0>         0.0986
     44 H13         1.6619   -0.1623    3.7262 H         1 <0>         0.1025
     45 H14         0.9061    1.6162    5.4314 H         1 <0>         0.1747
     46 H15        -1.4054   -2.6903    4.1759 H         1 <0>         0.1162
     47 H16        -3.2655   -3.5752    5.5090 H         1 <0>         0.1291
     48 H17        -4.0517   -2.3760    7.5071 H         1 <0>         0.1290
     49 H18        -2.9758   -0.2758    8.1954 H         1 <0>         0.1233
     50 H19        -0.3934    3.2036   10.6708 H         1 <0>         0.4318
     51 H20        -3.8779    2.8460    6.2665 H         1 <0>         0.1769
     52 H21         0.6213    5.3046    6.2652 H         1 <0>         0.1203
     53 H22         1.1262    6.9209    4.4834 H         1 <0>         0.1262
     54 H23        -0.5147    7.3581    2.7044 H         1 <0>         0.1278
     55 H24        -2.6689    6.1837    2.6799 H         1 <0>         0.1213
     56 H25        -0.9445   -0.3533    0.0092 H         1 <0>         0.4275
@<TRIPOS>BOND
     1    1    2 1
     2    1   33 1
     3    1   34 1
     4    1   35 1
     5    2    3 1
     6    2    4 1
     7    2   56 1
     8    3   36 1
     9    3   37 1
    10    3   38 1
    11    4    5 1
    12    4   39 1
    13    4   40 1
    14    5    6 1
    15    5   41 1
    16    5   42 1
    17    6    7 1
    18    6   43 1
    19    6   44 1
    20    7   11 1
    21    7    8 1
    22    8    9 2
    23    8   45 1
    24    9   10 1
    25    9   16 1
    26   10   15 ar
    27   10   11 ar
    28   11   12 ar
    29   12   13 ar
    30   12   46 1
    31   13   14 ar
    32   13   47 1
    33   14   15 ar
    34   14   48 1
    35   15   49 1
    36   16   21 1
    37   16   17 2
    38   17   18 1
    39   17   23 1
    40   18   19 2
    41   18   20 am
    42   20   21 am
    43   20   50 1
    44   21   22 2
    45   23   28 1
    46   23   24 2
    47   24   25 1
    48   24   51 1
    49   25   26 1
    50   25   27 1
    51   27   32 ar
    52   27   28 ar
    53   28   29 ar
    54   29   30 ar
    55   29   52 1
    56   30   31 ar
    57   30   53 1
    58   31   32 ar
    59   31   54 1
    60   32   55 1
