@<TRIPOS>MOLECULE
ZINC01673633
   42    41     0     0     0
SMALL
USER_CHARGES
dodecyl dihydrogen phosphate
@<TRIPOS>ATOM
      1 C1          5.4371   17.5575   -0.4322 C.3       1 <0>        -0.1530
      2 C2          5.9294   16.1095   -0.4759 C.3       1 <0>        -0.1262
      3 C3          4.7348   15.1609   -0.3577 C.3       1 <0>        -0.1211
      4 C4          5.2270   13.7129   -0.4014 C.3       1 <0>        -0.1210
      5 C5          4.0324   12.7643   -0.2832 C.3       1 <0>        -0.1203
      6 C6          4.5247   11.3164   -0.3269 C.3       1 <0>        -0.1203
      7 C7          3.3300   10.3678   -0.2087 C.3       1 <0>        -0.1198
      8 C8          3.8223    8.9198   -0.2524 C.3       1 <0>        -0.1201
      9 C9          2.6277    7.9712   -0.1342 C.3       1 <0>        -0.1172
     10 C10         3.1199    6.5232   -0.1779 C.3       1 <0>        -0.1190
     11 C11         1.9253    5.5746   -0.0597 C.3       1 <0>        -0.1222
     12 C12         2.4176    4.1267   -0.1033 C.3       1 <0>         0.1298
     13 O1          1.3018    3.2407    0.0070 O.3       1 <0>        -0.7638
     14 P1          1.4507    1.6376   -0.0030 P.3       1 <0>         2.1354
     15 O2          2.1794    1.2174   -1.2207 O.2       1 <0>        -1.1679
     16 H1          4.7506   17.7330   -1.2604 H         1 <0>         0.0527
     17 H2          4.9219   17.7378    0.5113 H         1 <0>         0.0528
     18 H3          6.2882   18.2333   -0.5164 H         1 <0>         0.0512
     19 H4          6.6160   15.9340    0.3523 H         1 <0>         0.0600
     20 H5          6.4446   15.9292   -1.4194 H         1 <0>         0.0599
     21 H6          4.0482   15.3364   -1.1859 H         1 <0>         0.0601
     22 H7          4.2196   15.3412    0.5858 H         1 <0>         0.0601
     23 H8          5.9136   13.5375    0.4268 H         1 <0>         0.0601
     24 H9          5.7422   13.5326   -1.3448 H         1 <0>         0.0601
     25 H10         3.3458   12.9398   -1.1114 H         1 <0>         0.0597
     26 H11         3.5172   12.9447    0.6603 H         1 <0>         0.0598
     27 H12         5.2112   11.1409    0.5013 H         1 <0>         0.0598
     28 H13         5.0399   11.1360   -1.2703 H         1 <0>         0.0598
     29 H14         2.6435   10.5432   -1.0369 H         1 <0>         0.0593
     30 H15         2.8148   10.5481    0.7348 H         1 <0>         0.0594
     31 H16         4.5089    8.7443    0.5758 H         1 <0>         0.0598
     32 H17         4.3375    8.7395   -1.1958 H         1 <0>         0.0597
     33 H18         1.9411    8.1467   -0.9624 H         1 <0>         0.0592
     34 H19         2.1125    8.1515    0.8093 H         1 <0>         0.0594
     35 H20         3.8065    6.3478    0.6504 H         1 <0>         0.0601
     36 H21         3.6351    6.3429   -1.1213 H         1 <0>         0.0599
     37 H22         1.2387    5.7501   -0.8879 H         1 <0>         0.0596
     38 H23         1.4101    5.7550    0.8838 H         1 <0>         0.0600
     39 H24         3.1042    3.9512    0.7249 H         1 <0>         0.0296
     40 H25         2.9328    3.9463   -1.0468 H         1 <0>         0.0304
     41 O3         -0.0110    0.9628    0.0073 O.3       1 <0>        -1.1829
     42 O4          2.2685    1.1664    1.3013 O.3       1 <0>        -1.2032
@<TRIPOS>BOND
     1    1    2 1
     2    1   16 1
     3    1   17 1
     4    1   18 1
     5    2    3 1
     6    2   19 1
     7    2   20 1
     8    3    4 1
     9    3   21 1
    10    3   22 1
    11    4    5 1
    12    4   23 1
    13    4   24 1
    14    5    6 1
    15    5   25 1
    16    5   26 1
    17    6    7 1
    18    6   27 1
    19    6   28 1
    20    7    8 1
    21    7   29 1
    22    7   30 1
    23    8    9 1
    24    8   31 1
    25    8   32 1
    26    9   10 1
    27    9   33 1
    28    9   34 1
    29   10   11 1
    30   10   35 1
    31   10   36 1
    32   11   12 1
    33   11   37 1
    34   11   38 1
    35   12   13 1
    36   12   39 1
    37   12   40 1
    38   13   14 1
    39   14   15 2
    40   14   41 1
    41   14   42 1
@<TRIPOS>MOLECULE
ZINC36178975
   48    47     0     0     0
SMALL
USER_CHARGES

@<TRIPOS>ATOM
      1 C1         -0.0187    1.5258    0.0104 C.3       1 <0>        -0.1537
      2 C2          0.0021   -0.0041    0.0020 C.3       1 <0>        -0.1261
      3 C3          0.7421   -0.5109    1.2415 C.3       1 <0>        -0.1213
      4 C4          0.7628   -2.0407    1.2331 C.3       1 <0>        -0.1210
      5 C5          1.5028   -2.5476    2.4727 C.3       1 <0>        -0.1207
      6 C6          1.5236   -4.0774    2.4642 C.3       1 <0>        -0.1202
      7 C7          2.2636   -4.5842    3.7038 C.3       1 <0>        -0.1205
      8 C8          2.2843   -6.1141    3.6954 C.3       1 <0>        -0.1197
      9 C9          3.0243   -6.6209    4.9349 C.3       1 <0>        -0.1204
     10 C10         3.0450   -8.1508    4.9265 C.3       1 <0>        -0.1186
     11 C11         3.7850   -8.6576    6.1660 C.3       1 <0>        -0.1217
     12 C12         3.8058  -10.1874    6.1576 C.3       1 <0>        -0.1153
     13 C13         4.5458  -10.6943    7.3971 C.3       1 <0>        -0.0941
     14 C14         4.5665  -12.2241    7.3887 C.3       1 <0>        -0.7284
     15 P1          5.4482  -12.8280    8.8656 P.3       1 <0>         2.2566
     16 O1          6.8557  -12.1931    8.9206 O.2       1 <0>        -1.0981
     17 O2          4.6569  -12.4369   10.1336 O.3       1 <0>        -1.0989
     18 O3          5.5849  -14.4305    8.7912 O.3       1 <0>        -0.9058
     19 H1          1.0039    1.9031    0.0027 H         1 <0>         0.0532
     20 H2         -0.5459    1.8868   -0.8726 H         1 <0>         0.0524
     21 H3         -0.5289    1.8773    0.9072 H         1 <0>         0.0532
     22 H4         -1.0205   -0.3814    0.0098 H         1 <0>         0.0600
     23 H5          0.5123   -0.3556   -0.8948 H         1 <0>         0.0600
     24 H6          1.7647   -0.1336    1.2338 H         1 <0>         0.0606
     25 H7          0.2319   -0.1594    2.1383 H         1 <0>         0.0606
     26 H8         -0.2598   -2.4180    1.2409 H         1 <0>         0.0601
     27 H9          1.2730   -2.3923    0.3363 H         1 <0>         0.0601
     28 H10         2.5254   -2.1703    2.4649 H         1 <0>         0.0605
     29 H11         0.9926   -2.1961    3.3695 H         1 <0>         0.0605
     30 H12         0.5010   -4.4547    2.4720 H         1 <0>         0.0597
     31 H13         2.0337   -4.4289    1.5675 H         1 <0>         0.0597
     32 H14         3.2861   -4.2070    3.6960 H         1 <0>         0.0606
     33 H15         1.7534   -4.2327    4.6006 H         1 <0>         0.0606
     34 H16         1.2617   -6.4914    3.7031 H         1 <0>         0.0592
     35 H17         2.7945   -6.4656    2.7986 H         1 <0>         0.0591
     36 H18         4.0469   -6.2436    4.9271 H         1 <0>         0.0611
     37 H19         2.5141   -6.2694    5.8317 H         1 <0>         0.0611
     38 H20         2.0224   -8.5280    4.9342 H         1 <0>         0.0577
     39 H21         3.5552   -8.5023    4.0297 H         1 <0>         0.0577
     40 H22         4.8076   -8.2803    6.1583 H         1 <0>         0.0626
     41 H23         3.2748   -8.3061    7.0628 H         1 <0>         0.0625
     42 H24         2.7832  -10.5647    6.1653 H         1 <0>         0.0515
     43 H25         4.3160  -10.5389    5.2608 H         1 <0>         0.0514
     44 H26         5.5684  -10.3170    7.3894 H         1 <0>         0.0711
     45 H27         4.0356  -10.3427    8.2939 H         1 <0>         0.0682
     46 H28         3.5439  -12.6014    7.3964 H         1 <0>         0.0666
     47 H29         5.0767  -12.5756    6.4919 H         1 <0>         0.0650
     48 H30         6.0449  -14.8215    9.5466 H         1 <0>         0.4111
@<TRIPOS>BOND
     1    1    2 1
     2    1   19 1
     3    1   20 1
     4    1   21 1
     5    2    3 1
     6    2   22 1
     7    2   23 1
     8    3    4 1
     9    3   24 1
    10    3   25 1
    11    4    5 1
    12    4   26 1
    13    4   27 1
    14    5    6 1
    15    5   28 1
    16    5   29 1
    17    6    7 1
    18    6   30 1
    19    6   31 1
    20    7    8 1
    21    7   32 1
    22    7   33 1
    23    8    9 1
    24    8   34 1
    25    8   35 1
    26    9   10 1
    27    9   36 1
    28    9   37 1
    29   10   11 1
    30   10   38 1
    31   10   39 1
    32   11   12 1
    33   11   40 1
    34   11   41 1
    35   12   13 1
    36   12   42 1
    37   12   43 1
    38   13   14 1
    39   13   44 1
    40   13   45 1
    41   14   15 1
    42   14   46 1
    43   14   47 1
    44   15   16 2
    45   15   17 1
    46   15   18 1
    47   18   48 1
@<TRIPOS>MOLECULE
ZINC03819448
   54    56     0     0     0
SMALL
USER_CHARGES

@<TRIPOS>ATOM
      1 C1         -1.2337    1.1680    0.0633 C.3       1 <0>        -0.0742
      2 C2         -0.5211   -0.1593    0.0244 C.2       1 <0>         0.1303
      3 C3         -0.0328   -0.7997   -1.1302 C.2       1 <0>        -0.0055
      4 C4          0.5446   -1.9750   -0.7441 C.2       1 <0>         0.1285
      5 O1          0.4239   -2.0684    0.5955 O.3       1 <0>        -0.0656
      6 N1         -0.2462   -0.9089    1.0547 N.2       1 <0>        -0.3089
      7 C5          1.1851   -2.9652   -1.6331 C.ar      1 <0>        -0.0534
      8 C6          1.2869   -2.7154   -3.0032 C.ar      1 <0>        -0.0898
      9 C7          1.8869   -3.6444   -3.8276 C.ar      1 <0>        -0.1009
     10 C8          2.3871   -4.8216   -3.2999 C.ar      1 <0>        -0.0329
     11 C9          2.2896   -5.0756   -1.9433 C.ar      1 <0>        -0.1020
     12 C10         1.6969   -4.1529   -1.1065 C.ar      1 <0>        -0.0765
     13 C11         3.0408   -5.8320   -4.2071 C.3       1 <0>        -0.0567
     14 S1          4.8170   -5.4822   -4.3214 S.3       1 <0>        -0.2821
     15 C12         5.4471   -6.7692   -5.4336 C.3       1 <0>        -0.0415
     16 C13         6.9551   -6.5892   -5.6195 C.3       1 <0>        -0.1688
     17 C14         7.4785   -7.6585   -6.5435 C.2       1 <0>         0.4986
     18 O2          6.7162   -8.4877   -7.0100 O.co2     1 <0>        -0.6966
     19 O3          8.6644   -7.6943   -6.8244 O.co2     1 <0>        -0.6964
     20 N2         -0.1234   -0.3157   -2.4450 N.am      1 <0>        -0.6245
     21 C15         0.2744    0.9401   -2.7298 C.2       1 <0>         0.6517
     22 O4          0.6135    1.6879   -1.8339 O.2       1 <0>        -0.5442
     23 O5          0.2962    1.3662   -4.0071 O.3       1 <0>        -0.3511
     24 C16         0.7288    2.7088   -4.2358 C.3       1 <0>         0.1451
     25 H1          1.4446    2.9961   -3.4656 H         1 <0>         0.1055
     26 C17        -0.4775    3.6486   -4.1870 C.3       1 <0>        -0.1657
     27 C18         1.3836    2.8018   -5.5899 C.ar      1 <0>        -0.0859
     28 C19         1.0503    1.8991   -6.5824 C.ar      1 <0>        -0.0836
     29 C20         1.6507    1.9843   -7.8245 C.ar      1 <0>        -0.1129
     30 C21         2.5849    2.9722   -8.0750 C.ar      1 <0>        -0.1015
     31 C22         2.9189    3.8752   -7.0837 C.ar      1 <0>        -0.1083
     32 C23         2.3140    3.7940   -5.8418 C.ar      1 <0>        -0.0261
     33 Cl1         2.7282    4.9320   -4.5980 Cl        1 <0>        -0.0628
     34 H2         -0.5241    1.9538    0.3223 H         1 <0>         0.0989
     35 H3         -1.6662    1.3770   -0.9151 H         1 <0>         0.0773
     36 H4         -2.0261    1.1332    0.8110 H         1 <0>         0.0799
     37 H5          0.8966   -1.7971   -3.4164 H         1 <0>         0.1307
     38 H6          1.9660   -3.4526   -4.8875 H         1 <0>         0.1362
     39 H7          2.6822   -5.9965   -1.5380 H         1 <0>         0.1363
     40 H8          1.6255   -4.3504   -0.0471 H         1 <0>         0.1363
     41 H9          2.8930   -6.8331   -3.8021 H         1 <0>         0.0926
     42 H10         2.5940   -5.7720   -5.1995 H         1 <0>         0.0923
     43 H11         5.2488   -7.7507   -5.0028 H         1 <0>         0.0803
     44 H12         4.9498   -6.6895   -6.4003 H         1 <0>         0.0802
     45 H13         7.1534   -5.6078   -6.0503 H         1 <0>         0.0669
     46 H14         7.4524   -6.6689   -4.6529 H         1 <0>         0.0671
     47 H15        -0.4724   -0.8852   -3.1485 H         1 <0>         0.4190
     48 H16        -1.1933    3.3613   -4.9571 H         1 <0>         0.0691
     49 H17        -0.9511    3.5814   -3.2075 H         1 <0>         0.0707
     50 H18        -0.1475    4.6727   -4.3614 H         1 <0>         0.0797
     51 H19         0.3209    1.1270   -6.3872 H         1 <0>         0.1390
     52 H20         1.3902    1.2786   -8.5995 H         1 <0>         0.1336
     53 H21         3.0540    3.0381   -9.0456 H         1 <0>         0.1352
     54 H22         3.6489    4.6467   -7.2794 H         1 <0>         0.1373
@<TRIPOS>BOND
     1    1    2 1
     2    1   34 1
     3    1   35 1
     4    1   36 1
     5    2    6 2
     6    2    3 1
     7    3    4 2
     8    3   20 1
     9    4    5 1
    10    4    7 1
    11    5    6 1
    12    7   12 ar
    13    7    8 ar
    14    8    9 ar
    15    8   37 1
    16    9   10 ar
    17    9   38 1
    18   10   11 ar
    19   10   13 1
    20   11   12 ar
    21   11   39 1
    22   12   40 1
    23   13   14 1
    24   13   41 1
    25   13   42 1
    26   14   15 1
    27   15   16 1
    28   15   43 1
    29   15   44 1
    30   16   17 1
    31   16   45 1
    32   16   46 1
    33   17   18 2
    34   17   19 1
    35   20   21 am
    36   20   47 1
    37   21   22 2
    38   21   23 1
    39   23   24 1
    40   24   25 1
    41   24   26 1
    42   24   27 1
    43   26   48 1
    44   26   49 1
    45   26   50 1
    46   27   32 ar
    47   27   28 ar
    48   28   29 ar
    49   28   51 1
    50   29   30 ar
    51   29   52 1
    52   30   31 ar
    53   30   53 1
    54   31   32 ar
    55   31   54 1
    56   32   33 1
@<TRIPOS>MOLECULE
ZINC13648514
   54    56     0     0     0
SMALL
USER_CHARGES

@<TRIPOS>ATOM
      1 C1         -1.2337    1.1680    0.0633 C.3       1 <0>        -0.0745
      2 C2         -0.5211   -0.1593    0.0244 C.2       1 <0>         0.1304
      3 C3         -0.0328   -0.7997   -1.1302 C.2       1 <0>        -0.0054
      4 C4          0.5446   -1.9750   -0.7441 C.2       1 <0>         0.1284
      5 O1          0.4239   -2.0684    0.5956 O.3       1 <0>        -0.0656
      6 N1         -0.2462   -0.9089    1.0547 N.2       1 <0>        -0.3088
      7 C5          1.1851   -2.9652   -1.6331 C.ar      1 <0>        -0.0533
      8 C6          1.2869   -2.7154   -3.0031 C.ar      1 <0>        -0.0899
      9 C7          1.8868   -3.6445   -3.8276 C.ar      1 <0>        -0.1011
     10 C8          2.3870   -4.8217   -3.2999 C.ar      1 <0>        -0.0329
     11 C9          2.2895   -5.0756   -1.9433 C.ar      1 <0>        -0.1020
     12 C10         1.6968   -4.1530   -1.1065 C.ar      1 <0>        -0.0765
     13 C11         3.0406   -5.8321   -4.2071 C.3       1 <0>        -0.0567
     14 S1          4.8169   -5.4823   -4.3214 S.3       1 <0>        -0.2824
     15 C12         5.4470   -6.7694   -5.4336 C.3       1 <0>        -0.0413
     16 C13         6.9549   -6.5893   -5.6195 C.3       1 <0>        -0.1689
     17 C14         7.4784   -7.6586   -6.5435 C.2       1 <0>         0.4986
     18 O2          6.7160   -8.4878   -7.0101 O.co2     1 <0>        -0.6968
     19 O3          8.6642   -7.6945   -6.8244 O.co2     1 <0>        -0.6963
     20 N2         -0.1235   -0.3158   -2.4450 N.am      1 <0>        -0.6244
     21 C15         0.2744    0.9401   -2.7298 C.2       1 <0>         0.6517
     22 O4          0.6134    1.6879   -1.8339 O.2       1 <0>        -0.5441
     23 O5          0.2961    1.3661   -4.0071 O.3       1 <0>        -0.3513
     24 C16         0.7287    2.7088   -4.2358 C.3       1 <0>         0.1457
     25 H1          0.4751    3.3242   -3.3727 H         1 <0>         0.1052
     26 C17         2.2438    2.7273   -4.4479 C.3       1 <0>        -0.1680
     27 C18         0.0432    3.2555   -5.4615 C.ar      1 <0>        -0.0839
     28 C19        -0.4204    2.3927   -6.4370 C.ar      1 <0>        -0.0834
     29 C20        -1.0492    2.8940   -7.5612 C.ar      1 <0>        -0.1138
     30 C21        -1.2149    4.2585   -7.7107 C.ar      1 <0>        -0.1033
     31 C22        -0.7520    5.1220   -6.7361 C.ar      1 <0>        -0.1091
     32 C23        -0.1275    4.6204   -5.6078 C.ar      1 <0>        -0.0264
     33 Cl1         0.4485    5.7041   -4.3799 Cl        1 <0>        -0.0619
     34 H2         -0.5241    1.9538    0.3222 H         1 <0>         0.0990
     35 H3         -1.6662    1.3770   -0.9151 H         1 <0>         0.0772
     36 H4         -2.0261    1.1332    0.8110 H         1 <0>         0.0800
     37 H5          0.8965   -1.7971   -3.4164 H         1 <0>         0.1309
     38 H6          1.9659   -3.4527   -4.8875 H         1 <0>         0.1363
     39 H7          2.6821   -5.9965   -1.5380 H         1 <0>         0.1362
     40 H8          1.6254   -4.3504   -0.0471 H         1 <0>         0.1363
     41 H9          2.8928   -6.8332   -3.8021 H         1 <0>         0.0926
     42 H10         2.5939   -5.7720   -5.1995 H         1 <0>         0.0923
     43 H11         5.2486   -7.7508   -5.0028 H         1 <0>         0.0804
     44 H12         4.9496   -6.6896   -6.4003 H         1 <0>         0.0802
     45 H13         7.1533   -5.6079   -6.0503 H         1 <0>         0.0670
     46 H14         7.4523   -6.6691   -4.6529 H         1 <0>         0.0672
     47 H15        -0.4724   -0.8852   -3.1484 H         1 <0>         0.4189
     48 H16         2.4974    2.1118   -5.3111 H         1 <0>         0.0712
     49 H17         2.5738    3.7514   -4.6224 H         1 <0>         0.0798
     50 H18         2.7397    2.3318   -3.5615 H         1 <0>         0.0725
     51 H19        -0.2909    1.3268   -6.3210 H         1 <0>         0.1401
     52 H20        -1.4109    2.2196   -8.3233 H         1 <0>         0.1330
     53 H21        -1.7060    4.6496   -8.5895 H         1 <0>         0.1342
     54 H22        -0.8812    6.1878   -6.8532 H         1 <0>         0.1368
@<TRIPOS>BOND
     1    1    2 1
     2    1   34 1
     3    1   35 1
     4    1   36 1
     5    2    6 2
     6    2    3 1
     7    3    4 2
     8    3   20 1
     9    4    5 1
    10    4    7 1
    11    5    6 1
    12    7   12 ar
    13    7    8 ar
    14    8    9 ar
    15    8   37 1
    16    9   10 ar
    17    9   38 1
    18   10   11 ar
    19   10   13 1
    20   11   12 ar
    21   11   39 1
    22   12   40 1
    23   13   14 1
    24   13   41 1
    25   13   42 1
    26   14   15 1
    27   15   16 1
    28   15   43 1
    29   15   44 1
    30   16   17 1
    31   16   45 1
    32   16   46 1
    33   17   18 2
    34   17   19 1
    35   20   21 am
    36   20   47 1
    37   21   22 2
    38   21   23 1
    39   23   24 1
    40   24   25 1
    41   24   26 1
    42   24   27 1
    43   26   48 1
    44   26   49 1
    45   26   50 1
    46   27   32 ar
    47   27   28 ar
    48   28   29 ar
    49   28   51 1
    50   29   30 ar
    51   29   52 1
    52   30   31 ar
    53   30   53 1
    54   31   32 ar
    55   31   54 1
    56   32   33 1
@<TRIPOS>MOLECULE
ZINC01210352
   41    44     0     0     0
SMALL
USER_CHARGES
2-[3-(4-nitrophenoxy)phenyl]-1,3-dioxo-isoindoline-5-carboxylic acid
@<TRIPOS>ATOM
      1 C1          3.9598   -0.0873    1.0010 C.ar      1 <0>        -0.0575
      2 C2          2.6559    0.3624    0.9190 C.ar      1 <0>        -0.1652
      3 C3          2.3933    1.6619    0.5061 C.ar      1 <0>         0.1770
      4 C4          3.4424    2.5118    0.1859 C.ar      1 <0>        -0.1639
      5 C5          4.7495    2.0590    0.2744 C.ar      1 <0>         0.1363
      6 C6          5.0059    0.7572    0.6827 C.ar      1 <0>        -0.2065
      7 O1          5.7792    2.8889   -0.0380 O.3       1 <0>        -0.2539
      8 C7          7.0433    2.3987    0.0516 C.ar      1 <0>         0.1464
      9 C8          7.7501    2.5120    1.2403 C.ar      1 <0>        -0.1258
     10 C9          9.0331    2.0081    1.3303 C.ar      1 <0>        -0.0387
     11 C10         9.6170    1.4005    0.2340 C.ar      1 <0>        -0.0480
     12 C11         8.9170    1.2913   -0.9534 C.ar      1 <0>        -0.0386
     13 C12         7.6318    1.7889   -1.0471 C.ar      1 <0>        -0.1258
     14 N1         10.9941    0.8665    0.3317 N.pl3     1 <0>         0.0280
     15 O2         11.5097    0.3314   -0.6335 O.2       1 <0>        -0.1560
     16 O3         11.6117    0.9621    1.3771 O.3       1 <0>        -0.1557
     17 N2          1.0705    2.1164    0.4183 N.am      1 <0>        -0.5241
     18 C13         0.7157    3.3557    0.0341 C.2       1 <0>         0.5820
     19 O4          1.4787    4.2442   -0.2864 O.2       1 <0>        -0.4565
     20 C14        -0.7611    3.4544    0.0671 C.ar      1 <0>        -0.1536
     21 C15        -1.6670    4.4635   -0.2186 C.ar      1 <0>        -0.0492
     22 C16        -3.0250    4.2305   -0.0838 C.ar      1 <0>        -0.0535
     23 C17        -3.4868    2.9837    0.3387 C.ar      1 <0>        -0.0832
     24 C18        -2.5794    1.9604    0.6294 C.ar      1 <0>        -0.0021
     25 C19        -1.2216    2.1898    0.4885 C.ar      1 <0>        -0.1614
     26 C20        -0.0109    1.3703    0.7065 C.2       1 <0>         0.5835
     27 O5          0.0046    0.2143    1.0787 O.2       1 <0>        -0.4514
     28 C21        -4.9394    2.7439    0.4798 C.2       1 <0>         0.4878
     29 O6         -5.3429    1.6591    0.8475 O.co2     1 <0>        -0.6161
     30 H1          4.1618   -1.0997    1.3185 H         1 <0>         0.1379
     31 H2          1.8401   -0.2984    1.1727 H         1 <0>         0.1629
     32 H3          3.2409    3.5244   -0.1312 H         1 <0>         0.1690
     33 H4          6.0243    0.4043    0.7521 H         1 <0>         0.1276
     34 H5          7.2960    2.9902    2.0956 H         1 <0>         0.1584
     35 H6          9.5820    2.0922    2.2566 H         1 <0>         0.1625
     36 H7          9.3754    0.8163   -1.8082 H         1 <0>         0.1625
     37 H8          7.0853    1.7030   -1.9747 H         1 <0>         0.1584
     38 H9         -1.3141    5.4302   -0.5463 H         1 <0>         0.1411
     39 H10        -3.7301    5.0177   -0.3064 H         1 <0>         0.1546
     40 H11        -2.9360    0.9950    0.9568 H         1 <0>         0.1495
     41 O7         -5.8148    3.7288    0.2006 O.co2     1 <0>        -0.7387
@<TRIPOS>BOND
     1    1    6 ar
     2    1    2 ar
     3    1   30 1
     4    2    3 ar
     5    2   31 1
     6    3    4 ar
     7    3   17 1
     8    4    5 ar
     9    4   32 1
    10    5    6 ar
    11    5    7 1
    12    6   33 1
    13    7    8 1
    14    8   13 ar
    15    8    9 ar
    16    9   10 ar
    17    9   34 1
    18   10   11 ar
    19   10   35 1
    20   11   12 ar
    21   11   14 1
    22   12   13 ar
    23   12   36 1
    24   13   37 1
    25   14   15 2
    26   14   16 1
    27   17   26 am
    28   17   18 am
    29   18   19 2
    30   18   20 1
    31   20   25 ar
    32   20   21 ar
    33   21   22 ar
    34   21   38 1
    35   22   23 ar
    36   22   39 1
    37   23   24 ar
    38   23   28 1
    39   24   25 ar
    40   24   40 1
    41   25   26 1
    42   26   27 2
    43   28   29 2
    44   28   41 1
@<TRIPOS>MOLECULE
ZINC00205636
   35    37     0     0     0
SMALL
USER_CHARGES
2-[5-(4-methylphenoxy)-1,3-dioxo-isoindolin-2-yl]acetic acid
@<TRIPOS>ATOM
      1 C1         -5.7606    1.5426   -4.4699 C.3       1 <0>        -0.1112
      2 C2         -4.8596    1.4152   -3.2687 C.ar      1 <0>        -0.1181
      3 C3         -5.2771    0.6924   -2.1663 C.ar      1 <0>        -0.0856
      4 C4         -4.4530    0.5737   -1.0641 C.ar      1 <0>        -0.1383
      5 C5         -3.2051    1.1806   -1.0638 C.ar      1 <0>         0.1128
      6 C6         -2.7909    1.9102   -2.1691 C.ar      1 <0>        -0.1876
      7 C7         -3.6166    2.0210   -3.2709 C.ar      1 <0>        -0.0801
      8 O1         -2.3925    1.0654    0.0191 O.3       1 <0>        -0.2518
      9 C8         -1.2375    1.7777    0.0276 C.ar      1 <0>         0.1045
     10 C9         -1.2808    3.1632    0.1077 C.ar      1 <0>        -0.1223
     11 C10        -0.1111    3.9012    0.1120 C.ar      1 <0>        -0.0319
     12 C11         1.1139    3.2529    0.0404 C.ar      1 <0>        -0.1294
     13 C12         1.1613    1.8450   -0.0365 C.ar      1 <0>        -0.1099
     14 C13        -0.0138    1.1149   -0.0396 C.ar      1 <0>        -0.0528
     15 C14         2.5957    1.4920   -0.0986 C.2       1 <0>         0.5780
     16 O2          3.0469    0.3669   -0.1725 O.2       1 <0>        -0.4609
     17 N1          3.3171    2.6268   -0.0595 N.am      1 <0>        -0.5451
     18 C15         2.5182    3.7058    0.0224 C.2       1 <0>         0.5769
     19 O3          2.8908    4.8610    0.0734 O.2       1 <0>        -0.4633
     20 C16         4.7805    2.6804   -0.1012 C.3       1 <0>         0.0649
     21 C17         5.2392    2.7751   -1.5335 C.2       1 <0>         0.4561
     22 O4          4.4270    2.7957   -2.4278 O.co2     1 <0>        -0.6263
     23 H1         -6.3921    2.4240   -4.3586 H         1 <0>         0.0685
     24 H2         -5.1541    1.6415   -5.3702 H         1 <0>         0.0660
     25 H3         -6.3873    0.6544   -4.5498 H         1 <0>         0.0652
     26 H4         -6.2483    0.2199   -2.1672 H         1 <0>         0.1303
     27 H5         -4.7794    0.0087   -0.2035 H         1 <0>         0.1333
     28 H6         -1.8222    2.3876   -2.1695 H         1 <0>         0.1322
     29 H7         -3.2929    2.5850   -4.1332 H         1 <0>         0.1277
     30 H8         -2.2339    3.6680    0.1634 H         1 <0>         0.1465
     31 H9         -0.1508    4.9788    0.1713 H         1 <0>         0.1499
     32 H10         0.0172    0.0369   -0.0983 H         1 <0>         0.1511
     33 H11         5.1279    3.5543    0.4501 H         1 <0>         0.1028
     34 H12         5.1902    1.7781    0.3526 H         1 <0>         0.1025
     35 O5          6.5500    2.8366   -1.8159 O.co2     1 <0>        -0.7547
@<TRIPOS>BOND
     1    1    2 1
     2    1   23 1
     3    1   24 1
     4    1   25 1
     5    2    7 ar
     6    2    3 ar
     7    3    4 ar
     8    3   26 1
     9    4    5 ar
    10    4   27 1
    11    5    6 ar
    12    5    8 1
    13    6    7 ar
    14    6   28 1
    15    7   29 1
    16    8    9 1
    17    9   14 ar
    18    9   10 ar
    19   10   11 ar
    20   10   30 1
    21   11   12 ar
    22   11   31 1
    23   12   18 1
    24   12   13 ar
    25   13   14 ar
    26   13   15 1
    27   14   32 1
    28   15   16 2
    29   15   17 am
    30   17   18 am
    31   17   20 1
    32   18   19 2
    33   20   21 1
    34   20   33 1
    35   20   34 1
    36   21   22 2
    37   21   35 1
