@<TRIPOS>MOLECULE
ZINC20326109
   55    57     0     0     0
SMALL
USER_CHARGES

@<TRIPOS>ATOM
      1 C1          3.4953    1.6272   -1.3254 C.3       1 <0>        -0.0771
      2 C2          2.9309    0.2379   -1.1759 C.2       1 <0>         0.1256
      3 N1          2.7662   -0.6600   -2.1030 N.2       1 <0>        -0.5262
      4 C3          2.2469   -1.8771   -1.8407 C.ar      1 <0>         0.1427
      5 C4          1.9985   -2.9614   -2.7081 C.ar      1 <0>        -0.0803
      6 C5          1.4601   -4.1181   -2.2336 C.ar      1 <0>        -0.0102
      7 C6          1.1382   -4.2740   -0.8924 C.ar      1 <0>        -0.6693
      8 C7          1.3676   -3.2337   -0.0115 C.ar      1 <0>         0.0502
      9 C8          1.9106   -2.0622   -0.4805 C.ar      1 <0>        -0.2023
     10 S1          2.3780   -0.5054    0.2293 S.3       1 <0>         0.1082
     11 S2          0.4417   -5.7867   -0.3171 S.o2      1 <0>         2.6960
     12 O1         -0.2718   -5.4788    0.8727 O.2       1 <0>        -0.9451
     13 O2         -0.1771   -6.4015   -1.4389 O.2       1 <0>        -0.9447
     14 N2          1.7000   -6.7678    0.1261 N.pl3     1 <0>        -1.0893
     15 C9          2.5394   -6.4099    1.2722 C.3       1 <0>         0.1395
     16 H1          2.1287   -5.5268    1.7617 H         1 <0>         0.1130
     17 C10         2.5716   -7.5743    2.2642 C.3       1 <0>        -0.0937
     18 C11         1.1538   -7.8572    2.7648 C.3       1 <0>        -0.1510
     19 C12         3.1255   -8.8203    1.5702 C.3       1 <0>        -0.1524
     20 C13         3.9390   -6.1157    0.7973 C.2       1 <0>         0.5012
     21 O3          4.2919   -6.4712   -0.3072 O.2       1 <0>        -0.5188
     22 N3          4.7986   -5.4575    1.6000 N.am      1 <0>        -0.7257
     23 C14         6.1215   -5.0752    1.0998 C.3       1 <0>         0.1676
     24 C15         6.8807   -4.3569    2.1855 C.ar      1 <0>        -0.1512
     25 C16         6.7783   -2.9834    2.3064 C.ar      1 <0>        -0.0590
     26 C17         7.4736   -2.3225    3.3004 C.ar      1 <0>        -0.1527
     27 C18         8.2748   -3.0383    4.1782 C.ar      1 <0>         0.1384
     28 C19         8.3755   -4.4165    4.0551 C.ar      1 <0>        -0.2098
     29 C20         7.6740   -5.0732    3.0626 C.ar      1 <0>        -0.0570
     30 O4          8.9602   -2.3905    5.1567 O.3       1 <0>        -0.3161
     31 C21         9.7653   -3.1914    6.0241 C.3       1 <0>         0.0256
     32 H2          4.5755    1.5978   -1.1827 H         1 <0>         0.1000
     33 H3          3.2707    2.0052   -2.3228 H         1 <0>         0.1000
     34 H4          3.0478    2.2834   -0.5789 H         1 <0>         0.0945
     35 H5          2.2371   -2.8729   -3.7577 H         1 <0>         0.1441
     36 H6          1.2787   -4.9342   -2.9174 H         1 <0>         0.1511
     37 H7          1.1224   -3.3409    1.0348 H         1 <0>         0.1499
     38 H8          1.8812   -7.5795   -0.3731 H         1 <0>         0.4280
     39 H9          3.2100   -7.3146    3.1086 H         1 <0>         0.0885
     40 H10         0.5411   -8.2156    1.9376 H         1 <0>         0.0593
     41 H11         1.1891   -8.6162    3.5463 H         1 <0>         0.0637
     42 H12         0.7210   -6.9412    3.1671 H         1 <0>         0.0673
     43 H13         4.1636   -8.6470    1.2866 H         1 <0>         0.0579
     44 H14         3.0719   -9.6696    2.2513 H         1 <0>         0.0648
     45 H15         2.5357   -9.0319    0.6784 H         1 <0>         0.0611
     46 H16         4.5414   -5.2368    2.5089 H         1 <0>         0.4027
     47 H17         6.6701   -5.9692    0.8033 H         1 <0>         0.0779
     48 H18         6.0080   -4.4163    0.2390 H         1 <0>         0.0742
     49 H19         6.1545   -2.4266    1.6228 H         1 <0>         0.1290
     50 H20         7.3939   -1.2496    3.3940 H         1 <0>         0.1336
     51 H21         8.9985   -4.9759    4.7372 H         1 <0>         0.1311
     52 H22         7.7486   -6.1466    2.9691 H         1 <0>         0.1276
     53 H23        10.2566   -2.5517    6.7572 H         1 <0>         0.1028
     54 H24         9.1346   -3.9161    6.5389 H         1 <0>         0.0574
     55 H25        10.5188   -3.7172    5.4377 H         1 <0>         0.0573
@<TRIPOS>BOND
     1    1    2 1
     2    1   32 1
     3    1   33 1
     4    1   34 1
     5    2   10 1
     6    2    3 2
     7    3    4 1
     8    4    9 ar
     9    4    5 ar
    10    5    6 ar
    11    5   35 1
    12    6    7 ar
    13    6   36 1
    14    7    8 ar
    15    7   11 1
    16    8    9 ar
    17    8   37 1
    18    9   10 1
    19   11   12 2
    20   11   13 2
    21   11   14 1
    22   14   15 1
    23   14   38 1
    24   15   16 1
    25   15   17 1
    26   15   20 1
    27   17   18 1
    28   17   19 1
    29   17   39 1
    30   18   40 1
    31   18   41 1
    32   18   42 1
    33   19   43 1
    34   19   44 1
    35   19   45 1
    36   20   21 2
    37   20   22 am
    38   22   23 1
    39   22   46 1
    40   23   24 1
    41   23   47 1
    42   23   48 1
    43   24   29 ar
    44   24   25 ar
    45   25   26 ar
    46   25   49 1
    47   26   27 ar
    48   26   50 1
    49   27   28 ar
    50   27   30 1
    51   28   29 ar
    52   28   51 1
    53   29   52 1
    54   30   31 1
    55   31   53 1
    56   31   54 1
    57   31   55 1
@<TRIPOS>MOLECULE
ZINC20326116
   55    57     0     0     0
SMALL
USER_CHARGES

@<TRIPOS>ATOM
      1 C1         -2.7476   -1.8934    5.8600 C.3       1 <0>        -0.0775
      2 C2         -2.2218   -2.9361    4.9074 C.2       1 <0>         0.1265
      3 N1         -2.4598   -3.0443    3.6329 N.2       1 <0>        -0.5274
      4 C3         -1.9246   -4.0296    2.8829 C.ar      1 <0>         0.1430
      5 C4         -2.0699   -4.2998    1.5061 C.ar      1 <0>        -0.0803
      6 C5         -1.4346   -5.3614    0.9382 C.ar      1 <0>        -0.0138
      7 C6         -0.6279   -6.2100    1.6838 C.ar      1 <0>        -0.6702
      8 C7         -0.4608   -5.9772    3.0360 C.ar      1 <0>         0.0519
      9 C8         -1.0976   -4.9084    3.6186 C.ar      1 <0>        -0.2034
     10 S1         -1.1882   -4.2193    5.2504 S.3       1 <0>         0.1106
     11 S2          0.1767   -7.5744    0.9122 S.o2      1 <0>         2.6953
     12 O1          0.5458   -8.4695    1.9523 O.2       1 <0>        -0.9426
     13 O2         -0.6473   -7.9694   -0.1761 O.2       1 <0>        -0.9450
     14 N2          1.5863   -7.0044    0.2559 N.pl3     1 <0>        -1.0898
     15 C9          2.6261   -6.4474    1.1247 C.3       1 <0>         0.1421
     16 H1          2.1691   -6.0571    2.0341 H         1 <0>         0.1038
     17 C10         3.3510   -5.3166    0.3922 C.3       1 <0>        -0.0920
     18 C11         3.9319   -5.8486   -0.9194 C.3       1 <0>        -0.1543
     19 C12         2.3628   -4.1878    0.0917 C.3       1 <0>        -0.1506
     20 C13         3.6135   -7.5281    1.4827 C.2       1 <0>         0.5019
     21 O3          3.6185   -8.5731    0.8672 O.2       1 <0>        -0.5142
     22 N3          4.4910   -7.3334    2.4870 N.am      1 <0>        -0.7262
     23 C14         5.5249   -8.3346    2.7608 C.3       1 <0>         0.1662
     24 C15         6.3687   -7.8802    3.9239 C.ar      1 <0>        -0.1500
     25 C16         7.4938   -7.1083    3.7003 C.ar      1 <0>        -0.0593
     26 C17         8.2692   -6.6909    4.7646 C.ar      1 <0>        -0.1540
     27 C18         7.9179   -7.0465    6.0588 C.ar      1 <0>         0.1367
     28 C19         6.7882   -7.8207    6.2805 C.ar      1 <0>        -0.2102
     29 C20         6.0132   -8.2312    5.2131 C.ar      1 <0>        -0.0579
     30 O4          8.6793   -6.6375    7.1075 O.3       1 <0>        -0.3166
     31 C21         8.2575   -7.0410    8.4118 C.3       1 <0>         0.0257
     32 H2         -2.0641   -1.0447    5.8831 H         1 <0>         0.1004
     33 H3         -3.7303   -1.5596    5.5270 H         1 <0>         0.1003
     34 H4         -2.8286   -2.3219    6.8590 H         1 <0>         0.0946
     35 H5         -2.6907   -3.6592    0.8973 H         1 <0>         0.1445
     36 H6         -1.5616   -5.5481   -0.1179 H         1 <0>         0.1505
     37 H7          0.1642   -6.6289    3.6285 H         1 <0>         0.1520
     38 H8          1.7234   -7.0392   -0.7037 H         1 <0>         0.4263
     39 H9          4.1576   -4.9361    1.0189 H         1 <0>         0.0909
     40 H10         3.1194   -6.1437   -1.5834 H         1 <0>         0.0611
     41 H11         4.5259   -5.0690   -1.3964 H         1 <0>         0.0654
     42 H12         4.5642   -6.7121   -0.7130 H         1 <0>         0.0625
     43 H13         2.0095   -3.7554    1.0278 H         1 <0>         0.0571
     44 H14         2.8591   -3.4183   -0.4996 H         1 <0>         0.0659
     45 H15         1.5158   -4.5857   -0.4672 H         1 <0>         0.0627
     46 H16         4.4381   -6.5303    3.0284 H         1 <0>         0.4008
     47 H17         5.0532   -9.2867    3.0042 H         1 <0>         0.0787
     48 H18         6.1554   -8.4561    1.8801 H         1 <0>         0.0770
     49 H19         7.7669   -6.8318    2.6926 H         1 <0>         0.1318
     50 H20         9.1483   -6.0886    4.5894 H         1 <0>         0.1333
     51 H21         6.5127   -8.0988    7.2871 H         1 <0>         0.1306
     52 H22         5.1313   -8.8302    5.3855 H         1 <0>         0.1284
     53 H23         8.9510   -6.6486    9.1556 H         1 <0>         0.1023
     54 H24         7.2578   -6.6527    8.6067 H         1 <0>         0.0569
     55 H25         8.2419   -8.1294    8.4681 H         1 <0>         0.0573
@<TRIPOS>BOND
     1    1    2 1
     2    1   32 1
     3    1   33 1
     4    1   34 1
     5    2   10 1
     6    2    3 2
     7    3    4 1
     8    4    9 ar
     9    4    5 ar
    10    5    6 ar
    11    5   35 1
    12    6    7 ar
    13    6   36 1
    14    7    8 ar
    15    7   11 1
    16    8    9 ar
    17    8   37 1
    18    9   10 1
    19   11   12 2
    20   11   13 2
    21   11   14 1
    22   14   15 1
    23   14   38 1
    24   15   16 1
    25   15   17 1
    26   15   20 1
    27   17   18 1
    28   17   19 1
    29   17   39 1
    30   18   40 1
    31   18   41 1
    32   18   42 1
    33   19   43 1
    34   19   44 1
    35   19   45 1
    36   20   21 2
    37   20   22 am
    38   22   23 1
    39   22   46 1
    40   23   24 1
    41   23   47 1
    42   23   48 1
    43   24   29 ar
    44   24   25 ar
    45   25   26 ar
    46   25   49 1
    47   26   27 ar
    48   26   50 1
    49   27   28 ar
    50   27   30 1
    51   28   29 ar
    52   28   51 1
    53   29   52 1
    54   30   31 1
    55   31   53 1
    56   31   54 1
    57   31   55 1
@<TRIPOS>MOLECULE
ZINC01061342
   37    39     0     0     0
SMALL
USER_CHARGES

@<TRIPOS>ATOM
      1 C1         -0.0003    1.3555   -0.3312 C.ar      1 <0>        -0.0795
      2 C2          1.1812    2.0668   -0.3153 C.ar      1 <0>        -0.0292
      3 C3          2.3619    1.4453    0.0517 C.ar      1 <0>        -0.6337
      4 C4          2.3663    0.1074    0.4055 C.ar      1 <0>        -0.0310
      5 C5          1.1920   -0.6160    0.3945 C.ar      1 <0>        -0.1034
      6 C6         -0.0034    0.0049    0.0247 C.ar      1 <0>        -0.1051
      7 C7         -1.2653   -0.7636    0.0105 C.2       1 <0>         0.4360
      8 O1         -2.2770   -0.2625   -0.4402 O.2       1 <0>        -0.4264
      9 C8         -1.2976   -2.1403    0.5440 C.ar      1 <0>        -0.1563
     10 C9         -0.4936   -2.4901    1.6319 C.ar      1 <0>        -0.0746
     11 C10        -0.5282   -3.7769    2.1251 C.ar      1 <0>        -0.1173
     12 C11        -1.3577   -4.7225    1.5442 C.ar      1 <0>        -0.0081
     13 C12        -2.1573   -4.3820    0.4653 C.ar      1 <0>        -0.1157
     14 C13        -2.1365   -3.0969   -0.0334 C.ar      1 <0>        -0.0501
     15 Cl1        -1.3947   -6.3412    2.1706 Cl        1 <0>        -0.0551
     16 S1          3.8669    2.3615    0.0680 S.o2      1 <0>         2.5809
     17 O2          4.9187    1.4174   -0.0794 O.2       1 <0>        -0.9265
     18 O3          3.6893    3.4502   -0.8277 O.2       1 <0>        -0.9264
     19 C14         4.0362    3.0566    1.6783 C.ar      1 <0>        -0.6601
     20 C15         3.5067    4.3040    1.9515 C.ar      1 <0>        -0.0073
     21 C16         3.6391    4.8498    3.2144 C.ar      1 <0>        -0.1298
     22 C17         4.3019    4.1474    4.2052 C.ar      1 <0>         0.0191
     23 C18         4.8316    2.8991    3.9311 C.ar      1 <0>        -0.1301
     24 C19         4.6936    2.3519    2.6694 C.ar      1 <0>        -0.0075
     25 Cl2         4.4691    4.8325    5.7915 Cl        1 <0>        -0.0491
     26 H1         -0.9217    1.8428   -0.6139 H         1 <0>         0.1485
     27 H2          1.1851    3.1112   -0.5903 H         1 <0>         0.1525
     28 H3          3.2914   -0.3715    0.6906 H         1 <0>         0.1524
     29 H4          1.1968   -1.6601    0.6705 H         1 <0>         0.1516
     30 H5          0.1540   -1.7541    2.0851 H         1 <0>         0.1462
     31 H6          0.0927   -4.0486    2.9659 H         1 <0>         0.1444
     32 H7         -2.8015   -5.1237    0.0167 H         1 <0>         0.1441
     33 H8         -2.7636   -2.8314   -0.8716 H         1 <0>         0.1434
     34 H9          2.9896    4.8523    1.1779 H         1 <0>         0.1537
     35 H10         3.2257    5.8244    3.4276 H         1 <0>         0.1476
     36 H11         5.3493    2.3505    4.7041 H         1 <0>         0.1476
     37 H12         5.1029    1.3754    2.4567 H         1 <0>         0.1538
@<TRIPOS>BOND
     1    1    6 ar
     2    1    2 ar
     3    1   26 1
     4    2    3 ar
     5    2   27 1
     6    3    4 ar
     7    3   16 1
     8    4    5 ar
     9    4   28 1
    10    5    6 ar
    11    5   29 1
    12    6    7 1
    13    7    8 2
    14    7    9 1
    15    9   14 ar
    16    9   10 ar
    17   10   11 ar
    18   10   30 1
    19   11   12 ar
    20   11   31 1
    21   12   13 ar
    22   12   15 1
    23   13   14 ar
    24   13   32 1
    25   14   33 1
    26   16   17 2
    27   16   18 2
    28   16   19 1
    29   19   24 ar
    30   19   20 ar
    31   20   21 ar
    32   20   34 1
    33   21   22 ar
    34   21   35 1
    35   22   23 ar
    36   22   25 1
    37   23   24 ar
    38   23   36 1
    39   24   37 1
@<TRIPOS>MOLECULE
ZINC00141234
   52    54     0     0     0
SMALL
USER_CHARGES

@<TRIPOS>ATOM
      1 C1         -1.1196    0.9526   -0.4071 C.3       1 <0>        -0.1426
      2 C2          0.0021   -0.0041    0.0020 C.3       1 <0>         0.0199
      3 C3          0.9880    0.7270    0.9155 C.3       1 <0>        -0.1417
      4 C4         -0.5850   -1.1816    0.7367 C.ar      1 <0>        -0.0683
      5 C5          0.2251   -2.2383    1.1081 C.ar      1 <0>        -0.1084
      6 C6         -0.3134   -3.3185    1.7820 C.ar      1 <0>        -0.1187
      7 C7         -1.6620   -3.3417    2.0849 C.ar      1 <0>        -0.1236
      8 C8         -2.4719   -2.2846    1.7143 C.ar      1 <0>        -0.1190
      9 C9         -1.9326   -1.2025    1.0441 C.ar      1 <0>        -0.1211
     10 C10         0.7229   -0.4889   -1.2294 C.ar      1 <0>        -0.1031
     11 C11         0.0371   -1.2036   -2.1941 C.ar      1 <0>        -0.0665
     12 C12         0.6957   -1.6495   -3.3236 C.ar      1 <0>        -0.1434
     13 C13         2.0463   -1.3792   -3.4897 C.ar      1 <0>         0.1251
     14 C14         2.7320   -0.6615   -2.5206 C.ar      1 <0>        -0.2087
     15 C15         2.0677   -0.2133   -1.3953 C.ar      1 <0>        -0.0793
     16 O1          2.6966   -1.8172   -4.5998 O.3       1 <0>        -0.2899
     17 C16         4.0865   -1.5022   -4.7041 C.3       1 <0>         0.0415
     18 C17         4.6340   -2.0649   -5.9904 C.2       1 <0>         0.5150
     19 O2          3.9055   -2.6756   -6.7437 O.2       1 <0>        -0.5120
     20 N1          5.9330   -1.8896   -6.3037 N.am      1 <0>        -0.7227
     21 C18         6.4652   -2.4367   -7.5542 C.3       1 <0>         0.1407
     22 C19         6.9385   -3.8887   -7.3367 C.3       1 <0>        -0.1361
     23 C20         8.2096   -4.0093   -8.2135 C.3       1 <0>        -0.1254
     24 C21         8.8815   -2.6253   -8.0337 C.3       1 <0>        -0.1250
     25 C22         7.7006   -1.6334   -7.9974 C.3       1 <0>        -0.1316
     26 H1         -0.6950    1.8043   -0.9385 H         1 <0>         0.0613
     27 H2         -1.8220    0.4318   -1.0579 H         1 <0>         0.0612
     28 H3         -1.6410    1.3033    0.4836 H         1 <0>         0.0634
     29 H4          0.4666    1.0776    1.8062 H         1 <0>         0.0614
     30 H5          1.7871    0.0454    1.2070 H         1 <0>         0.0606
     31 H6          1.4126    1.5787    0.3841 H         1 <0>         0.0634
     32 H7          1.2787   -2.2202    0.8715 H         1 <0>         0.1182
     33 H8          0.3194   -4.1444    2.0715 H         1 <0>         0.1201
     34 H9         -2.0829   -4.1860    2.6107 H         1 <0>         0.1200
     35 H10        -3.5256   -2.3029    1.9506 H         1 <0>         0.1211
     36 H11        -2.5647   -0.3749    0.7579 H         1 <0>         0.1265
     37 H12        -1.0142   -1.4137   -2.0643 H         1 <0>         0.1277
     38 H13         0.1598   -2.2083   -4.0765 H         1 <0>         0.1321
     39 H14         3.7835   -0.4499   -2.6476 H         1 <0>         0.1266
     40 H15         2.6000    0.3492   -0.6426 H         1 <0>         0.1306
     41 H16         4.2153   -0.4199   -4.6971 H         1 <0>         0.0931
     42 H17         4.6219   -1.9373   -3.8602 H         1 <0>         0.0929
     43 H18         6.5156   -1.4013   -5.7012 H         1 <0>         0.4011
     44 H19         5.7008   -2.4047   -8.3306 H         1 <0>         0.0939
     45 H20         7.1813   -4.0577   -6.2876 H         1 <0>         0.0703
     46 H21         6.1763   -4.5926   -7.6709 H         1 <0>         0.0724
     47 H22         8.8584   -4.8043   -7.8460 H         1 <0>         0.0703
     48 H23         7.9444   -4.1772   -9.2573 H         1 <0>         0.0707
     49 H24         9.4380   -2.5903   -7.0972 H         1 <0>         0.0675
     50 H25         9.5372   -2.4072   -8.8766 H         1 <0>         0.0700
     51 H26         7.5360   -1.2123   -8.9892 H         1 <0>         0.0770
     52 H27         7.9041   -0.8366   -7.2821 H         1 <0>         0.0718
@<TRIPOS>BOND
     1    1    2 1
     2    1   26 1
     3    1   27 1
     4    1   28 1
     5    2    3 1
     6    2    4 1
     7    2   10 1
     8    3   29 1
     9    3   30 1
    10    3   31 1
    11    4    9 ar
    12    4    5 ar
    13    5    6 ar
    14    5   32 1
    15    6    7 ar
    16    6   33 1
    17    7    8 ar
    18    7   34 1
    19    8    9 ar
    20    8   35 1
    21    9   36 1
    22   10   15 ar
    23   10   11 ar
    24   11   12 ar
    25   11   37 1
    26   12   13 ar
    27   12   38 1
    28   13   14 ar
    29   13   16 1
    30   14   15 ar
    31   14   39 1
    32   15   40 1
    33   16   17 1
    34   17   18 1
    35   17   41 1
    36   17   42 1
    37   18   19 2
    38   18   20 am
    39   20   21 1
    40   20   43 1
    41   21   25 1
    42   21   22 1
    43   21   44 1
    44   22   23 1
    45   22   45 1
    46   22   46 1
    47   23   24 1
    48   23   47 1
    49   23   48 1
    50   24   25 1
    51   24   49 1
    52   24   50 1
    53   25   51 1
    54   25   52 1
