@<TRIPOS>MOLECULE
ZINC04262457
   63    67     0     0     0
SMALL
USER_CHARGES

@<TRIPOS>ATOM
      1 C1          0.7786    0.2079   -0.9938 C.ar      1 <0>        -0.0710
      2 C2          2.0661    0.6982   -0.8839 C.ar      1 <0>        -0.1000
      3 C3          2.6868    0.7405    0.3519 C.ar      1 <0>        -0.0163
      4 C4          2.0182    0.2918    1.4769 C.ar      1 <0>        -0.1017
      5 C5          0.7307   -0.1984    1.3658 C.ar      1 <0>        -0.0961
      6 C6          0.1110   -0.2404    0.1307 C.ar      1 <0>        -0.1253
      7 C7         -1.2928   -0.7750    0.0102 C.3       1 <0>         0.2293
      8 C8         -1.4296   -1.5409   -1.2804 C.ar      1 <0>        -0.1329
      9 C9         -0.5434   -2.5598   -1.5763 C.ar      1 <0>        -0.0805
     10 C10        -0.6683   -3.2627   -2.7598 C.ar      1 <0>        -0.1055
     11 C11        -1.6807   -2.9467   -3.6482 C.ar      1 <0>        -0.0110
     12 C12        -2.5676   -1.9272   -3.3513 C.ar      1 <0>        -0.1055
     13 C13        -2.4446   -1.2282   -2.1652 C.ar      1 <0>        -0.0760
     14 Cl1        -1.8379   -3.8287   -5.1352 Cl        1 <0>        -0.0426
     15 N1         -1.5748   -1.6654    1.1388 N.pl3     1 <0>        -0.3999
     16 C14        -0.8949   -2.8089    1.4608 C.2       1 <0>         0.0274
     17 C15        -1.4812   -3.3135    2.5632 C.2       1 <0>         0.0182
     18 N2         -2.4916   -2.5003    2.9049 N.pl3     1 <0>        -0.3683
     19 C16        -2.5505   -1.5083    2.0591 C.cat     1 <0>         0.2732
     20 C17        -3.3846   -2.6925    4.0503 C.3       1 <0>         0.0915
     21 C18        -2.7982   -1.9917    5.2774 C.3       1 <0>         0.1202
     22 H1         -2.6116   -0.9438    5.0428 H         1 <0>         0.0947
     23 C19        -3.7734   -2.0842    6.4226 C.ar      1 <0>        -0.1273
     24 C20        -3.6483   -3.0954    7.3569 C.ar      1 <0>        -0.0612
     25 C21        -4.5423   -3.1808    8.4073 C.ar      1 <0>        -0.1019
     26 C22        -5.5630   -2.2538    8.5247 C.ar      1 <0>        -0.0087
     27 C23        -5.6883   -1.2416    7.5906 C.ar      1 <0>        -0.0994
     28 C24        -4.7902   -1.1538    6.5418 C.ar      1 <0>        -0.0132
     29 Cl2        -4.9431    0.1199    5.3722 Cl        1 <0>        -0.0548
     30 Cl3        -6.6862   -2.3617    9.8440 Cl        1 <0>        -0.0353
     31 O1         -1.5703   -2.6235    5.6452 O.3       1 <0>        -0.3672
     32 C25        -0.6276   -1.7456    6.2640 C.3       1 <0>         0.1060
     33 C26         0.6229   -2.5132    6.6079 C.ar      1 <0>        -0.0847
     34 C27         0.7120   -3.8596    6.3072 C.ar      1 <0>        -0.0762
     35 C28         1.8584   -4.5641    6.6223 C.ar      1 <0>        -0.1037
     36 C29         2.9180   -3.9220    7.2387 C.ar      1 <0>        -0.0199
     37 C30         2.8296   -2.5749    7.5394 C.ar      1 <0>        -0.0967
     38 C31         1.6835   -1.8690    7.2193 C.ar      1 <0>        -0.0209
     39 Cl4         1.5740   -0.1768    7.5908 Cl        1 <0>        -0.0478
     40 Cl5         4.3577   -4.8074    7.6349 Cl        1 <0>        -0.0431
     41 Cl6         4.3042    1.3557    0.4906 Cl        1 <0>        -0.0442
     42 H2          0.2923    0.1790   -1.9577 H         1 <0>         0.1408
     43 H3          2.5877    1.0480   -1.7625 H         1 <0>         0.1457
     44 H4          2.5024    0.3242    2.4418 H         1 <0>         0.1412
     45 H5          0.2088   -0.5490    2.2439 H         1 <0>         0.1224
     46 H6         -1.9994    0.0549    0.0168 H         1 <0>         0.1442
     47 H7          0.2469   -2.8064   -0.8828 H         1 <0>         0.1322
     48 H8          0.0245   -4.0583   -2.9912 H         1 <0>         0.1446
     49 H9         -3.3579   -1.6799   -4.0445 H         1 <0>         0.1459
     50 H10        -3.1393   -0.4351   -1.9314 H         1 <0>         0.1407
     51 H11        -0.0506   -3.2264    0.9322 H         1 <0>         0.2166
     52 H12        -1.1890   -4.2150    3.0812 H         1 <0>         0.2212
     53 H13        -3.2632   -0.6973    2.0888 H         1 <0>         0.2530
     54 H14        -4.3630   -2.2692    3.8231 H         1 <0>         0.1376
     55 H15        -3.4884   -3.7580    4.2553 H         1 <0>         0.1422
     56 H16        -2.8519   -3.8191    7.2656 H         1 <0>         0.1530
     57 H17        -4.4445   -3.9715    9.1365 H         1 <0>         0.1490
     58 H18        -6.4848   -0.5179    7.6818 H         1 <0>         0.1526
     59 H19        -0.3798   -0.9363    5.5773 H         1 <0>         0.0727
     60 H20        -1.0608   -1.3303    7.1739 H         1 <0>         0.0809
     61 H21        -0.1147   -4.3611    5.8262 H         1 <0>         0.1478
     62 H22         1.9272   -5.6161    6.3878 H         1 <0>         0.1444
     63 H23         3.6563   -2.0734    8.0204 H         1 <0>         0.1499
@<TRIPOS>BOND
     1    1    6 ar
     2    1    2 ar
     3    1   42 1
     4    2    3 ar
     5    2   43 1
     6    3    4 ar
     7    3   41 1
     8    4    5 ar
     9    4   44 1
    10    5    6 ar
    11    5   45 1
    12    6    7 1
    13    7    8 1
    14    7   15 1
    15    7   46 1
    16    8   13 ar
    17    8    9 ar
    18    9   10 ar
    19    9   47 1
    20   10   11 ar
    21   10   48 1
    22   11   12 ar
    23   11   14 1
    24   12   13 ar
    25   12   49 1
    26   13   50 1
    27   15   19 1
    28   15   16 1
    29   16   17 2
    30   16   51 1
    31   17   18 1
    32   17   52 1
    33   18   19 2
    34   18   20 1
    35   19   53 1
    36   20   21 1
    37   20   54 1
    38   20   55 1
    39   21   22 1
    40   21   23 1
    41   21   31 1
    42   23   28 ar
    43   23   24 ar
    44   24   25 ar
    45   24   56 1
    46   25   26 ar
    47   25   57 1
    48   26   27 ar
    49   26   30 1
    50   27   28 ar
    51   27   58 1
    52   28   29 1
    53   31   32 1
    54   32   33 1
    55   32   59 1
    56   32   60 1
    57   33   38 ar
    58   33   34 ar
    59   34   35 ar
    60   34   61 1
    61   35   36 ar
    62   35   62 1
    63   36   37 ar
    64   36   40 1
    65   37   38 ar
    66   37   63 1
    67   38   39 1
@<TRIPOS>MOLECULE
ZINC04262457
   63    67     0     0     0
SMALL
USER_CHARGES

@<TRIPOS>ATOM
      1 C1          0.7993    0.2046   -0.9532 C.ar      1 <0>        -0.0698
      2 C2          2.0965    0.6635   -0.8236 C.ar      1 <0>        -0.1003
      3 C3          2.7168    0.6434    0.4130 C.ar      1 <0>        -0.0151
      4 C4          2.0380    0.1637    1.5190 C.ar      1 <0>        -0.1015
      5 C5          0.7408   -0.2950    1.3881 C.ar      1 <0>        -0.0954
      6 C6          0.1216   -0.2746    0.1523 C.ar      1 <0>        -0.1269
      7 C7         -1.2928   -0.7750    0.0102 C.3       1 <0>         0.2205
      8 C8         -1.4606   -1.4314   -1.3359 C.ar      1 <0>        -0.1355
      9 C9         -2.4807   -1.0299   -2.1781 C.ar      1 <0>        -0.0754
     10 C10        -2.6351   -1.6316   -3.4128 C.ar      1 <0>        -0.1058
     11 C11        -1.7682   -2.6356   -3.8059 C.ar      1 <0>        -0.0101
     12 C12        -0.7472   -3.0367   -2.9628 C.ar      1 <0>        -0.1058
     13 C13        -0.5909   -2.4310   -1.7304 C.ar      1 <0>        -0.0786
     14 Cl1        -1.9618   -3.3923   -5.3563 Cl        1 <0>        -0.0421
     15 N1         -1.5746   -1.7494    1.0672 N.pl3     1 <0>        -0.3652
     16 C14        -0.8506   -2.8493    1.3224 C.2       1 <0>        -0.0023
     17 C15        -1.4181   -3.4895    2.3624 C.2       1 <0>         0.0479
     18 N2         -2.5083   -2.7506    2.7353 N.pl3     1 <0>        -0.4034
     19 C16        -2.5663   -1.6812    1.9127 C.cat     1 <0>         0.2738
     20 C17        -3.4359   -3.0594    3.8264 C.3       1 <0>         0.1017
     21 C18        -2.9357   -2.4124    5.1195 C.3       1 <0>         0.1197
     22 H1         -2.7932   -1.3437    4.9596 H         1 <0>         0.0939
     23 C19        -3.9503   -2.6258    6.2131 C.ar      1 <0>        -0.1269
     24 C20        -3.8119   -3.6884    7.0865 C.ar      1 <0>        -0.0616
     25 C21        -4.7420   -3.8847    8.0897 C.ar      1 <0>        -0.1019
     26 C22        -5.8123   -3.0174    8.2207 C.ar      1 <0>        -0.0091
     27 C23        -5.9511   -1.9538    7.3474 C.ar      1 <0>        -0.0995
     28 C24        -5.0170   -1.7550    6.3463 C.ar      1 <0>        -0.0133
     29 Cl2        -5.1870   -0.4169    5.2535 Cl        1 <0>        -0.0550
     30 Cl3        -6.9809   -3.2645    9.4805 Cl        1 <0>        -0.0357
     31 O1         -1.6932   -3.0070    5.4999 O.3       1 <0>        -0.3673
     32 C25        -0.8219   -2.1270    6.2130 C.3       1 <0>         0.1060
     33 C26         0.4510   -2.8543    6.5621 C.ar      1 <0>        -0.0845
     34 C27         0.6203   -4.1725    6.1815 C.ar      1 <0>        -0.0763
     35 C28         1.7873   -4.8402    6.5012 C.ar      1 <0>        -0.1038
     36 C29         2.7873   -4.1893    7.2022 C.ar      1 <0>        -0.0200
     37 C30         2.6186   -2.8704    7.5828 C.ar      1 <0>        -0.0968
     38 C31         1.4521   -2.2011    7.2583 C.ar      1 <0>        -0.0209
     39 Cl4         1.2420   -0.5437    7.7304 Cl        1 <0>        -0.0480
     40 Cl5         4.2529   -5.0284    7.6042 Cl        1 <0>        -0.0433
     41 Cl6         4.3464    1.2192    0.5765 Cl        1 <0>        -0.0435
     42 H2          0.3134    0.2244   -1.9176 H         1 <0>         0.1413
     43 H3          2.6260    1.0375   -1.6874 H         1 <0>         0.1460
     44 H4          2.5218    0.1474    2.4844 H         1 <0>         0.1419
     45 H5          0.2110   -0.6698    2.2513 H         1 <0>         0.1235
     46 H6         -1.9848    0.0630    0.0946 H         1 <0>         0.1463
     47 H7         -3.1573   -0.2461   -1.8711 H         1 <0>         0.1412
     48 H8         -3.4325   -1.3183   -4.0703 H         1 <0>         0.1462
     49 H9         -0.0704   -3.8207   -3.2691 H         1 <0>         0.1448
     50 H10         0.2086   -2.7411   -1.0738 H         1 <0>         0.1328
     51 H11         0.0326   -3.1659    0.7876 H         1 <0>         0.2142
     52 H12        -1.0786   -4.4096    2.8149 H         1 <0>         0.2230
     53 H13        -3.3115   -0.9001    1.9472 H         1 <0>         0.2530
     54 H14        -4.4246   -2.6697    3.5840 H         1 <0>         0.1349
     55 H15        -3.4937   -4.1397    3.9593 H         1 <0>         0.1391
     56 H16        -2.9768   -4.3656    6.9847 H         1 <0>         0.1528
     57 H17        -4.6337   -4.7154    8.7713 H         1 <0>         0.1488
     58 H18        -6.7862   -1.2767    7.4492 H         1 <0>         0.1524
     59 H19        -0.5880   -1.2638    5.5900 H         1 <0>         0.0724
     60 H20        -1.3119   -1.7929    7.1276 H         1 <0>         0.0804
     61 H21        -0.1599   -4.6808    5.6344 H         1 <0>         0.1478
     62 H22         1.9187   -5.8702    6.2042 H         1 <0>         0.1443
     63 H23         3.3988   -2.3620    8.1299 H         1 <0>         0.1498
@<TRIPOS>BOND
     1    1    6 ar
     2    1    2 ar
     3    1   42 1
     4    2    3 ar
     5    2   43 1
     6    3    4 ar
     7    3   41 1
     8    4    5 ar
     9    4   44 1
    10    5    6 ar
    11    5   45 1
    12    6    7 1
    13    7    8 1
    14    7   15 1
    15    7   46 1
    16    8   13 ar
    17    8    9 ar
    18    9   10 ar
    19    9   47 1
    20   10   11 ar
    21   10   48 1
    22   11   12 ar
    23   11   14 1
    24   12   13 ar
    25   12   49 1
    26   13   50 1
    27   15   19 2
    28   15   16 1
    29   16   17 2
    30   16   51 1
    31   17   18 1
    32   17   52 1
    33   18   19 1
    34   18   20 1
    35   19   53 1
    36   20   21 1
    37   20   54 1
    38   20   55 1
    39   21   22 1
    40   21   23 1
    41   21   31 1
    42   23   28 ar
    43   23   24 ar
    44   24   25 ar
    45   24   56 1
    46   25   26 ar
    47   25   57 1
    48   26   27 ar
    49   26   30 1
    50   27   28 ar
    51   27   58 1
    52   28   29 1
    53   31   32 1
    54   32   33 1
    55   32   59 1
    56   32   60 1
    57   33   38 ar
    58   33   34 ar
    59   34   35 ar
    60   34   61 1
    61   35   36 ar
    62   35   62 1
    63   36   37 ar
    64   36   40 1
    65   37   38 ar
    66   37   63 1
    67   38   39 1
@<TRIPOS>MOLECULE
ZINC04262458
   63    67     0     0     0
SMALL
USER_CHARGES

@<TRIPOS>ATOM
      1 C1          0.7786    0.2079   -0.9938 C.ar      1 <0>        -0.0710
      2 C2          2.0661    0.6983   -0.8838 C.ar      1 <0>        -0.1002
      3 C3          2.6869    0.7404    0.3519 C.ar      1 <0>        -0.0161
      4 C4          2.0183    0.2917    1.4769 C.ar      1 <0>        -0.1020
      5 C5          0.7307   -0.1985    1.3658 C.ar      1 <0>        -0.0951
      6 C6          0.1110   -0.2404    0.1307 C.ar      1 <0>        -0.1247
      7 C7         -1.2928   -0.7750    0.0102 C.3       1 <0>         0.2304
      8 C8         -1.4296   -1.5409   -1.2804 C.ar      1 <0>        -0.1328
      9 C9         -0.5434   -2.5598   -1.5763 C.ar      1 <0>        -0.0810
     10 C10        -0.6683   -3.2627   -2.7598 C.ar      1 <0>        -0.1056
     11 C11        -1.6807   -2.9467   -3.6482 C.ar      1 <0>        -0.0112
     12 C12        -2.5676   -1.9272   -3.3513 C.ar      1 <0>        -0.1054
     13 C13        -2.4446   -1.2282   -2.1652 C.ar      1 <0>        -0.0759
     14 Cl1        -1.8379   -3.8287   -5.1352 Cl        1 <0>        -0.0428
     15 N1         -1.5749   -1.6654    1.1388 N.pl3     1 <0>        -0.4041
     16 C14        -0.8949   -2.8089    1.4608 C.2       1 <0>         0.0327
     17 C15        -1.4812   -3.3135    2.5632 C.2       1 <0>        -0.0031
     18 N2         -2.4916   -2.5003    2.9049 N.pl3     1 <0>        -0.3711
     19 C16        -2.5505   -1.5082    2.0591 C.cat     1 <0>         0.2958
     20 C17        -3.3847   -2.6925    4.0502 C.3       1 <0>         0.0923
     21 C18        -2.7982   -1.9917    5.2774 C.3       1 <0>         0.1193
     22 H1         -1.7843   -2.3520    5.4516 H         1 <0>         0.0983
     23 C19        -3.6518   -2.2913    6.4827 C.ar      1 <0>        -0.1270
     24 C20        -4.6488   -1.4109    6.8595 C.ar      1 <0>        -0.0622
     25 C21        -5.4319   -1.6850    7.9647 C.ar      1 <0>        -0.1026
     26 C22        -5.2188   -2.8412    8.6946 C.ar      1 <0>        -0.0087
     27 C23        -4.2218   -3.7226    8.3178 C.ar      1 <0>        -0.0994
     28 C24        -3.4412   -3.4501    7.2084 C.ar      1 <0>        -0.0135
     29 Cl2        -2.1935   -4.5587    6.7312 Cl        1 <0>        -0.0509
     30 Cl3        -6.2023   -3.1850   10.0832 Cl        1 <0>        -0.0355
     31 O1         -2.7703   -0.5808    5.0523 O.3       1 <0>        -0.3731
     32 C25        -1.7090    0.0950    5.7297 C.3       1 <0>         0.1054
     33 C26        -1.7754    1.5689    5.4229 C.ar      1 <0>        -0.0845
     34 C27        -2.7711    2.0591    4.5987 C.ar      1 <0>        -0.0794
     35 C28        -2.8326    3.4107    4.3169 C.ar      1 <0>        -0.1042
     36 C29        -1.8977    4.2742    4.8601 C.ar      1 <0>        -0.0198
     37 C30        -0.9015    3.7845    5.6852 C.ar      1 <0>        -0.0957
     38 C31        -0.8433    2.4320    5.9708 C.ar      1 <0>        -0.0202
     39 Cl4         0.4031    1.8172    7.0111 Cl        1 <0>        -0.0460
     40 Cl5        -1.9748    5.9719    4.5056 Cl        1 <0>        -0.0426
     41 Cl6         4.3043    1.3556    0.4907 Cl        1 <0>        -0.0447
     42 H2          0.2923    0.1791   -1.9576 H         1 <0>         0.1406
     43 H3          2.5877    1.0481   -1.7625 H         1 <0>         0.1454
     44 H4          2.5024    0.3240    2.4418 H         1 <0>         0.1407
     45 H5          0.2088   -0.5491    2.2439 H         1 <0>         0.1224
     46 H6         -1.9994    0.0550    0.0168 H         1 <0>         0.1444
     47 H7          0.2469   -2.8064   -0.8828 H         1 <0>         0.1319
     48 H8          0.0245   -4.0583   -2.9912 H         1 <0>         0.1443
     49 H9         -3.3579   -1.6799   -4.0445 H         1 <0>         0.1459
     50 H10        -3.1393   -0.4351   -1.9314 H         1 <0>         0.1410
     51 H11        -0.0507   -3.2264    0.9323 H         1 <0>         0.2168
     52 H12        -1.1891   -4.2150    3.0812 H         1 <0>         0.2193
     53 H13        -3.2632   -0.6973    2.0888 H         1 <0>         0.2552
     54 H14        -4.3631   -2.2692    3.8231 H         1 <0>         0.1380
     55 H15        -3.4885   -3.7580    4.2553 H         1 <0>         0.1415
     56 H16        -4.8155   -0.5084    6.2902 H         1 <0>         0.1524
     57 H17        -6.2102   -0.9965    8.2591 H         1 <0>         0.1487
     58 H18        -4.0551   -4.6251    8.8871 H         1 <0>         0.1526
     59 H19        -1.8087   -0.0573    6.8044 H         1 <0>         0.0823
     60 H20        -0.7516   -0.3033    5.3935 H         1 <0>         0.0742
     61 H21        -3.5010    1.3855    4.1745 H         1 <0>         0.1464
     62 H22        -3.6103    3.7929    3.6724 H         1 <0>         0.1440
     63 H23        -0.1716    4.4581    6.1093 H         1 <0>         0.1501
@<TRIPOS>BOND
     1    1    6 ar
     2    1    2 ar
     3    1   42 1
     4    2    3 ar
     5    2   43 1
     6    3    4 ar
     7    3   41 1
     8    4    5 ar
     9    4   44 1
    10    5    6 ar
    11    5   45 1
    12    6    7 1
    13    7    8 1
    14    7   15 1
    15    7   46 1
    16    8   13 ar
    17    8    9 ar
    18    9   10 ar
    19    9   47 1
    20   10   11 ar
    21   10   48 1
    22   11   12 ar
    23   11   14 1
    24   12   13 ar
    25   12   49 1
    26   13   50 1
    27   15   19 1
    28   15   16 1
    29   16   17 2
    30   16   51 1
    31   17   18 1
    32   17   52 1
    33   18   19 2
    34   18   20 1
    35   19   53 1
    36   20   21 1
    37   20   54 1
    38   20   55 1
    39   21   22 1
    40   21   23 1
    41   21   31 1
    42   23   28 ar
    43   23   24 ar
    44   24   25 ar
    45   24   56 1
    46   25   26 ar
    47   25   57 1
    48   26   27 ar
    49   26   30 1
    50   27   28 ar
    51   27   58 1
    52   28   29 1
    53   31   32 1
    54   32   33 1
    55   32   59 1
    56   32   60 1
    57   33   38 ar
    58   33   34 ar
    59   34   35 ar
    60   34   61 1
    61   35   36 ar
    62   35   62 1
    63   36   37 ar
    64   36   40 1
    65   37   38 ar
    66   37   63 1
    67   38   39 1
@<TRIPOS>MOLECULE
ZINC04262458
   63    67     0     0     0
SMALL
USER_CHARGES

@<TRIPOS>ATOM
      1 C1          0.7993    0.2046   -0.9533 C.ar      1 <0>        -0.0698
      2 C2          2.0965    0.6636   -0.8236 C.ar      1 <0>        -0.1005
      3 C3          2.7168    0.6434    0.4129 C.ar      1 <0>        -0.0151
      4 C4          2.0380    0.1637    1.5190 C.ar      1 <0>        -0.1019
      5 C5          0.7408   -0.2950    1.3881 C.ar      1 <0>        -0.0947
      6 C6          0.1216   -0.2746    0.1523 C.ar      1 <0>        -0.1263
      7 C7         -1.2928   -0.7750    0.0102 C.3       1 <0>         0.2216
      8 C8         -1.4606   -1.4314   -1.3359 C.ar      1 <0>        -0.1355
      9 C9         -2.4807   -1.0299   -2.1781 C.ar      1 <0>        -0.0753
     10 C10        -2.6351   -1.6316   -3.4128 C.ar      1 <0>        -0.1057
     11 C11        -1.7682   -2.6357   -3.8059 C.ar      1 <0>        -0.0103
     12 C12        -0.7472   -3.0368   -2.9628 C.ar      1 <0>        -0.1059
     13 C13        -0.5909   -2.4310   -1.7304 C.ar      1 <0>        -0.0791
     14 Cl1        -1.9618   -3.3923   -5.3563 Cl        1 <0>        -0.0422
     15 N1         -1.5746   -1.7494    1.0672 N.pl3     1 <0>        -0.3697
     16 C14        -0.8506   -2.8492    1.3224 C.2       1 <0>         0.0033
     17 C15        -1.4181   -3.4895    2.3624 C.2       1 <0>         0.0266
     18 N2         -2.5083   -2.7506    2.7353 N.pl3     1 <0>        -0.4056
     19 C16        -2.5663   -1.6811    1.9127 C.cat     1 <0>         0.2960
     20 C17        -3.4359   -3.0593    3.8264 C.3       1 <0>         0.1024
     21 C18        -2.9357   -2.4124    5.1195 C.3       1 <0>         0.1190
     22 H1         -1.9127   -2.7341    5.3146 H         1 <0>         0.0972
     23 C19        -3.8208   -2.8303    6.2654 C.ar      1 <0>        -0.1266
     24 C20        -4.8756   -2.0252    6.6531 C.ar      1 <0>        -0.0625
     25 C21        -5.6877   -2.4077    7.7038 C.ar      1 <0>        -0.1027
     26 C22        -5.4458   -3.5973    8.3681 C.ar      1 <0>        -0.0091
     27 C23        -4.3910   -4.4035    7.9803 C.ar      1 <0>        -0.0995
     28 C24        -3.5812   -4.0223    6.9253 C.ar      1 <0>        -0.0137
     29 Cl2        -2.2607   -5.0364    6.4339 Cl        1 <0>        -0.0512
     30 Cl3        -6.4658   -4.0774    9.6883 Cl        1 <0>        -0.0360
     31 O1         -2.9703   -0.9902    4.9850 O.3       1 <0>        -0.3725
     32 C25        -1.9728   -0.3096    5.7490 C.3       1 <0>         0.1052
     33 C26        -2.1014    1.1763    5.5329 C.ar      1 <0>        -0.0843
     34 C27        -3.0867    1.6705    4.6987 C.ar      1 <0>        -0.0797
     35 C28        -3.2053    3.0330    4.5000 C.ar      1 <0>        -0.1044
     36 C29        -2.3380    3.9034    5.1366 C.ar      1 <0>        -0.0200
     37 C30        -1.3523    3.4095    5.9717 C.ar      1 <0>        -0.0958
     38 C31        -1.2372    2.0457    6.1739 C.ar      1 <0>        -0.0203
     39 Cl4        -0.0042    1.4252    7.2267 Cl        1 <0>        -0.0460
     40 Cl5        -2.4868    5.6149    4.8865 Cl        1 <0>        -0.0427
     41 Cl6         4.3464    1.2192    0.5765 Cl        1 <0>        -0.0439
     42 H2          0.3134    0.2245   -1.9176 H         1 <0>         0.1412
     43 H3          2.6260    1.0375   -1.6874 H         1 <0>         0.1458
     44 H4          2.5219    0.1474    2.4844 H         1 <0>         0.1416
     45 H5          0.2110   -0.6698    2.2513 H         1 <0>         0.1235
     46 H6         -1.9848    0.0630    0.0946 H         1 <0>         0.1466
     47 H7         -3.1573   -0.2462   -1.8711 H         1 <0>         0.1415
     48 H8         -3.4325   -1.3184   -4.0703 H         1 <0>         0.1462
     49 H9         -0.0704   -3.8207   -3.2690 H         1 <0>         0.1446
     50 H10         0.2086   -2.7411   -1.0738 H         1 <0>         0.1324
     51 H11         0.0326   -3.1659    0.7876 H         1 <0>         0.2144
     52 H12        -1.0786   -4.4095    2.8149 H         1 <0>         0.2214
     53 H13        -3.3115   -0.9001    1.9472 H         1 <0>         0.2549
     54 H14        -4.4246   -2.6697    3.5840 H         1 <0>         0.1350
     55 H15        -3.4937   -4.1397    3.9594 H         1 <0>         0.1388
     56 H16        -5.0648   -1.0967    6.1349 H         1 <0>         0.1521
     57 H17        -6.5112   -1.7780    8.0067 H         1 <0>         0.1485
     58 H18        -4.2018   -5.3320    8.4985 H         1 <0>         0.1524
     59 H19        -2.1079   -0.5360    6.8066 H         1 <0>         0.0818
     60 H20        -0.9837   -0.6388    5.4304 H         1 <0>         0.0739
     61 H21        -3.7638    0.9916    4.2017 H         1 <0>         0.1466
     62 H22        -3.9748    3.4186    3.8476 H         1 <0>         0.1440
     63 H23        -0.6752    4.0884    6.4687 H         1 <0>         0.1501
@<TRIPOS>BOND
     1    1    6 ar
     2    1    2 ar
     3    1   42 1
     4    2    3 ar
     5    2   43 1
     6    3    4 ar
     7    3   41 1
     8    4    5 ar
     9    4   44 1
    10    5    6 ar
    11    5   45 1
    12    6    7 1
    13    7    8 1
    14    7   15 1
    15    7   46 1
    16    8   13 ar
    17    8    9 ar
    18    9   10 ar
    19    9   47 1
    20   10   11 ar
    21   10   48 1
    22   11   12 ar
    23   11   14 1
    24   12   13 ar
    25   12   49 1
    26   13   50 1
    27   15   19 2
    28   15   16 1
    29   16   17 2
    30   16   51 1
    31   17   18 1
    32   17   52 1
    33   18   19 1
    34   18   20 1
    35   19   53 1
    36   20   21 1
    37   20   54 1
    38   20   55 1
    39   21   22 1
    40   21   23 1
    41   21   31 1
    42   23   28 ar
    43   23   24 ar
    44   24   25 ar
    45   24   56 1
    46   25   26 ar
    47   25   57 1
    48   26   27 ar
    49   26   30 1
    50   27   28 ar
    51   27   58 1
    52   28   29 1
    53   31   32 1
    54   32   33 1
    55   32   59 1
    56   32   60 1
    57   33   38 ar
    58   33   34 ar
    59   34   35 ar
    60   34   61 1
    61   35   36 ar
    62   35   62 1
    63   36   37 ar
    64   36   40 1
    65   37   38 ar
    66   37   63 1
    67   38   39 1
