@<TRIPOS>MOLECULE
ZINC00007724
   32    34     0     0     0
SMALL
USER_CHARGES

@<TRIPOS>ATOM
      1 C1         -0.0009    1.5030    0.0041 C.3       1 <0>        -0.1238
      2 C2          0.0148   -0.0039   -0.0023 C.ar      1 <0>        -0.0463
      3 C3          1.2206   -0.6812   -0.0142 C.ar      1 <0>        -0.1294
      4 C4          1.2388   -2.0619   -0.0205 C.ar      1 <0>        -0.0572
      5 C5          0.0436   -2.7709   -0.0143 C.ar      1 <0>        -0.1667
      6 C6         -1.1662   -2.0869   -0.0019 C.ar      1 <0>        -0.0561
      7 C7         -1.1766   -0.7062    0.0096 C.ar      1 <0>        -0.1296
      8 S1          0.0619   -4.5328   -0.0229 S.3       1 <0>         0.0354
      9 C8          0.2252   -4.9656    1.6773 C.ar      1 <0>        -0.1005
     10 C9          0.1924   -3.9898    2.6511 C.ar      1 <0>         0.0791
     11 N1          0.3117   -4.2720    3.9362 N.ar      1 <0>        -0.4329
     12 C10         0.4692   -5.5134    4.3569 C.ar      1 <0>         0.1461
     13 C11         0.5131   -6.5526    3.4553 C.ar      1 <0>        -0.1506
     14 C12         0.3868   -6.3301    2.0616 C.ar      1 <0>        -0.0458
     15 C13         0.4432   -7.4768    1.2585 C.2       1 <0>        -0.0619
     16 C14         0.6049   -8.7001    1.8339 C.2       1 <0>        -0.1801
     17 S2          0.7028   -8.3123    3.5735 S.3       1 <0>         0.1111
     18 C15         0.6879  -10.0152    1.1824 C.2       1 <0>         0.6073
     19 O1          0.6096  -10.1001   -0.0286 O.2       1 <0>        -0.5166
     20 N2          0.8507  -11.1269    1.9268 N.am      1 <0>        -0.8416
     21 H1          0.0080    1.8621    1.0332 H         1 <0>         0.0784
     22 H2          0.8789    1.8777   -0.5192 H         1 <0>         0.0721
     23 H3         -0.9009    1.8591   -0.4972 H         1 <0>         0.0722
     24 H4          2.1491   -0.1295   -0.0190 H         1 <0>         0.1321
     25 H5          2.1807   -2.5901   -0.0305 H         1 <0>         0.1333
     26 H6         -2.0969   -2.6347    0.0026 H         1 <0>         0.1349
     27 H7         -2.1163   -0.1741    0.0237 H         1 <0>         0.1325
     28 H8          0.0653   -2.9596    2.3529 H         1 <0>         0.1600
     29 H9          0.5645   -5.7146    5.4138 H         1 <0>         0.1723
     30 H10         0.3581   -7.3905    0.1853 H         1 <0>         0.1543
     31 H11         0.9131  -11.0593    2.8924 H         1 <0>         0.4034
     32 H12         0.9054  -11.9947    1.4968 H         1 <0>         0.4146
@<TRIPOS>BOND
     1    1    2 1
     2    1   21 1
     3    1   22 1
     4    1   23 1
     5    2    7 ar
     6    2    3 ar
     7    3    4 ar
     8    3   24 1
     9    4    5 ar
    10    4   25 1
    11    5    6 ar
    12    5    8 1
    13    6    7 ar
    14    6   26 1
    15    7   27 1
    16    8    9 1
    17    9   14 ar
    18    9   10 ar
    19   10   11 ar
    20   10   28 1
    21   11   12 ar
    22   12   13 ar
    23   12   29 1
    24   13   17 1
    25   13   14 ar
    26   14   15 1
    27   15   16 2
    28   15   30 1
    29   16   17 1
    30   16   18 1
    31   18   19 2
    32   18   20 am
    33   20   31 1
    34   20   32 1
