@<TRIPOS>MOLECULE
ZINC12853771
   49    51     0     0     0
SMALL
USER_CHARGES
N-(1-cinnamyl-4-piperidyl)benzamide
@<TRIPOS>ATOM
      1 C1          8.6034   10.1188    6.9919 C.ar      1 <0>        -0.0947
      2 C2          9.5995    9.5881    6.1919 C.ar      1 <0>        -0.1192
      3 C3          9.3488    9.3147    4.8629 C.ar      1 <0>        -0.0899
      4 C4          8.0871    9.5742    4.3264 C.ar      1 <0>        -0.0997
      5 C5          7.0884   10.1144    5.1374 C.ar      1 <0>        -0.1000
      6 C6          7.3503   10.3779    6.4662 C.ar      1 <0>        -0.1214
      7 C7          7.8116    9.2837    2.9036 C.2       1 <0>        -0.0161
      8 C8          6.6119    9.5313    2.3967 C.2       1 <0>        -0.2529
      9 C9          6.3310    9.2351    0.9461 C.3       1 <0>         0.0420
     10 C10         4.7126    8.2320   -0.5489 C.3       1 <0>         0.0040
     11 C11         3.4119    7.4273   -0.5997 C.3       1 <0>        -0.1574
     12 C12         3.6524    6.0393    0.0006 C.3       1 <0>         0.1367
     13 C13         4.1649    6.1941    1.4351 C.3       1 <0>        -0.1613
     14 C14         5.4438    7.0346    1.4269 C.3       1 <0>         0.0025
     15 N1          2.3967    5.2848    0.0080 N.am      1 <0>        -0.7289
     16 C15         2.4201    3.9373    0.0006 C.2       1 <0>         0.5688
     17 O1          3.4831    3.3480   -0.0123 O.2       1 <0>        -0.5265
     18 C16         1.1528    3.1759    0.0081 C.ar      1 <0>        -0.1496
     19 C17         1.1736    1.7803    0.0004 C.ar      1 <0>        -0.0558
     20 C18        -0.0126    1.0758    0.0080 C.ar      1 <0>        -0.1241
     21 C19        -1.2209    1.7497    0.0174 C.ar      1 <0>        -0.0837
     22 C20        -1.2484    3.1330    0.0308 C.ar      1 <0>        -0.1264
     23 C21        -0.0696    3.8495    0.0234 C.ar      1 <0>        -0.0865
     24 H1          8.8048   10.3313    8.0314 H         1 <0>         0.1308
     25 H2         10.5756    9.3877    6.6084 H         1 <0>         0.1320
     26 H3         10.1272    8.9004    4.2394 H         1 <0>         0.1292
     27 H4          6.1111   10.3217    4.7269 H         1 <0>         0.1235
     28 H5          6.5768   10.7919    7.0960 H         1 <0>         0.1298
     29 H6          8.5876    8.8697    2.2768 H         1 <0>         0.1303
     30 H7          5.8359    9.9453    3.0235 H         1 <0>         0.1365
     31 H8          7.1965    8.7440    0.5013 H         1 <0>         0.1312
     32 H9          6.1304   10.1669    0.4172 H         1 <0>         0.1355
     33 H10         5.4781    7.7224   -1.1341 H         1 <0>         0.1343
     34 H11         4.5411    9.2259   -0.9624 H         1 <0>         0.1353
     35 H12         3.0876    7.3247   -1.6353 H         1 <0>         0.1200
     36 H13         2.6420    7.9434   -0.0261 H         1 <0>         0.0944
     37 H14         4.3933    5.5076   -0.5965 H         1 <0>         0.1063
     38 H15         3.4069    6.6909    2.0408 H         1 <0>         0.0900
     39 H16         4.3786    5.2105    1.8534 H         1 <0>         0.1165
     40 H17         6.2058    6.5306    0.8325 H         1 <0>         0.1322
     41 H18         5.8034    7.1588    2.4484 H         1 <0>         0.1329
     42 H19         1.5483    5.7551    0.0183 H         1 <0>         0.4058
     43 H20         2.1161    1.2531   -0.0118 H         1 <0>         0.1375
     44 H21         0.0021   -0.0041    0.0020 H         1 <0>         0.1352
     45 H22        -2.1467    1.1935    0.0184 H         1 <0>         0.1329
     46 H23        -2.1950    3.6530    0.0426 H         1 <0>         0.1326
     47 H24        -0.0924    4.9292    0.0291 H         1 <0>         0.1226
     48 N2          5.1394    8.3658    0.8601 N.4       1 <0>        -0.3941
     49 H25         4.3767    8.7912    1.4001 H         1 <0>         0.4265
@<TRIPOS>BOND
     1    1    6 ar
     2    1    2 ar
     3    1   24 1
     4    2    3 ar
     5    2   25 1
     6    3    4 ar
     7    3   26 1
     8    4    5 ar
     9    4    7 1
    10    5    6 ar
    11    5   27 1
    12    6   28 1
    13    7    8 2
    14    7   29 1
    15    8    9 1
    16    8   30 1
    17    9   31 1
    18    9   32 1
    19    9   48 1
    20   10   11 1
    21   10   33 1
    22   10   34 1
    23   10   48 1
    24   11   12 1
    25   11   35 1
    26   11   36 1
    27   12   13 1
    28   12   15 1
    29   12   37 1
    30   13   14 1
    31   13   38 1
    32   13   39 1
    33   14   40 1
    34   14   41 1
    35   14   48 1
    36   15   16 am
    37   15   42 1
    38   16   17 2
    39   16   18 1
    40   18   23 ar
    41   18   19 ar
    42   19   20 ar
    43   19   43 1
    44   20   21 ar
    45   20   44 1
    46   21   22 ar
    47   21   45 1
    48   22   23 ar
    49   22   46 1
    50   23   47 1
    51   48   49 1
