@<TRIPOS>MOLECULE
ZINC00001021
   28    29     0     0     0
SMALL
USER_CHARGES

@<TRIPOS>ATOM
      1 C1         -0.0167    1.3781    0.0096 C.ar      1 <0>        -0.1079
      2 C2          1.1709    2.0855    0.0021 C.ar      1 <0>        -0.1225
      3 C3          2.3773    1.4107   -0.0130 C.ar      1 <0>        -0.0949
      4 C4          2.3960    0.0285   -0.0201 C.ar      1 <0>        -0.0999
      5 C5          1.2084   -0.6789   -0.0117 C.ar      1 <0>        -0.0949
      6 C6          0.0021   -0.0041    0.0020 C.ar      1 <0>        -0.1225
      7 C7          3.7112   -0.7071   -0.0376 C.3       1 <0>         0.1089
      8 O1          4.1410   -0.9464    1.3041 O.3       1 <0>        -0.3420
      9 C8          5.3083   -1.5992    1.4651 C.2       1 <0>         0.5089
     10 O2          5.9439   -1.9556    0.4933 O.2       1 <0>        -0.5030
     11 C9          5.8154   -1.8816    2.8236 C.ar      1 <0>        -0.1282
     12 C10         5.0844   -1.4784    3.9429 C.ar      1 <0>        -0.0613
     13 C11         5.5638   -1.7453    5.2085 C.ar      1 <0>        -0.1335
     14 C12         6.7659   -2.4110    5.3703 C.ar      1 <0>        -0.0823
     15 C13         7.4956   -2.8130    4.2654 C.ar      1 <0>        -0.1315
     16 C14         7.0249   -2.5580    2.9941 C.ar      1 <0>        -0.0547
     17 H1         -0.9591    1.9053    0.0259 H         1 <0>         0.1254
     18 H2          1.1563    3.1654    0.0076 H         1 <0>         0.1265
     19 H3          3.3051    1.9634   -0.0196 H         1 <0>         0.1246
     20 H4          1.2231   -1.7588   -0.0176 H         1 <0>         0.1246
     21 H5         -0.9258   -0.5567    0.0082 H         1 <0>         0.1265
     22 H6          3.5884   -1.6586   -0.5549 H         1 <0>         0.0792
     23 H7          4.4573   -0.1052   -0.5563 H         1 <0>         0.0792
     24 H8          4.1461   -0.9584    3.8180 H         1 <0>         0.1385
     25 H9          4.9996   -1.4337    6.0751 H         1 <0>         0.1330
     26 H10         7.1367   -2.6175    6.3634 H         1 <0>         0.1311
     27 H11         8.4335   -3.3316    4.3988 H         1 <0>         0.1344
     28 H12         7.5930   -2.8766    2.1326 H         1 <0>         0.1383
@<TRIPOS>BOND
     1    1    6 ar
     2    1    2 ar
     3    1   17 1
     4    2    3 ar
     5    2   18 1
     6    3    4 ar
     7    3   19 1
     8    4    5 ar
     9    4    7 1
    10    5    6 ar
    11    5   20 1
    12    6   21 1
    13    7    8 1
    14    7   22 1
    15    7   23 1
    16    8    9 1
    17    9   10 2
    18    9   11 1
    19   11   16 ar
    20   11   12 ar
    21   12   13 ar
    22   12   24 1
    23   13   14 ar
    24   13   25 1
    25   14   15 ar
    26   14   26 1
    27   15   16 ar
    28   15   27 1
    29   16   28 1
