@<TRIPOS>MOLECULE
ZINC03807804
   42    45     0     0     0
SMALL
USER_CHARGES

@<TRIPOS>ATOM
      1 C1         -0.1404    1.0961   -0.4391 C.ar      1 <0>        -0.1020
      2 C2          0.9979    1.8788   -0.4898 C.ar      1 <0>        -0.1176
      3 C3          2.2443    1.2953   -0.3597 C.ar      1 <0>        -0.1015
      4 C4          2.3524   -0.0709   -0.1784 C.ar      1 <0>        -0.0957
      5 C5          1.2140   -0.8534   -0.1268 C.ar      1 <0>        -0.0879
      6 C6         -0.0323   -0.2701   -0.2583 C.ar      1 <0>        -0.1206
      7 C7          3.7112   -0.7071   -0.0376 C.3       1 <0>         0.3033
      8 C8          3.5548   -2.1991    0.1055 C.ar      1 <0>        -0.0980
      9 C9          4.1018   -3.0454   -0.8408 C.ar      1 <0>        -0.0924
     10 C10         3.9584   -4.4140   -0.7096 C.ar      1 <0>        -0.1192
     11 C11         3.2684   -4.9364    0.3683 C.ar      1 <0>        -0.1040
     12 C12         2.7222   -4.0902    1.3152 C.ar      1 <0>        -0.1220
     13 C13         2.8693   -2.7218    1.1862 C.ar      1 <0>        -0.0909
     14 C14         4.5372   -0.4037   -1.2609 C.ar      1 <0>        -0.0899
     15 C15         5.7856    0.1744   -1.1262 C.ar      1 <0>        -0.0993
     16 C16         6.5434    0.4528   -2.2482 C.ar      1 <0>        -0.1105
     17 C17         6.0533    0.1533   -3.5058 C.ar      1 <0>        -0.0985
     18 C18         4.8053   -0.4246   -3.6418 C.ar      1 <0>        -0.1111
     19 C19         4.0487   -0.7087   -2.5187 C.ar      1 <0>        -0.0192
     20 Cl1         2.4837   -1.4408   -2.6883 Cl        1 <0>        -0.0484
     21 N1          4.3811   -0.1702    1.1495 N.pl3     1 <0>        -0.4460
     22 C20         5.5751   -0.5924    1.6690 C.2       1 <0>        -0.0513
     23 C21         5.8188    0.1680    2.7534 C.2       1 <0>        -0.0258
     24 N2          4.8014    1.0309    2.8923 N.2       1 <0>        -0.4890
     25 C22         3.9390    0.8376    1.9322 C.2       1 <0>         0.1875
     26 H1         -1.1143    1.5526   -0.5363 H         1 <0>         0.1257
     27 H2          0.9135    2.9461   -0.6315 H         1 <0>         0.1275
     28 H3          3.1337    1.9067   -0.4001 H         1 <0>         0.1221
     29 H4          1.2985   -1.9209    0.0142 H         1 <0>         0.1329
     30 H5         -0.9216   -0.8816   -0.2183 H         1 <0>         0.1255
     31 H6          4.6409   -2.6372   -1.6830 H         1 <0>         0.1253
     32 H7          4.3851   -5.0750   -1.4493 H         1 <0>         0.1258
     33 H8          3.1557   -6.0056    0.4705 H         1 <0>         0.1257
     34 H9          2.1828   -4.4983    2.1571 H         1 <0>         0.1266
     35 H10         2.4458   -2.0608    1.9279 H         1 <0>         0.1217
     36 H11         6.1689    0.4089   -0.1441 H         1 <0>         0.1411
     37 H12         7.5185    0.9047   -2.1424 H         1 <0>         0.1336
     38 H13         6.6456    0.3714   -4.3821 H         1 <0>         0.1361
     39 H14         4.4225   -0.6582   -4.6243 H         1 <0>         0.1382
     40 H15         6.2011   -1.3835    1.2836 H         1 <0>         0.1702
     41 H16         6.6821    0.0956    3.3983 H         1 <0>         0.1703
     42 H17         3.0222    1.3901    1.7888 H         1 <0>         0.2017
@<TRIPOS>BOND
     1    1    6 ar
     2    1    2 ar
     3    1   26 1
     4    2    3 ar
     5    2   27 1
     6    3    4 ar
     7    3   28 1
     8    4    5 ar
     9    4    7 1
    10    5    6 ar
    11    5   29 1
    12    6   30 1
    13    7    8 1
    14    7   14 1
    15    7   21 1
    16    8   13 ar
    17    8    9 ar
    18    9   10 ar
    19    9   31 1
    20   10   11 ar
    21   10   32 1
    22   11   12 ar
    23   11   33 1
    24   12   13 ar
    25   12   34 1
    26   13   35 1
    27   14   19 ar
    28   14   15 ar
    29   15   16 ar
    30   15   36 1
    31   16   17 ar
    32   16   37 1
    33   17   18 ar
    34   17   38 1
    35   18   19 ar
    36   18   39 1
    37   19   20 1
    38   21   25 1
    39   21   22 1
    40   22   23 2
    41   22   40 1
    42   23   24 1
    43   23   41 1
    44   24   25 2
    45   25   42 1
@<TRIPOS>MOLECULE
ZINC03807804
   43    46     0     0     0
SMALL
USER_CHARGES

@<TRIPOS>ATOM
      1 C1          0.5987    1.7832    1.4981 C.ar      1 <0>        -0.0892
      2 C2          0.3739    1.0091    0.3751 C.ar      1 <0>        -0.1131
      3 C3          1.3811    0.2033   -0.1220 C.ar      1 <0>        -0.1073
      4 C4          2.6134    0.1720    0.5037 C.ar      1 <0>        -0.1169
      5 C5          2.8385    0.9468    1.6262 C.ar      1 <0>        -0.0809
      6 C6          1.8308    1.7515    2.1240 C.ar      1 <0>        -0.1100
      7 C7          3.7112   -0.7071   -0.0376 C.3       1 <0>         0.3108
      8 C8          4.1045   -0.2308   -1.4122 C.ar      1 <0>        -0.1114
      9 C9          4.1390   -1.1216   -2.4687 C.ar      1 <0>        -0.1224
     10 C10         4.4997   -0.6846   -3.7296 C.ar      1 <0>        -0.1050
     11 C11         4.8255    0.6431   -3.9340 C.ar      1 <0>        -0.0966
     12 C12         4.7901    1.5341   -2.8777 C.ar      1 <0>        -0.1040
     13 C13         4.4252    1.0980   -1.6177 C.ar      1 <0>        -0.0870
     14 C14         4.9061   -0.6400    0.8783 C.ar      1 <0>        -0.1243
     15 C15         6.0946   -0.0984    0.4255 C.ar      1 <0>        -0.0806
     16 C16         7.1906   -0.0368    1.2654 C.ar      1 <0>        -0.1064
     17 C17         7.0990   -0.5167    2.5588 C.ar      1 <0>        -0.0779
     18 C18         5.9114   -1.0584    3.0126 C.ar      1 <0>        -0.1060
     19 C19         4.8121   -1.1151    2.1740 C.ar      1 <0>        -0.0235
     20 Cl1         3.3179   -1.7894    2.7455 Cl        1 <0>        -0.0546
     21 N1          3.2345   -2.0901   -0.1178 N.pl3     1 <0>        -0.3928
     22 C20         1.9543   -2.5219    0.1018 C.2       1 <0>         0.0325
     23 C21         1.9573   -3.8567   -0.0767 C.2       1 <0>         0.0033
     24 N2          3.2053   -4.2297   -0.3965 N.pl3     1 <0>        -0.4715
     25 C22         3.9747   -3.1761   -0.4280 C.cat     1 <0>         0.2859
     26 H1         -0.1868    2.4161    1.8838 H         1 <0>         0.1340
     27 H2         -0.5889    1.0335   -0.1137 H         1 <0>         0.1343
     28 H3          1.2053   -0.4020   -0.9989 H         1 <0>         0.1246
     29 H4          3.8010    0.9218    2.1154 H         1 <0>         0.1290
     30 H5          2.0066    2.3566    3.0012 H         1 <0>         0.1338
     31 H6          3.8845   -2.1589   -2.3090 H         1 <0>         0.1110
     32 H7          4.5274   -1.3807   -4.5549 H         1 <0>         0.1325
     33 H8          5.1080    0.9843   -4.9190 H         1 <0>         0.1349
     34 H9          5.0450    2.5713   -3.0374 H         1 <0>         0.1371
     35 H10         4.3939    1.7949   -0.7931 H         1 <0>         0.1317
     36 H11         6.1669    0.2763   -0.5848 H         1 <0>         0.1476
     37 H12         8.1191    0.3861    0.9110 H         1 <0>         0.1431
     38 H13         7.9558   -0.4686    3.2145 H         1 <0>         0.1451
     39 H14         5.8400   -1.4335    4.0228 H         1 <0>         0.1446
     40 H15         1.1050   -1.9099    0.3675 H         1 <0>         0.2211
     41 H16         1.1044   -4.5120    0.0207 H         1 <0>         0.2258
     42 H17         5.0293   -3.1735   -0.6609 H         1 <0>         0.2540
     43 H18         3.4903   -5.1387   -0.5793 H         1 <0>         0.4647
@<TRIPOS>BOND
     1    1    6 ar
     2    1    2 ar
     3    1   26 1
     4    2    3 ar
     5    2   27 1
     6    3    4 ar
     7    3   28 1
     8    4    5 ar
     9    4    7 1
    10    5    6 ar
    11    5   29 1
    12    6   30 1
    13    7    8 1
    14    7   14 1
    15    7   21 1
    16    8   13 ar
    17    8    9 ar
    18    9   10 ar
    19    9   31 1
    20   10   11 ar
    21   10   32 1
    22   11   12 ar
    23   11   33 1
    24   12   13 ar
    25   12   34 1
    26   13   35 1
    27   14   19 ar
    28   14   15 ar
    29   15   16 ar
    30   15   36 1
    31   16   17 ar
    32   16   37 1
    33   17   18 ar
    34   17   38 1
    35   18   19 ar
    36   18   39 1
    37   19   20 1
    38   21   25 1
    39   21   22 1
    40   22   23 2
    41   22   40 1
    42   23   24 1
    43   23   41 1
    44   24   25 2
    45   24   43 1
    46   25   42 1
@<TRIPOS>MOLECULE
ZINC00001021
   28    29     0     0     0
SMALL
USER_CHARGES

@<TRIPOS>ATOM
      1 C1         -0.0167    1.3781    0.0096 C.ar      1 <0>        -0.1079
      2 C2          1.1709    2.0855    0.0021 C.ar      1 <0>        -0.1225
      3 C3          2.3773    1.4107   -0.0130 C.ar      1 <0>        -0.0949
      4 C4          2.3960    0.0285   -0.0201 C.ar      1 <0>        -0.0999
      5 C5          1.2084   -0.6789   -0.0117 C.ar      1 <0>        -0.0949
      6 C6          0.0021   -0.0041    0.0020 C.ar      1 <0>        -0.1225
      7 C7          3.7112   -0.7071   -0.0376 C.3       1 <0>         0.1089
      8 O1          4.1410   -0.9464    1.3041 O.3       1 <0>        -0.3420
      9 C8          5.3083   -1.5992    1.4651 C.2       1 <0>         0.5089
     10 O2          5.9439   -1.9556    0.4933 O.2       1 <0>        -0.5030
     11 C9          5.8154   -1.8816    2.8236 C.ar      1 <0>        -0.1282
     12 C10         5.0844   -1.4784    3.9429 C.ar      1 <0>        -0.0613
     13 C11         5.5638   -1.7453    5.2085 C.ar      1 <0>        -0.1335
     14 C12         6.7659   -2.4110    5.3703 C.ar      1 <0>        -0.0823
     15 C13         7.4956   -2.8130    4.2654 C.ar      1 <0>        -0.1315
     16 C14         7.0249   -2.5580    2.9941 C.ar      1 <0>        -0.0547
     17 H1         -0.9591    1.9053    0.0259 H         1 <0>         0.1254
     18 H2          1.1563    3.1654    0.0076 H         1 <0>         0.1265
     19 H3          3.3051    1.9634   -0.0196 H         1 <0>         0.1246
     20 H4          1.2231   -1.7588   -0.0176 H         1 <0>         0.1246
     21 H5         -0.9258   -0.5567    0.0082 H         1 <0>         0.1265
     22 H6          3.5884   -1.6586   -0.5549 H         1 <0>         0.0792
     23 H7          4.4573   -0.1052   -0.5563 H         1 <0>         0.0792
     24 H8          4.1461   -0.9584    3.8180 H         1 <0>         0.1385
     25 H9          4.9996   -1.4337    6.0751 H         1 <0>         0.1330
     26 H10         7.1367   -2.6175    6.3634 H         1 <0>         0.1311
     27 H11         8.4335   -3.3316    4.3988 H         1 <0>         0.1344
     28 H12         7.5930   -2.8766    2.1326 H         1 <0>         0.1383
@<TRIPOS>BOND
     1    1    6 ar
     2    1    2 ar
     3    1   17 1
     4    2    3 ar
     5    2   18 1
     6    3    4 ar
     7    3   19 1
     8    4    5 ar
     9    4    7 1
    10    5    6 ar
    11    5   20 1
    12    6   21 1
    13    7    8 1
    14    7   22 1
    15    7   23 1
    16    8    9 1
    17    9   10 2
    18    9   11 1
    19   11   16 ar
    20   11   12 ar
    21   12   13 ar
    22   12   24 1
    23   13   14 ar
    24   13   25 1
    25   14   15 ar
    26   14   26 1
    27   15   16 ar
    28   15   27 1
    29   16   28 1
@<TRIPOS>MOLECULE
ZINC00601265
   64    66     0     0     0
SMALL
USER_CHARGES

@<TRIPOS>ATOM
      1 C1         -0.0215    0.6123    0.1122 C.3       1 <0>        -0.1028
      2 C2         -0.3328   -0.8583    0.2189 C.2       1 <0>         0.3018
      3 C3         -1.6378   -1.2584    0.1811 C.2       1 <0>        -0.3963
      4 C4         -1.9198   -2.7457    0.2903 C.3       1 <0>         0.1349
      5 H1         -2.5640   -2.9077    1.1544 H         1 <0>         0.0448
      6 C5         -0.7020   -3.6417    0.4318 C.2       1 <0>        -0.3929
      7 C6         -0.8244   -5.0097    0.5393 C.2       1 <0>         0.4764
      8 O1         -2.0446   -5.5700    0.6539 O.3       1 <0>        -0.6396
      9 O2          0.2760   -5.7875    0.5297 O.3       1 <0>        -0.3314
     10 C7          0.0749   -7.1976    0.6450 C.3       1 <0>         0.0366
     11 C8          0.5471   -3.0185    0.4479 C.2       1 <0>         0.3009
     12 N1          0.6696   -1.7151    0.3403 N.2       1 <0>        -0.6384
     13 C9          1.7873   -3.8634    0.5863 C.3       1 <0>        -0.1107
     14 C10        -2.6737   -3.1738   -0.9424 C.ar      1 <0>        -0.0312
     15 C11        -2.1014   -3.0188   -2.1913 C.ar      1 <0>        -0.0531
     16 C12        -2.7929   -3.4114   -3.3218 C.ar      1 <0>        -0.1220
     17 C13        -4.0567   -3.9594   -3.2037 C.ar      1 <0>        -0.0746
     18 C14        -4.6284   -4.1152   -1.9550 C.ar      1 <0>        -0.0609
     19 C15        -3.9350   -3.7264   -0.8239 C.ar      1 <0>        -0.0265
     20 N2         -5.9817   -4.7014   -1.8286 N.pl3     1 <0>         0.0436
     21 O3         -6.5868   -5.0441   -2.8175 O.2       1 <0>        -0.1681
     22 O4         -6.4818   -4.8377   -0.7363 O.3       1 <0>        -0.1847
     23 C16        -2.6820   -0.3267    0.0465 C.2       1 <0>         0.5291
     24 O5         -2.4304    0.8619   -0.0389 O.2       1 <0>        -0.5459
     25 O6         -3.9642   -0.7498    0.0119 O.3       1 <0>        -0.3748
     26 C17        -4.9743    0.2516   -0.1266 C.3       1 <0>         0.0360
     27 C18        -6.3522   -0.4132   -0.1463 C.3       1 <0>        -0.0015
     28 N3         -6.5959   -1.0731    1.1433 N.4       1 <0>        -0.3855
     29 C19        -7.8507   -1.8339    1.0746 C.3       1 <0>        -0.0535
     30 C20        -6.6954   -0.0589    2.2013 C.3       1 <0>         0.0378
     31 C21        -6.8226   -0.7399    3.5396 C.ar      1 <0>        -0.1561
     32 C22        -8.0724   -1.0566    4.0380 C.ar      1 <0>        -0.0972
     33 C23        -8.1890   -1.6813    5.2657 C.ar      1 <0>        -0.1170
     34 C24        -7.0557   -1.9897    5.9947 C.ar      1 <0>        -0.0868
     35 C25        -5.8058   -1.6739    5.4958 C.ar      1 <0>        -0.1114
     36 C26        -5.6890   -1.0530    4.2663 C.ar      1 <0>        -0.0880
     37 H2          1.0578    0.7592    0.1541 H         1 <0>         0.0608
     38 H3         -0.4041    0.9971   -0.8331 H         1 <0>         0.0790
     39 H4         -0.4928    1.1444    0.9385 H         1 <0>         0.0783
     40 H5          1.0393   -7.7051    0.6239 H         1 <0>         0.0906
     41 H6         -0.4306   -7.4168    1.5855 H         1 <0>         0.0542
     42 H7         -0.5375   -7.5464   -0.1865 H         1 <0>         0.0522
     43 H8          1.8838   -4.5125   -0.2840 H         1 <0>         0.0828
     44 H9          2.6618   -3.2164    0.6558 H         1 <0>         0.0686
     45 H10         1.7134   -4.4724    1.4873 H         1 <0>         0.0808
     46 H11        -1.1142   -2.5907   -2.2836 H         1 <0>         0.1321
     47 H12        -2.3461   -3.2897   -4.2976 H         1 <0>         0.1399
     48 H13        -4.5973   -4.2655   -4.0871 H         1 <0>         0.1441
     49 H14        -4.3802   -3.8516    0.1521 H         1 <0>         0.1359
     50 H15        -4.9169    0.9441    0.7131 H         1 <0>         0.0840
     51 H16        -4.8204    0.7964   -1.0581 H         1 <0>         0.1046
     52 H17        -7.1181    0.3432   -0.3179 H         1 <0>         0.1451
     53 H18        -6.3871   -1.1534   -0.9456 H         1 <0>         0.1335
     54 H19        -8.6655   -1.1662    0.7945 H         1 <0>         0.1201
     55 H20        -7.7562   -2.6241    0.3298 H         1 <0>         0.1277
     56 H21        -8.0615   -2.2757    2.0485 H         1 <0>         0.1261
     57 H22        -5.8004    0.5631    2.1937 H         1 <0>         0.1352
     58 H23        -7.5724    0.5642    2.0260 H         1 <0>         0.1352
     59 H24        -8.9578   -0.8157    3.4685 H         1 <0>         0.1301
     60 H25        -9.1656   -1.9281    5.6554 H         1 <0>         0.1335
     61 H26        -7.1469   -2.4772    6.9541 H         1 <0>         0.1332
     62 H27        -4.9204   -1.9145    6.0655 H         1 <0>         0.1352
     63 H28        -4.7123   -0.8096    3.8748 H         1 <0>         0.1327
     64 H29        -5.8331   -1.7005    1.3495 H         1 <0>         0.4337
@<TRIPOS>BOND
     1    1    2 1
     2    1   37 1
     3    1   38 1
     4    1   39 1
     5    2   12 1
     6    2    3 2
     7    3    4 1
     8    3   23 1
     9    4    5 1
    10    4    6 1
    11    4   14 1
    12    6    7 2
    13    6   11 1
    14    7    8 1
    15    7    9 1
    16    9   10 1
    17   10   40 1
    18   10   41 1
    19   10   42 1
    20   11   12 2
    21   11   13 1
    22   13   43 1
    23   13   44 1
    24   13   45 1
    25   14   19 ar
    26   14   15 ar
    27   15   16 ar
    28   15   46 1
    29   16   17 ar
    30   16   47 1
    31   17   18 ar
    32   17   48 1
    33   18   19 ar
    34   18   20 1
    35   19   49 1
    36   20   21 2
    37   20   22 1
    38   23   24 2
    39   23   25 1
    40   25   26 1
    41   26   27 1
    42   26   50 1
    43   26   51 1
    44   27   28 1
    45   27   52 1
    46   27   53 1
    47   28   29 1
    48   28   30 1
    49   28   64 1
    50   29   54 1
    51   29   55 1
    52   29   56 1
    53   30   31 1
    54   30   57 1
    55   30   58 1
    56   31   36 ar
    57   31   32 ar
    58   32   33 ar
    59   32   59 1
    60   33   34 ar
    61   33   60 1
    62   34   35 ar
    63   34   61 1
    64   35   36 ar
    65   35   62 1
    66   36   63 1
@<TRIPOS>MOLECULE
ZINC00601265
   63    65     0     0     0
SMALL
USER_CHARGES

@<TRIPOS>ATOM
      1 C1          0.3477    0.3184   -0.5725 C.3       1 <0>        -0.0952
      2 C2          0.1335   -1.1442   -0.2795 C.2       1 <0>         0.2774
      3 C3         -1.1446   -1.6156   -0.1863 C.2       1 <0>        -0.3695
      4 C4         -1.3284   -3.0930    0.1092 C.3       1 <0>         0.1300
      5 H1         -1.9098   -3.1871    1.0264 H         1 <0>         0.0509
      6 C5         -0.0520   -3.8994    0.2716 C.2       1 <0>        -0.3955
      7 C6         -0.0842   -5.2500    0.5414 C.2       1 <0>         0.4702
      8 O1         -1.2599   -5.8592    0.7916 O.3       1 <0>        -0.6399
      9 O2          1.0600   -5.9618    0.5551 O.3       1 <0>        -0.3356
     10 C7          0.9523   -7.3575    0.8421 C.3       1 <0>         0.0382
     11 C8          1.1555   -3.2122    0.1352 C.2       1 <0>         0.2937
     12 N1          1.1917   -1.9257   -0.1273 N.2       1 <0>        -0.6436
     13 C9          2.4510   -3.9671    0.2873 C.3       1 <0>        -0.1041
     14 C10        -2.1258   -3.7024   -1.0150 C.ar      1 <0>        -0.0275
     15 C11        -1.6384   -3.6641   -2.3082 C.ar      1 <0>        -0.0603
     16 C12        -2.3697   -4.2230   -3.3393 C.ar      1 <0>        -0.1314
     17 C13        -3.5886   -4.8207   -3.0773 C.ar      1 <0>        -0.0813
     18 C14        -4.0755   -4.8597   -1.7844 C.ar      1 <0>        -0.0577
     19 C15        -3.3419   -4.3045   -0.7524 C.ar      1 <0>        -0.0011
     20 N2         -5.3807   -5.4991   -1.5041 N.pl3     1 <0>         0.0447
     21 O3         -6.0208   -5.9873   -2.4061 O.2       1 <0>        -0.1905
     22 O4         -5.8066   -5.5333   -0.3731 O.3       1 <0>        -0.1619
     23 C16        -2.2498   -0.7637   -0.3572 C.2       1 <0>         0.5224
     24 O5         -2.0766    0.4185   -0.5932 O.2       1 <0>        -0.5614
     25 O6         -3.5037   -1.2563   -0.2597 O.3       1 <0>        -0.3367
     26 C17        -4.5793   -0.3339   -0.4448 C.3       1 <0>         0.0766
     27 C18        -5.9129   -1.0696   -0.2988 C.3       1 <0>         0.0591
     28 N3         -6.0415   -1.5829    1.0716 N.3       1 <0>        -0.5218
     29 C19        -7.0931   -2.6053    1.1543 C.3       1 <0>         0.0213
     30 C20        -6.2931   -0.4908    2.0214 C.3       1 <0>         0.0901
     31 C21        -6.1754   -1.0131    3.4300 C.ar      1 <0>        -0.0729
     32 C22        -7.2871   -1.5253    4.0724 C.ar      1 <0>        -0.1145
     33 C23        -7.1792   -2.0044    5.3646 C.ar      1 <0>        -0.1243
     34 C24        -5.9594   -1.9717    6.0142 C.ar      1 <0>        -0.1221
     35 C25        -4.8475   -1.4604    5.3715 C.ar      1 <0>        -0.1196
     36 C26        -4.9545   -0.9852    4.0778 C.ar      1 <0>        -0.0918
     37 H2          1.4166    0.5270   -0.6182 H         1 <0>         0.0535
     38 H3         -0.1125    0.5687   -1.5284 H         1 <0>         0.0754
     39 H4         -0.1059    0.9174    0.2171 H         1 <0>         0.0758
     40 H5          0.3195   -7.8346    0.0937 H         1 <0>         0.0497
     41 H6          1.9436   -7.8102    0.8217 H         1 <0>         0.0850
     42 H7          0.5116   -7.4924    1.8299 H         1 <0>         0.0518
     43 H8          2.5271   -4.7200   -0.4972 H         1 <0>         0.0784
     44 H9          3.2875   -3.2730    0.2072 H         1 <0>         0.0632
     45 H10         2.4752   -4.4544    1.2621 H         1 <0>         0.0765
     46 H11        -0.6862   -3.1972   -2.5128 H         1 <0>         0.1274
     47 H12        -1.9893   -4.1925   -4.3496 H         1 <0>         0.1333
     48 H13        -4.1604   -5.2567   -3.8831 H         1 <0>         0.1382
     49 H14        -3.7206   -4.3382    0.2585 H         1 <0>         0.1450
     50 H15        -4.5151    0.4542    0.3054 H         1 <0>         0.0587
     51 H16        -4.5139    0.1056   -1.4401 H         1 <0>         0.0592
     52 H17        -6.7321   -0.3816   -0.5074 H         1 <0>         0.0507
     53 H18        -5.9482   -1.9009   -1.0029 H         1 <0>         0.0787
     54 H19        -6.8349   -3.4450    0.5091 H         1 <0>         0.0773
     55 H20        -7.1825   -2.9521    2.1837 H         1 <0>         0.0740
     56 H21        -8.0421   -2.1773    0.8314 H         1 <0>         0.0179
     57 H22        -5.5616    0.3020    1.8655 H         1 <0>         0.0819
     58 H23        -7.2965   -0.0956    1.8630 H         1 <0>         0.0391
     59 H24        -8.2401   -1.5509    3.5649 H         1 <0>         0.1162
     60 H25        -8.0479   -2.4039    5.8668 H         1 <0>         0.1180
     61 H26        -5.8752   -2.3454    7.0240 H         1 <0>         0.1178
     62 H27        -3.8946   -1.4345    5.8792 H         1 <0>         0.1204
     63 H28        -4.0850   -0.5892    3.5743 H         1 <0>         0.1223
@<TRIPOS>BOND
     1    1    2 1
     2    1   37 1
     3    1   38 1
     4    1   39 1
     5    2   12 1
     6    2    3 2
     7    3    4 1
     8    3   23 1
     9    4    5 1
    10    4    6 1
    11    4   14 1
    12    6    7 2
    13    6   11 1
    14    7    8 1
    15    7    9 1
    16    9   10 1
    17   10   40 1
    18   10   41 1
    19   10   42 1
    20   11   12 2
    21   11   13 1
    22   13   43 1
    23   13   44 1
    24   13   45 1
    25   14   19 ar
    26   14   15 ar
    27   15   16 ar
    28   15   46 1
    29   16   17 ar
    30   16   47 1
    31   17   18 ar
    32   17   48 1
    33   18   19 ar
    34   18   20 1
    35   19   49 1
    36   20   21 2
    37   20   22 1
    38   23   24 2
    39   23   25 1
    40   25   26 1
    41   26   27 1
    42   26   50 1
    43   26   51 1
    44   27   28 1
    45   27   52 1
    46   27   53 1
    47   28   29 1
    48   28   30 1
    49   29   54 1
    50   29   55 1
    51   29   56 1
    52   30   31 1
    53   30   57 1
    54   30   58 1
    55   31   36 ar
    56   31   32 ar
    57   32   33 ar
    58   32   59 1
    59   33   34 ar
    60   33   60 1
    61   34   35 ar
    62   34   61 1
    63   35   36 ar
    64   35   62 1
    65   36   63 1
@<TRIPOS>MOLECULE
ZINC00601265
   63    65     0     0     0
SMALL
USER_CHARGES

@<TRIPOS>ATOM
      1 C1         -0.1447    1.4930    0.1304 C.3       1 <0>        -0.0959
      2 C2         -0.0591   -0.0099    0.0595 C.2       1 <0>         0.2818
      3 C3         -1.2163   -0.7321   -0.0018 C.2       1 <0>        -0.3765
      4 C4         -1.0979   -2.2435   -0.0729 C.3       1 <0>         0.1154
      5 H1         -1.6327   -2.6674    0.7770 H         1 <0>         0.0503
      6 C5          0.3158   -2.7977   -0.0682 C.2       1 <0>        -0.3978
      7 C6          0.5572   -4.1527   -0.1294 C.2       1 <0>         0.4742
      8 O1          1.8205   -4.6076   -0.2441 O.3       1 <0>        -0.6458
      9 O2         -0.4701   -5.0232   -0.0744 O.3       1 <0>        -0.3361
     10 C7         -0.1467   -6.4134   -0.1432 C.3       1 <0>         0.0434
     11 C8          1.3603   -1.8740    0.0004 C.2       1 <0>         0.3161
     12 N1          1.1357   -0.5809    0.0534 N.2       1 <0>        -0.6451
     13 C9          2.7823   -2.3730    0.0080 C.3       1 <0>        -0.0919
     14 C10        -1.7783   -2.7103   -1.3340 C.ar      1 <0>        -0.0335
     15 C11        -1.3310   -2.2679   -2.5651 C.ar      1 <0>        -0.0540
     16 C12        -1.9550   -2.6960   -3.7217 C.ar      1 <0>        -0.1278
     17 C13        -3.0261   -3.5670   -3.6476 C.ar      1 <0>        -0.0789
     18 C14        -3.4727   -4.0100   -2.4168 C.ar      1 <0>        -0.0571
     19 C15        -2.8458   -3.5851   -1.2601 C.ar      1 <0>        -0.0180
     20 N2         -4.6198   -4.9421   -2.3374 N.pl3     1 <0>         0.0451
     21 O3         -5.1661   -5.3159   -3.3491 O.2       1 <0>        -0.1871
     22 O4         -5.0104   -5.3296   -1.2609 O.3       1 <0>        -0.1641
     23 C16        -2.4715   -0.0988    0.0013 C.2       1 <0>         0.5223
     24 O5         -2.5407    1.1158    0.0595 O.2       1 <0>        -0.5622
     25 O6         -3.6007   -0.8374   -0.0601 O.3       1 <0>        -0.3389
     26 C17        -4.8411   -0.1280   -0.0529 C.3       1 <0>         0.0759
     27 C18        -5.9993   -1.1249   -0.1277 C.3       1 <0>         0.0599
     28 N3         -6.0156   -1.9487    1.0885 N.3       1 <0>        -0.5221
     29 C19        -6.3302   -1.1356    2.2708 C.3       1 <0>         0.0183
     30 C20        -6.9574   -3.0680    0.9536 C.3       1 <0>         0.0949
     31 C21        -6.7714   -4.0224    2.1049 C.ar      1 <0>        -0.0741
     32 C22        -5.8690   -5.0643    2.0001 C.ar      1 <0>        -0.0860
     33 C23        -5.6984   -5.9399    3.0561 C.ar      1 <0>        -0.1208
     34 C24        -6.4299   -5.7732    4.2172 C.ar      1 <0>        -0.1230
     35 C25        -7.3317   -4.7308    4.3223 C.ar      1 <0>        -0.1286
     36 C26        -7.4991   -3.8527    3.2679 C.ar      1 <0>        -0.1172
     37 H2          0.8605    1.9128    0.1687 H         1 <0>         0.0540
     38 H3         -0.6623    1.8695   -0.7519 H         1 <0>         0.0755
     39 H4         -0.6942    1.7838    1.0257 H         1 <0>         0.0760
     40 H5          0.5050   -6.6765    0.6899 H         1 <0>         0.0524
     41 H6         -1.0622   -7.0025   -0.0885 H         1 <0>         0.0837
     42 H7          0.3636   -6.6217   -1.0836 H         1 <0>         0.0491
     43 H8          2.9907   -2.8906   -0.9284 H         1 <0>         0.0816
     44 H9          3.4631   -1.5287    0.1158 H         1 <0>         0.0493
     45 H10         2.9215   -3.0608    0.8421 H         1 <0>         0.0790
     46 H11        -0.4943   -1.5875   -2.6231 H         1 <0>         0.1294
     47 H12        -1.6061   -2.3498   -4.6834 H         1 <0>         0.1350
     48 H13        -3.5141   -3.9010   -4.5513 H         1 <0>         0.1397
     49 H14        -3.1923   -3.9342   -0.2986 H         1 <0>         0.1456
     50 H15        -4.9215    0.4541    0.8652 H         1 <0>         0.0605
     51 H16        -4.8819    0.5414   -0.9122 H         1 <0>         0.0590
     52 H17        -6.9409   -0.5823   -0.2117 H         1 <0>         0.0491
     53 H18        -5.8706   -1.7666   -0.9994 H         1 <0>         0.0778
     54 H19        -7.3112   -0.6772    2.1460 H         1 <0>         0.0209
     55 H20        -6.3358   -1.7701    3.1571 H         1 <0>         0.0737
     56 H21        -5.5771   -0.3562    2.3867 H         1 <0>         0.0689
     57 H22        -7.9784   -2.6865    0.9592 H         1 <0>         0.0369
     58 H23        -6.7696   -3.5897    0.0152 H         1 <0>         0.0861
     59 H24        -5.2975   -5.1945    1.0930 H         1 <0>         0.1362
     60 H25        -4.9939   -6.7543    2.9740 H         1 <0>         0.1204
     61 H26        -6.2972   -6.4577    5.0420 H         1 <0>         0.1161
     62 H27        -7.9035   -4.6008    5.2293 H         1 <0>         0.1156
     63 H28        -8.2009   -3.0361    3.3514 H         1 <0>         0.1134
@<TRIPOS>BOND
     1    1    2 1
     2    1   37 1
     3    1   38 1
     4    1   39 1
     5    2   12 1
     6    2    3 2
     7    3    4 1
     8    3   23 1
     9    4    5 1
    10    4    6 1
    11    4   14 1
    12    6    7 2
    13    6   11 1
    14    7    8 1
    15    7    9 1
    16    9   10 1
    17   10   40 1
    18   10   41 1
    19   10   42 1
    20   11   12 2
    21   11   13 1
    22   13   43 1
    23   13   44 1
    24   13   45 1
    25   14   19 ar
    26   14   15 ar
    27   15   16 ar
    28   15   46 1
    29   16   17 ar
    30   16   47 1
    31   17   18 ar
    32   17   48 1
    33   18   19 ar
    34   18   20 1
    35   19   49 1
    36   20   21 2
    37   20   22 1
    38   23   24 2
    39   23   25 1
    40   25   26 1
    41   26   27 1
    42   26   50 1
    43   26   51 1
    44   27   28 1
    45   27   52 1
    46   27   53 1
    47   28   29 1
    48   28   30 1
    49   29   54 1
    50   29   55 1
    51   29   56 1
    52   30   31 1
    53   30   57 1
    54   30   58 1
    55   31   36 ar
    56   31   32 ar
    57   32   33 ar
    58   32   59 1
    59   33   34 ar
    60   33   60 1
    61   34   35 ar
    62   34   61 1
    63   35   36 ar
    64   35   62 1
    65   36   63 1
@<TRIPOS>MOLECULE
ZINC00601265
   63    65     0     0     0
SMALL
USER_CHARGES

@<TRIPOS>ATOM
      1 C1          2.1844    2.5720   -0.5351 C.3       1 <0>        -0.0963
      2 C2          1.8111    1.1121   -0.5586 C.2       1 <0>         0.2822
      3 C3          0.5003    0.7714   -0.7317 C.2       1 <0>        -0.3777
      4 C4          0.1555   -0.7065   -0.7514 C.3       1 <0>         0.1288
      5 H1         -0.3264   -0.9311   -1.7030 H         1 <0>         0.0459
      6 C5          1.3231   -1.6611   -0.5740 C.2       1 <0>        -0.3946
      7 C6          1.1417   -3.0267   -0.5739 C.2       1 <0>         0.4728
      8 O1         -0.1032   -3.5411   -0.6154 O.3       1 <0>        -0.6448
      9 O2          2.2091   -3.8482   -0.5325 O.3       1 <0>        -0.3142
     10 C7          1.9543   -5.2495   -0.6494 C.3       1 <0>         0.0740
     11 C8          3.2618   -6.0226   -0.4659 C.3       1 <0>         0.0568
     12 N1          4.1676   -5.7250   -1.5834 N.3       1 <0>        -0.5256
     13 C9          3.7300   -6.4030   -2.8108 C.3       1 <0>         0.0173
     14 C10         5.5522   -6.0840   -1.2487 C.3       1 <0>         0.0938
     15 C11         6.4806   -5.5452   -2.3064 C.ar      1 <0>        -0.0753
     16 C12         6.7875   -6.3141   -3.4134 C.ar      1 <0>        -0.1161
     17 C13         7.6391   -5.8198   -4.3837 C.ar      1 <0>        -0.1247
     18 C14         8.1834   -4.5565   -4.2471 C.ar      1 <0>        -0.1224
     19 C15         7.8757   -3.7872   -3.1406 C.ar      1 <0>        -0.1199
     20 C16         7.0208   -4.2798   -2.1725 C.ar      1 <0>        -0.0931
     21 C17         2.5884   -1.0942   -0.4114 C.2       1 <0>         0.2970
     22 N2          2.7674    0.2071   -0.4161 N.2       1 <0>        -0.6442
     23 C18         3.7804   -1.9985   -0.2315 C.3       1 <0>        -0.1018
     24 C19        -0.8373   -0.9732    0.3505 C.ar      1 <0>        -0.0218
     25 C20        -0.5016   -0.7021    1.6640 C.ar      1 <0>        -0.0597
     26 C21        -1.4122   -0.9467    2.6746 C.ar      1 <0>        -0.1294
     27 C22        -2.6589   -1.4620    2.3720 C.ar      1 <0>        -0.0809
     28 C23        -2.9949   -1.7322    1.0588 C.ar      1 <0>        -0.0554
     29 C24        -2.0855   -1.4835    0.0474 C.ar      1 <0>        -0.0069
     30 N3         -4.3294   -2.2845    0.7349 N.pl3     1 <0>         0.0445
     31 O3         -5.1256   -2.4992    1.6190 O.2       1 <0>        -0.1855
     32 O4         -4.6233   -2.5208   -0.4138 O.3       1 <0>        -0.1687
     33 C25        -0.4937    1.7537   -0.8854 C.2       1 <0>         0.5216
     34 O5         -0.1922    2.9335   -0.8656 O.2       1 <0>        -0.5579
     35 O6         -1.7831    1.3889   -1.0551 O.3       1 <0>        -0.3600
     36 C26        -2.7402    2.4394   -1.2050 C.3       1 <0>         0.0413
     37 H2          3.2609    2.6695   -0.3945 H         1 <0>         0.0545
     38 H3          1.8978    3.0355   -1.4791 H         1 <0>         0.0763
     39 H4          1.6644    3.0668    0.2852 H         1 <0>         0.0753
     40 H5          1.2414   -5.5543    0.1167 H         1 <0>         0.0643
     41 H6          1.5414   -5.4626   -1.6354 H         1 <0>         0.0590
     42 H7          3.7313   -5.7251    0.4717 H         1 <0>         0.0834
     43 H8          3.0515   -7.0919   -0.4436 H         1 <0>         0.0518
     44 H9          2.7493   -6.0278   -3.1033 H         1 <0>         0.0702
     45 H10         4.4464   -6.2080   -3.6088 H         1 <0>         0.0728
     46 H11         3.6695   -7.4764   -2.6311 H         1 <0>         0.0227
     47 H12         5.8152   -5.6551   -0.2817 H         1 <0>         0.0845
     48 H13         5.6451   -7.1690   -1.2022 H         1 <0>         0.0392
     49 H14         6.3623   -7.3011   -3.5201 H         1 <0>         0.1159
     50 H15         7.8795   -6.4208   -5.2482 H         1 <0>         0.1178
     51 H16         8.8493   -4.1706   -5.0048 H         1 <0>         0.1181
     52 H17         8.3012   -2.8003   -3.0338 H         1 <0>         0.1216
     53 H18         6.7774   -3.6773   -1.3098 H         1 <0>         0.1257
     54 H19         3.9161   -2.6034   -1.1280 H         1 <0>         0.0892
     55 H20         4.6721   -1.3950   -0.0620 H         1 <0>         0.0588
     56 H21         3.6152   -2.6513    0.6256 H         1 <0>         0.0734
     57 H22         0.4722   -0.2995    1.9004 H         1 <0>         0.1272
     58 H23        -1.1497   -0.7355    3.7007 H         1 <0>         0.1337
     59 H24        -3.3702   -1.6538    3.1617 H         1 <0>         0.1390
     60 H25        -2.3494   -1.6912   -0.9791 H         1 <0>         0.1407
     61 H26        -3.7338    2.0101   -1.3331 H         1 <0>         0.0861
     62 H27        -2.7289    3.0708   -0.3165 H         1 <0>         0.0486
     63 H28        -2.4878    3.0387   -2.0798 H         1 <0>         0.0509
@<TRIPOS>BOND
     1    1    2 1
     2    1   37 1
     3    1   38 1
     4    1   39 1
     5    2   22 1
     6    2    3 2
     7    3    4 1
     8    3   33 1
     9    4    5 1
    10    4    6 1
    11    4   24 1
    12    6    7 2
    13    6   21 1
    14    7    8 1
    15    7    9 1
    16    9   10 1
    17   10   11 1
    18   10   40 1
    19   10   41 1
    20   11   12 1
    21   11   42 1
    22   11   43 1
    23   12   13 1
    24   12   14 1
    25   13   44 1
    26   13   45 1
    27   13   46 1
    28   14   15 1
    29   14   47 1
    30   14   48 1
    31   15   20 ar
    32   15   16 ar
    33   16   17 ar
    34   16   49 1
    35   17   18 ar
    36   17   50 1
    37   18   19 ar
    38   18   51 1
    39   19   20 ar
    40   19   52 1
    41   20   53 1
    42   21   22 2
    43   21   23 1
    44   23   54 1
    45   23   55 1
    46   23   56 1
    47   24   29 ar
    48   24   25 ar
    49   25   26 ar
    50   25   57 1
    51   26   27 ar
    52   26   58 1
    53   27   28 ar
    54   27   59 1
    55   28   29 ar
    56   28   30 1
    57   29   60 1
    58   30   31 2
    59   30   32 1
    60   33   34 2
    61   33   35 1
    62   35   36 1
    63   36   61 1
    64   36   62 1
    65   36   63 1
@<TRIPOS>MOLECULE
ZINC19796087
   65    67     0     0     0
SMALL
USER_CHARGES

@<TRIPOS>ATOM
      1 C1          0.7782    1.5823    1.6623 C.3       1 <0>        -0.1212
      2 C2          0.7333    0.1247    1.2822 C.2       1 <0>         0.2410
      3 C3         -0.4478   -0.4515    0.9991 C.2       1 <0>        -0.2540
      4 C4         -0.5393   -1.8991    0.6077 C.3       1 <0>         0.0879
      5 H1         -1.3770   -2.3601    1.1311 H         1 <0>         0.1033
      6 C5          0.7263   -2.6270    0.9620 C.2       1 <0>        -0.2441
      7 C6          1.8602   -1.9635    1.2466 C.2       1 <0>         0.2018
      8 N1          1.8957   -0.5946    1.2241 N.pl3     1 <0>        -0.6286
      9 C7          3.1084   -2.7355    1.5887 C.3       1 <0>        -0.1352
     10 C8          0.7246   -4.0407    0.9973 C.2       1 <0>         0.5449
     11 O1          0.1953   -4.6255    1.9239 O.2       1 <0>        -0.4703
     12 O2          1.3099   -4.7412    0.0034 O.3       1 <0>        -0.3657
     13 C9          1.3697   -6.1605    0.1581 C.3       1 <0>         0.0268
     14 C10         2.1674   -6.7665   -0.9984 C.3       1 <0>        -0.0026
     15 N2          3.5533   -6.2825   -0.9440 N.4       1 <0>        -0.3868
     16 C11         4.2074   -6.8053    0.2630 C.3       1 <0>        -0.0595
     17 C12         4.2803   -6.7442   -2.1340 C.3       1 <0>         0.0430
     18 C13         5.6576   -6.1328   -2.1499 C.ar      1 <0>        -0.1619
     19 C14         5.8461   -4.8675   -2.6738 C.ar      1 <0>        -0.0964
     20 C15         7.1095   -4.3067   -2.6884 C.ar      1 <0>        -0.1131
     21 C16         8.1843   -5.0109   -2.1786 C.ar      1 <0>        -0.0834
     22 C17         7.9956   -6.2758   -1.6538 C.ar      1 <0>        -0.1132
     23 C18         6.7315   -6.8349   -1.6353 C.ar      1 <0>        -0.0931
     24 C19        -0.7680   -1.9978   -0.8785 C.ar      1 <0>        -0.0751
     25 C20         0.1118   -1.3903   -1.7552 C.ar      1 <0>        -0.0538
     26 C21        -0.0980   -1.4808   -3.1183 C.ar      1 <0>        -0.1162
     27 C22        -1.1873   -2.1792   -3.6052 C.ar      1 <0>        -0.0554
     28 C23        -2.0663   -2.7872   -2.7289 C.ar      1 <0>        -0.0434
     29 C24        -1.8541   -2.7003   -1.3655 C.ar      1 <0>        -0.0412
     30 N3         -3.2328   -3.5345   -3.2502 N.pl3     1 <0>         0.0293
     31 O3         -3.3658   -3.6934   -4.4413 O.2       1 <0>        -0.1536
     32 O4         -4.0526   -3.9860   -2.4849 O.3       1 <0>        -0.1516
     33 C25        -1.6297    0.3216    1.0717 C.2       1 <0>         0.5149
     34 O5         -1.5706    1.4952    1.3877 O.2       1 <0>        -0.5108
     35 O6         -2.8231   -0.2423    0.7905 O.3       1 <0>        -0.3516
     36 C26        -3.9755    0.5975    0.8839 C.3       1 <0>         0.0353
     37 H2          1.8105    1.8770    1.8509 H         1 <0>         0.0676
     38 H3          0.3719    2.1827    0.8483 H         1 <0>         0.1065
     39 H4          0.1846    1.7415    2.5625 H         1 <0>         0.1091
     40 H5          2.7471   -0.1328    1.1708 H         1 <0>         0.4275
     41 H6          3.7035   -2.8821    0.6873 H         1 <0>         0.0911
     42 H7          3.6910   -2.1779    2.3220 H         1 <0>         0.0956
     43 H8          2.8336   -3.7050    2.0043 H         1 <0>         0.0811
     44 H9          1.8576   -6.4028    1.1022 H         1 <0>         0.0947
     45 H10         0.3592   -6.5692    0.1560 H         1 <0>         0.1179
     46 H11         2.1585   -7.8533   -0.9158 H         1 <0>         0.1538
     47 H12         1.7161   -6.4704   -1.9454 H         1 <0>         0.1435
     48 H13         3.6679   -6.4627    1.1460 H         1 <0>         0.1210
     49 H14         4.2039   -7.8949    0.2351 H         1 <0>         0.1279
     50 H15         5.2358   -6.4462    0.3034 H         1 <0>         0.1275
     51 H16         4.3653   -7.8306   -2.1090 H         1 <0>         0.1383
     52 H17         3.7386   -6.4427   -3.0305 H         1 <0>         0.1383
     53 H18         5.0064   -4.3174   -3.0721 H         1 <0>         0.1300
     54 H19         7.2569   -3.3185   -3.0983 H         1 <0>         0.1357
     55 H20         9.1714   -4.5730   -2.1906 H         1 <0>         0.1360
     56 H21         8.8353   -6.8261   -1.2558 H         1 <0>         0.1366
     57 H22         6.5834   -7.8216   -1.2220 H         1 <0>         0.1320
     58 H23         0.9627   -0.8448   -1.3748 H         1 <0>         0.1320
     59 H24         0.5889   -1.0057   -3.8031 H         1 <0>         0.1474
     60 H25        -1.3516   -2.2493   -4.6704 H         1 <0>         0.1544
     61 H26        -2.5389   -3.1786   -0.6808 H         1 <0>         0.1527
     62 H27        -4.8662    0.0214    0.6331 H         1 <0>         0.1038
     63 H28        -4.0647    0.9802    1.9006 H         1 <0>         0.0637
     64 H29        -3.8747    1.4314    0.1893 H         1 <0>         0.0611
     65 H30         3.5565   -5.2738   -0.9182 H         1 <0>         0.4270
@<TRIPOS>BOND
     1    1    2 1
     2    1   37 1
     3    1   38 1
     4    1   39 1
     5    2    8 1
     6    2    3 2
     7    3    4 1
     8    3   33 1
     9    4    5 1
    10    4    6 1
    11    4   24 1
    12    6    7 2
    13    6   10 1
    14    7    8 1
    15    7    9 1
    16    8   40 1
    17    9   41 1
    18    9   42 1
    19    9   43 1
    20   10   11 2
    21   10   12 1
    22   12   13 1
    23   13   14 1
    24   13   44 1
    25   13   45 1
    26   14   15 1
    27   14   46 1
    28   14   47 1
    29   15   16 1
    30   15   17 1
    31   15   65 1
    32   16   48 1
    33   16   49 1
    34   16   50 1
    35   17   18 1
    36   17   51 1
    37   17   52 1
    38   18   23 ar
    39   18   19 ar
    40   19   20 ar
    41   19   53 1
    42   20   21 ar
    43   20   54 1
    44   21   22 ar
    45   21   55 1
    46   22   23 ar
    47   22   56 1
    48   23   57 1
    49   24   29 ar
    50   24   25 ar
    51   25   26 ar
    52   25   58 1
    53   26   27 ar
    54   26   59 1
    55   27   28 ar
    56   27   60 1
    57   28   29 ar
    58   28   30 1
    59   29   61 1
    60   30   31 2
    61   30   32 1
    62   33   34 2
    63   33   35 1
    64   35   36 1
    65   36   62 1
    66   36   63 1
    67   36   64 1
@<TRIPOS>MOLECULE
ZINC19796087
   63    65     0     0     0
SMALL
USER_CHARGES

@<TRIPOS>ATOM
      1 C1          0.2573    1.4152   -0.0519 C.3       1 <0>        -0.0967
      2 C2         -0.2176    0.0503   -0.4791 C.2       1 <0>         0.2779
      3 C3         -1.5528   -0.1459   -0.6868 C.2       1 <0>        -0.3722
      4 C4         -2.0005   -1.5309   -1.1169 C.3       1 <0>         0.1293
      5 H1         -2.5192   -1.4401   -2.0713 H         1 <0>         0.0469
      6 C5         -0.8987   -2.5643   -1.2722 C.2       1 <0>        -0.3956
      7 C6         -1.1751   -3.8576   -1.6580 C.2       1 <0>         0.4704
      8 O1         -2.4249   -4.1970   -2.0308 O.3       1 <0>        -0.6403
      9 O2         -0.1958   -4.7833   -1.6627 O.3       1 <0>        -0.3354
     10 C7         -0.5536   -6.1042   -2.0741 C.3       1 <0>         0.0383
     11 C8          0.4067   -2.1462   -1.0074 C.2       1 <0>         0.2947
     12 N1          0.6761   -0.9128   -0.6445 N.2       1 <0>        -0.6433
     13 C9          1.5364   -3.1338   -1.1470 C.3       1 <0>        -0.1042
     14 C10        -2.9833   -2.0459   -0.0972 C.ar      1 <0>        -0.0269
     15 C11        -2.6681   -2.0061    1.2484 C.ar      1 <0>        -0.0551
     16 C12        -3.5695   -2.4784    2.1836 C.ar      1 <0>        -0.1253
     17 C13        -4.7867   -2.9903    1.7736 C.ar      1 <0>        -0.0781
     18 C14        -5.1021   -3.0293    0.4285 C.ar      1 <0>        -0.0522
     19 C15        -4.2022   -2.5529   -0.5067 C.ar      1 <0>        -0.0028
     20 N2         -6.4050   -3.5778   -0.0105 N.pl3     1 <0>         0.0445
     21 O3         -7.2078   -3.9583    0.8094 O.2       1 <0>        -0.1831
     22 O4         -6.6662   -3.6454   -1.1890 O.3       1 <0>        -0.1704
     23 C16        -2.4790    0.8965   -0.5082 C.2       1 <0>         0.5253
     24 O5         -2.0869    2.0281   -0.2864 O.2       1 <0>        -0.5595
     25 O6         -3.8036    0.6432   -0.5826 O.3       1 <0>        -0.3439
     26 C17        -4.6838    1.7670   -0.5165 C.3       1 <0>         0.0756
     27 C18        -6.1340    1.2794   -0.5129 C.3       1 <0>         0.0550
     28 N3         -6.4989    0.8385    0.8401 N.3       1 <0>        -0.5271
     29 C19        -6.5712    1.9785    1.7637 C.3       1 <0>         0.0190
     30 C20        -7.7632    0.0906    0.8269 C.3       1 <0>         0.0962
     31 C21        -8.0622   -0.4152    2.2147 C.ar      1 <0>        -0.0800
     32 C22        -7.4894   -1.5919    2.6597 C.ar      1 <0>        -0.0918
     33 C23        -7.7636   -2.0558    3.9327 C.ar      1 <0>        -0.1178
     34 C24        -8.6102   -1.3428    4.7608 C.ar      1 <0>        -0.1208
     35 C25        -9.1823   -0.1656    4.3160 C.ar      1 <0>        -0.1273
     36 C26        -8.9047    0.3006    3.0446 C.ar      1 <0>        -0.1152
     37 H2          1.3410    1.4028    0.0648 H         1 <0>         0.0543
     38 H3         -0.0183    2.1493   -0.8090 H         1 <0>         0.0801
     39 H4         -0.2073    1.6808    0.8977 H         1 <0>         0.0718
     40 H5         -0.9348   -6.0760   -3.0949 H         1 <0>         0.0520
     41 H6          0.3248   -6.7483   -2.0319 H         1 <0>         0.0850
     42 H7         -1.3235   -6.4957   -1.4093 H         1 <0>         0.0499
     43 H8          1.5221   -3.5628   -2.1489 H         1 <0>         0.0772
     44 H9          2.4862   -2.6248   -0.9832 H         1 <0>         0.0634
     45 H10         1.4178   -3.9280   -0.4100 H         1 <0>         0.0782
     46 H11        -1.7174   -1.6062    1.5687 H         1 <0>         0.1253
     47 H12        -3.3230   -2.4479    3.2346 H         1 <0>         0.1313
     48 H13        -5.4907   -3.3600    2.5043 H         1 <0>         0.1365
     49 H14        -4.4502   -2.5799   -1.5575 H         1 <0>         0.1417
     50 H15        -4.4872    2.3293    0.3963 H         1 <0>         0.0653
     51 H16        -4.5186    2.4092   -1.3816 H         1 <0>         0.0596
     52 H17        -6.7916    2.0928   -0.8196 H         1 <0>         0.0512
     53 H18        -6.2389    0.4459   -1.2073 H         1 <0>         0.0865
     54 H19        -7.3233    2.6844    1.4115 H         1 <0>         0.0227
     55 H20        -6.8431    1.6239    2.7579 H         1 <0>         0.0724
     56 H21        -5.6008    2.4730    1.8072 H         1 <0>         0.0694
     57 H22        -8.5696    0.7459    0.4975 H         1 <0>         0.0405
     58 H23        -7.6788   -0.7538    0.1428 H         1 <0>         0.0767
     59 H24        -6.8280   -2.1490    2.0128 H         1 <0>         0.1305
     60 H25        -7.3167   -2.9756    4.2802 H         1 <0>         0.1204
     61 H26        -8.8250   -1.7056    5.7551 H         1 <0>         0.1179
     62 H27        -9.8440    0.3913    4.9629 H         1 <0>         0.1173
     63 H28        -9.3487    1.2223    2.6985 H         1 <0>         0.1146
@<TRIPOS>BOND
     1    1    2 1
     2    1   37 1
     3    1   38 1
     4    1   39 1
     5    2   12 1
     6    2    3 2
     7    3    4 1
     8    3   23 1
     9    4    5 1
    10    4    6 1
    11    4   14 1
    12    6    7 2
    13    6   11 1
    14    7    8 1
    15    7    9 1
    16    9   10 1
    17   10   40 1
    18   10   41 1
    19   10   42 1
    20   11   12 2
    21   11   13 1
    22   13   43 1
    23   13   44 1
    24   13   45 1
    25   14   19 ar
    26   14   15 ar
    27   15   16 ar
    28   15   46 1
    29   16   17 ar
    30   16   47 1
    31   17   18 ar
    32   17   48 1
    33   18   19 ar
    34   18   20 1
    35   19   49 1
    36   20   21 2
    37   20   22 1
    38   23   24 2
    39   23   25 1
    40   25   26 1
    41   26   27 1
    42   26   50 1
    43   26   51 1
    44   27   28 1
    45   27   52 1
    46   27   53 1
    47   28   29 1
    48   28   30 1
    49   29   54 1
    50   29   55 1
    51   29   56 1
    52   30   31 1
    53   30   57 1
    54   30   58 1
    55   31   36 ar
    56   31   32 ar
    57   32   33 ar
    58   32   59 1
    59   33   34 ar
    60   33   60 1
    61   34   35 ar
    62   34   61 1
    63   35   36 ar
    64   35   62 1
    65   36   63 1
@<TRIPOS>MOLECULE
ZINC19796087
   63    65     0     0     0
SMALL
USER_CHARGES

@<TRIPOS>ATOM
      1 C1          1.3947   -0.2351    1.5837 C.3       1 <0>        -0.0963
      2 C2          1.2348   -1.7274    1.7190 C.2       1 <0>         0.2813
      3 C3         -0.0098   -2.2708    1.5772 C.2       1 <0>        -0.3767
      4 C4         -0.1389   -3.7765    1.7183 C.3       1 <0>         0.1156
      5 H1         -0.5632   -4.1700    0.7946 H         1 <0>         0.0509
      6 C5          1.1491   -4.5272    2.0064 C.2       1 <0>        -0.3974
      7 C6          1.1651   -5.8967    2.1559 C.2       1 <0>         0.4735
      8 O1          2.3097   -6.5247    2.4900 O.3       1 <0>        -0.6459
      9 O2          0.0362   -6.6082    1.9680 O.3       1 <0>        -0.3360
     10 C7          0.1256   -8.0241    2.1395 C.3       1 <0>         0.0433
     11 C8          2.3165   -3.7691    2.1128 C.2       1 <0>         0.3164
     12 N1          2.3075   -2.4638    1.9658 N.2       1 <0>        -0.6451
     13 C9          3.6215   -4.4667    2.3979 C.3       1 <0>        -0.0918
     14 C10        -1.1068   -4.0632    2.8373 C.ar      1 <0>        -0.0333
     15 C11        -0.8840   -3.5364    4.0960 C.ar      1 <0>        -0.0545
     16 C12        -1.7717   -3.7994    5.1222 C.ar      1 <0>        -0.1270
     17 C13        -2.8828   -4.5887    4.8899 C.ar      1 <0>        -0.0788
     18 C14        -3.1060   -5.1146    3.6314 C.ar      1 <0>        -0.0570
     19 C15        -2.2203   -4.8480    2.6038 C.ar      1 <0>        -0.0205
     20 N2         -4.2952   -5.9601    3.3828 N.pl3     1 <0>         0.0438
     21 O3         -5.1137   -6.1242    4.2574 O.2       1 <0>        -0.1858
     22 O4         -4.4480   -6.4866    2.3053 O.3       1 <0>        -0.1636
     23 C16        -1.1306   -1.4651    1.3105 C.2       1 <0>         0.5231
     24 O5         -1.0153   -0.2531    1.2774 O.2       1 <0>        -0.5621
     25 O6         -2.3353   -2.0352    1.0911 O.3       1 <0>        -0.3397
     26 C17        -3.4202   -1.1592    0.7785 C.3       1 <0>         0.0787
     27 C18        -4.6950   -1.9797    0.5726 C.3       1 <0>         0.0587
     28 N3         -4.5394   -2.8381   -0.6093 N.3       1 <0>        -0.5241
     29 C19        -4.6425   -2.0536   -1.8470 C.3       1 <0>         0.0209
     30 C20        -5.5183   -3.9333   -0.5972 C.3       1 <0>         0.0954
     31 C21        -5.1018   -4.9903   -1.5873 C.ar      1 <0>        -0.0743
     32 C22        -5.6112   -4.9727   -2.8723 C.ar      1 <0>        -0.1177
     33 C23        -5.2292   -5.9422   -3.7806 C.ar      1 <0>        -0.1283
     34 C24        -4.3375   -6.9291   -3.4040 C.ar      1 <0>        -0.1228
     35 C25        -3.8274   -6.9462   -2.1193 C.ar      1 <0>        -0.1188
     36 C26        -4.2061   -5.9742   -1.2123 C.ar      1 <0>        -0.0816
     37 H2          2.4428    0.0318    1.7188 H         1 <0>         0.0542
     38 H3          1.0651    0.0773    0.5928 H         1 <0>         0.0740
     39 H4          0.7917    0.2652    2.3416 H         1 <0>         0.0776
     40 H5          0.4465   -8.2472    3.1570 H         1 <0>         0.0487
     41 H6         -0.8506   -8.4742    1.9595 H         1 <0>         0.0842
     42 H7          0.8492   -8.4307    1.4329 H         1 <0>         0.0524
     43 H8          3.7980   -5.2308    1.6409 H         1 <0>         0.0815
     44 H9          4.4339   -3.7403    2.3773 H         1 <0>         0.0491
     45 H10         3.5765   -4.9336    3.3818 H         1 <0>         0.0795
     46 H11        -0.0161   -2.9198    4.2775 H         1 <0>         0.1299
     47 H12        -1.5973   -3.3885    6.1057 H         1 <0>         0.1354
     48 H13        -3.5760   -4.7948    5.6920 H         1 <0>         0.1399
     49 H14        -2.3967   -5.2558    1.6194 H         1 <0>         0.1443
     50 H15        -3.5684   -0.4573    1.5991 H         1 <0>         0.0589
     51 H16        -3.1912   -0.6085   -0.1339 H         1 <0>         0.0588
     52 H17        -4.8738   -2.5999    1.4510 H         1 <0>         0.0775
     53 H18        -5.5400   -1.3073    0.4245 H         1 <0>         0.0517
     54 H19        -3.8118   -1.3500   -1.9015 H         1 <0>         0.0679
     55 H20        -4.6081   -2.7237   -2.7059 H         1 <0>         0.0720
     56 H21        -5.5843   -1.5048   -1.8519 H         1 <0>         0.0222
     57 H22        -5.5641   -4.3686    0.4011 H         1 <0>         0.0830
     58 H23        -6.5000   -3.5463   -0.8703 H         1 <0>         0.0388
     59 H24        -6.3078   -4.2017   -3.1665 H         1 <0>         0.1132
     60 H25        -5.6277   -5.9289   -4.7843 H         1 <0>         0.1156
     61 H26        -4.0396   -7.6870   -4.1134 H         1 <0>         0.1163
     62 H27        -3.1310   -7.7175   -1.8250 H         1 <0>         0.1210
     63 H28        -3.8048   -5.9854   -0.2097 H         1 <0>         0.1299
@<TRIPOS>BOND
     1    1    2 1
     2    1   37 1
     3    1   38 1
     4    1   39 1
     5    2   12 1
     6    2    3 2
     7    3    4 1
     8    3   23 1
     9    4    5 1
    10    4    6 1
    11    4   14 1
    12    6    7 2
    13    6   11 1
    14    7    8 1
    15    7    9 1
    16    9   10 1
    17   10   40 1
    18   10   41 1
    19   10   42 1
    20   11   12 2
    21   11   13 1
    22   13   43 1
    23   13   44 1
    24   13   45 1
    25   14   19 ar
    26   14   15 ar
    27   15   16 ar
    28   15   46 1
    29   16   17 ar
    30   16   47 1
    31   17   18 ar
    32   17   48 1
    33   18   19 ar
    34   18   20 1
    35   19   49 1
    36   20   21 2
    37   20   22 1
    38   23   24 2
    39   23   25 1
    40   25   26 1
    41   26   27 1
    42   26   50 1
    43   26   51 1
    44   27   28 1
    45   27   52 1
    46   27   53 1
    47   28   29 1
    48   28   30 1
    49   29   54 1
    50   29   55 1
    51   29   56 1
    52   30   31 1
    53   30   57 1
    54   30   58 1
    55   31   36 ar
    56   31   32 ar
    57   32   33 ar
    58   32   59 1
    59   33   34 ar
    60   33   60 1
    61   34   35 ar
    62   34   61 1
    63   35   36 ar
    64   35   62 1
    65   36   63 1
@<TRIPOS>MOLECULE
ZINC19796087
   63    65     0     0     0
SMALL
USER_CHARGES

@<TRIPOS>ATOM
      1 C1          1.9250    2.2404   -0.3129 C.3       1 <0>        -0.0962
      2 C2          1.5956    0.7700   -0.3363 C.2       1 <0>         0.2823
      3 C3          0.2875    0.3908   -0.4338 C.2       1 <0>        -0.3776
      4 C4         -0.0127   -1.0968   -0.4556 C.3       1 <0>         0.1287
      5 H1         -0.6768   -1.3224    0.3787 H         1 <0>         0.0479
      6 C5          1.1921   -2.0166   -0.3653 C.2       1 <0>        -0.3943
      7 C6          1.0526   -3.3872   -0.3756 C.2       1 <0>         0.4729
      8 O1         -0.1764   -3.9396   -0.3555 O.3       1 <0>        -0.6452
      9 O2          2.1452   -4.1754   -0.4057 O.3       1 <0>        -0.3140
     10 C7          1.9270   -5.5825   -0.5258 C.3       1 <0>         0.0738
     11 C8          3.2661   -6.3163   -0.4304 C.3       1 <0>         0.0567
     12 N1          4.0962   -5.9737   -1.5929 N.3       1 <0>        -0.5254
     13 C9          3.6078   -6.6452   -2.8047 C.3       1 <0>         0.0178
     14 C10         5.5078   -6.2958   -1.3451 C.3       1 <0>         0.0937
     15 C11         6.3568   -5.7125   -2.4451 C.ar      1 <0>        -0.0752
     16 C12         6.6211   -6.4541   -3.5814 C.ar      1 <0>        -0.1161
     17 C13         7.3999   -5.9190   -4.5904 C.ar      1 <0>        -0.1247
     18 C14         7.9139   -4.6420   -4.4634 C.ar      1 <0>        -0.1225
     19 C15         7.6488   -3.9001   -3.3275 C.ar      1 <0>        -0.1199
     20 C16         6.8665   -4.4336   -2.3204 C.ar      1 <0>        -0.0931
     21 C17         2.4472   -1.4127   -0.2718 C.2       1 <0>         0.2969
     22 N2          2.5859   -0.1065   -0.2671 N.2       1 <0>        -0.6443
     23 C18         3.6750   -2.2817   -0.1798 C.3       1 <0>        -0.1018
     24 C19        -0.7450   -1.4107   -1.7348 C.ar      1 <0>        -0.0273
     25 C20        -0.1448   -1.1589   -2.9546 C.ar      1 <0>        -0.0575
     26 C21        -0.8164   -1.4467   -4.1278 C.ar      1 <0>        -0.1295
     27 C22        -2.0883   -1.9869   -4.0815 C.ar      1 <0>        -0.0800
     28 C23        -2.6879   -2.2394   -2.8621 C.ar      1 <0>        -0.0565
     29 C24        -2.0144   -1.9555   -1.6886 C.ar      1 <0>        -0.0107
     30 N3         -4.0498   -2.8172   -2.8127 N.pl3     1 <0>         0.0440
     31 O3         -4.6376   -3.0683   -3.8389 O.2       1 <0>        -0.1849
     32 O4         -4.5743   -3.0382   -1.7460 O.3       1 <0>        -0.1675
     33 C25        -0.7435    1.3435   -0.5108 C.2       1 <0>         0.5215
     34 O5         -0.4773    2.5318   -0.4910 O.2       1 <0>        -0.5581
     35 O6         -2.0292    0.9409   -0.6066 O.3       1 <0>        -0.3599
     36 C26        -3.0252    1.9629   -0.6810 C.3       1 <0>         0.0413
     37 H2          3.0047    2.3696   -0.2371 H         1 <0>         0.0545
     38 H3          1.5666    2.7077   -1.2301 H         1 <0>         0.0756
     39 H4          1.4421    2.7072    0.5455 H         1 <0>         0.0759
     40 H5          1.2707   -5.9182    0.2771 H         1 <0>         0.0656
     41 H6          1.4627   -5.7974   -1.4883 H         1 <0>         0.0572
     42 H7          3.7797   -6.0177    0.4835 H         1 <0>         0.0841
     43 H8          3.0906   -7.3920   -0.4136 H         1 <0>         0.0519
     44 H9          2.5954   -6.3066   -3.0248 H         1 <0>         0.0693
     45 H10         4.2619   -6.4037   -3.6426 H         1 <0>         0.0727
     46 H11         3.6038   -7.7236   -2.6460 H         1 <0>         0.0228
     47 H12         5.8140   -5.8745   -0.3876 H         1 <0>         0.0848
     48 H13         5.6351   -7.3782   -1.3232 H         1 <0>         0.0392
     49 H14         6.2196   -7.4517   -3.6806 H         1 <0>         0.1158
     50 H15         7.6070   -6.4987   -5.4778 H         1 <0>         0.1178
     51 H16         8.5228   -4.2242   -5.2514 H         1 <0>         0.1180
     52 H17         8.0506   -2.9025   -3.2282 H         1 <0>         0.1216
     53 H18         6.6563   -3.8525   -1.4347 H         1 <0>         0.1258
     54 H19         3.7730   -2.8699   -1.0922 H         1 <0>         0.0884
     55 H20         4.5567   -1.6529   -0.0563 H         1 <0>         0.0588
     56 H21         3.5832   -2.9508    0.6758 H         1 <0>         0.0743
     57 H22         0.8487   -0.7369   -2.9907 H         1 <0>         0.1285
     58 H23        -0.3479   -1.2494   -5.0806 H         1 <0>         0.1344
     59 H24        -2.6134   -2.2112   -4.9983 H         1 <0>         0.1396
     60 H25        -2.4815   -2.1563   -0.7357 H         1 <0>         0.1428
     61 H26        -4.0114    1.5045   -0.7545 H         1 <0>         0.0861
     62 H27        -2.9782    2.5820    0.2150 H         1 <0>         0.0509
     63 H28        -2.8458    2.5819   -1.5601 H         1 <0>         0.0485
@<TRIPOS>BOND
     1    1    2 1
     2    1   37 1
     3    1   38 1
     4    1   39 1
     5    2   22 1
     6    2    3 2
     7    3    4 1
     8    3   33 1
     9    4    5 1
    10    4    6 1
    11    4   24 1
    12    6    7 2
    13    6   21 1
    14    7    8 1
    15    7    9 1
    16    9   10 1
    17   10   11 1
    18   10   40 1
    19   10   41 1
    20   11   12 1
    21   11   42 1
    22   11   43 1
    23   12   13 1
    24   12   14 1
    25   13   44 1
    26   13   45 1
    27   13   46 1
    28   14   15 1
    29   14   47 1
    30   14   48 1
    31   15   20 ar
    32   15   16 ar
    33   16   17 ar
    34   16   49 1
    35   17   18 ar
    36   17   50 1
    37   18   19 ar
    38   18   51 1
    39   19   20 ar
    40   19   52 1
    41   20   53 1
    42   21   22 2
    43   21   23 1
    44   23   54 1
    45   23   55 1
    46   23   56 1
    47   24   29 ar
    48   24   25 ar
    49   25   26 ar
    50   25   57 1
    51   26   27 ar
    52   26   58 1
    53   27   28 ar
    54   27   59 1
    55   28   29 ar
    56   28   30 1
    57   29   60 1
    58   30   31 2
    59   30   32 1
    60   33   34 2
    61   33   35 1
    62   35   36 1
    63   36   61 1
    64   36   62 1
    65   36   63 1
@<TRIPOS>MOLECULE
ZINC00537805
   60    62     0     0     0
SMALL
USER_CHARGES

@<TRIPOS>ATOM
      1 C1         -0.0173    1.4248    0.0099 C.3       1 <0>         0.0182
      2 O1          0.0021   -0.0041    0.0020 O.3       1 <0>        -0.2748
      3 C2          0.6248   -0.6173    1.0397 C.ar      1 <0>         0.1920
      4 C3          1.2017    0.1376    2.0502 C.ar      1 <0>        -0.2078
      5 C4          1.8351   -0.4872    3.1057 C.ar      1 <0>        -0.0422
      6 C5          1.9003   -1.8709    3.1645 C.ar      1 <0>        -0.0840
      7 C6          1.3321   -2.6365    2.1684 C.ar      1 <0>        -0.0380
      8 C7          0.6827   -2.0162    1.0981 C.ar      1 <0>        -0.1597
      9 C8          0.0667   -2.8292    0.0322 C.2       1 <0>         0.5595
     10 O2         -0.4933   -2.2858   -0.9002 O.2       1 <0>        -0.5093
     11 N1          0.1246   -4.1744    0.0921 N.am      1 <0>        -0.7295
     12 C9         -0.4871   -4.9818   -0.9663 C.3       1 <0>         0.1248
     13 C10        -0.2807   -6.4663   -0.6591 C.3       1 <0>        -0.0921
     14 C11        -0.9099   -7.2969   -1.7479 C.ar      1 <0>        -0.0513
     15 C12        -2.2308   -7.6903   -1.6410 C.ar      1 <0>        -0.1388
     16 C13        -2.8080   -8.4521   -2.6397 C.ar      1 <0>        -0.0201
     17 C14        -2.0644   -8.8201   -3.7454 C.ar      1 <0>        -0.6264
     18 C15        -0.7438   -8.4259   -3.8527 C.ar      1 <0>        -0.0200
     19 C16        -0.1679   -7.6605   -2.8560 C.ar      1 <0>        -0.1388
     20 S1         -2.7998   -9.7921   -5.0179 S.o2      1 <0>         2.6734
     21 O3         -1.7374  -10.4617   -5.6828 O.2       1 <0>        -1.0097
     22 O4         -3.8845  -10.4894   -4.4207 O.2       1 <0>        -1.0098
     23 N2         -3.4590   -8.7429   -6.1164 N.2       1 <0>        -1.1046
     24 C17        -4.0714   -9.2023   -7.1683 C.2       1 <0>         0.6850
     25 O5         -4.1695  -10.5353   -7.3644 O.3       1 <0>        -0.7480
     26 N3         -4.6181   -8.3321   -8.0794 N.pl3     1 <0>        -0.7202
     27 C18        -5.3077   -8.8494   -9.2639 C.3       1 <0>         0.1652
     28 C19        -4.2854   -9.1312  -10.3668 C.3       1 <0>        -0.1304
     29 C20        -5.0055   -9.6715  -11.6039 C.3       1 <0>        -0.1163
     30 C21        -6.0168   -8.6353  -12.0985 C.3       1 <0>        -0.1184
     31 C22        -7.0391   -8.3536  -10.9956 C.3       1 <0>        -0.1141
     32 C23        -6.3189   -7.8133   -9.7585 C.3       1 <0>        -0.1258
     33 Cl1         2.7012   -2.6426    4.4974 Cl        1 <0>        -0.0634
     34 H1          1.0053    1.8021    0.0021 H         1 <0>         0.0584
     35 H2         -0.5445    1.7859   -0.8732 H         1 <0>         0.1066
     36 H3         -0.5275    1.7763    0.9067 H         1 <0>         0.0584
     37 H4          1.1556    1.2159    2.0109 H         1 <0>         0.1455
     38 H5          2.2828    0.1052    3.8899 H         1 <0>         0.1414
     39 H6          1.3849   -3.7141    2.2178 H         1 <0>         0.1433
     40 H7          0.5714   -4.6080    0.8360 H         1 <0>         0.3973
     41 H8         -1.5543   -4.7662   -1.0169 H         1 <0>         0.0750
     42 H9         -0.0220   -4.7405   -1.9221 H         1 <0>         0.0750
     43 H10         0.7866   -6.6820   -0.6085 H         1 <0>         0.0813
     44 H11        -0.7458   -6.7077    0.2967 H         1 <0>         0.0814
     45 H12        -2.8117   -7.4028   -0.7772 H         1 <0>         0.1262
     46 H13        -3.8397   -8.7601   -2.5559 H         1 <0>         0.1378
     47 H14        -0.1628   -8.7137   -4.7164 H         1 <0>         0.1377
     48 H15         0.8628   -7.3493   -2.9416 H         1 <0>         0.1261
     49 H16        -4.5477   -7.3750   -7.9386 H         1 <0>         0.3913
     50 H17        -5.8287   -9.7718   -9.0072 H         1 <0>         0.0815
     51 H18        -3.7644   -8.2088  -10.6236 H         1 <0>         0.0553
     52 H19        -3.5649   -9.8694  -10.0144 H         1 <0>         0.0710
     53 H20        -4.2772   -9.8722  -12.3896 H         1 <0>         0.0572
     54 H21        -5.5265  -10.5939  -11.3471 H         1 <0>         0.0624
     55 H22        -5.4958   -7.7129  -12.3552 H         1 <0>         0.0590
     56 H23        -6.5298   -9.0202  -12.9798 H         1 <0>         0.0564
     57 H24        -7.7595   -7.6154  -11.3480 H         1 <0>         0.0595
     58 H25        -7.5601   -9.2759  -10.7388 H         1 <0>         0.0632
     59 H26        -7.0473   -7.6126   -8.9728 H         1 <0>         0.0650
     60 H27        -5.7980   -6.8909  -10.0153 H         1 <0>         0.0622
@<TRIPOS>BOND
     1    1    2 1
     2    1   34 1
     3    1   35 1
     4    1   36 1
     5    2    3 1
     6    3    8 ar
     7    3    4 ar
     8    4    5 ar
     9    4   37 1
    10    5    6 ar
    11    5   38 1
    12    6    7 ar
    13    6   33 1
    14    7    8 ar
    15    7   39 1
    16    8    9 1
    17    9   10 2
    18    9   11 am
    19   11   12 1
    20   11   40 1
    21   12   13 1
    22   12   41 1
    23   12   42 1
    24   13   14 1
    25   13   43 1
    26   13   44 1
    27   14   19 ar
    28   14   15 ar
    29   15   16 ar
    30   15   45 1
    31   16   17 ar
    32   16   46 1
    33   17   18 ar
    34   17   20 1
    35   18   19 ar
    36   18   47 1
    37   19   48 1
    38   20   21 2
    39   20   22 2
    40   20   23 1
    41   23   24 2
    42   24   25 1
    43   24   26 1
    44   26   27 1
    45   26   49 1
    46   27   32 1
    47   27   28 1
    48   27   50 1
    49   28   29 1
    50   28   51 1
    51   28   52 1
    52   29   30 1
    53   29   53 1
    54   29   54 1
    55   30   31 1
    56   30   55 1
    57   30   56 1
    58   31   32 1
    59   31   57 1
    60   31   58 1
    61   32   59 1
    62   32   60 1
@<TRIPOS>MOLECULE
ZINC03775575
   68    71     0     0     0
SMALL
NO_CHARGES

@<TRIPOS>ATOM
      1 C1         -0.1332    0.9866   -0.0935 C.3       1 <0>        -0.1195
      2 C2         -0.1527   -0.5035    0.1302 C.ar      1 <0>        -0.0470
      3 C3         -0.2460   -1.3404   -0.9367 C.ar      1 <0>        -0.1024
      4 C4         -0.2657   -2.7335   -0.7415 C.ar      1 <0>        -0.0347
      5 C5         -0.1872   -3.2551    0.5719 C.ar      1 <0>        -0.0297
      6 C6         -0.2086   -4.7079    0.7624 C.ar      1 <0>        -0.2039
      7 C7         -0.3063   -5.5287   -0.3656 C.ar      1 <0>         0.1689
      8 C8         -0.3813   -4.9639   -1.6442 C.ar      1 <0>         0.0750
      9 C9         -0.3627   -3.6149   -1.8332 C.ar      1 <0>        -0.0411
     10 C10        -0.4467   -3.0593   -3.2316 C.3       1 <0>        -0.0595
     11 C11         0.7028   -3.6182   -4.0724 C.3       1 <0>        -0.1516
     12 C12        -1.7818   -3.4621   -3.8610 C.3       1 <0>        -0.1487
     13 O1         -0.4752   -5.7829   -2.7254 O.3       1 <0>        -0.4766
     14 O2         -0.3279   -6.8761   -0.2203 O.3       1 <0>        -0.4682
     15 C13        -0.1292   -5.2865    2.1020 C.2       1 <0>         0.3607
     16 O3         -0.2442   -6.4855    2.2531 O.2       1 <0>        -0.4500
     17 C14        -0.0914   -2.3815    1.6623 C.ar      1 <0>         0.1208
     18 C15        -0.0686   -1.0082    1.4362 C.ar      1 <0>        -0.0391
     19 C16         0.0389   -0.0749    2.5810 C.ar      1 <0>        -0.0461
     20 C17         1.3026    0.3395    3.0269 C.ar      1 <0>        -0.0567
     21 C18         1.4264    1.1957    4.0752 C.ar      1 <0>        -0.1031
     22 C19         0.2795    1.6801    4.7303 C.ar      1 <0>        -0.0342
     23 C20        -1.0013    1.2694    4.2899 C.ar      1 <0>        -0.0312
     24 C21        -1.1147    0.3908    3.2051 C.ar      1 <0>         0.1359
     25 O4         -2.3383   -0.0064    2.7694 O.3       1 <0>        -0.4811
     26 C22        -2.1884    1.7809    4.9804 C.ar      1 <0>        -0.2012
     27 C23        -2.0107    2.6597    6.0536 C.ar      1 <0>         0.1673
     28 C24        -0.7222    3.0362    6.4509 C.ar      1 <0>         0.0764
     29 C25         0.3883    2.5670    5.8164 C.ar      1 <0>        -0.0431
     30 C26         1.7523    3.0037    6.2855 C.3       1 <0>        -0.0586
     31 C27         1.8520    4.5288    6.2142 C.3       1 <0>        -0.1518
     32 C28         1.9658    2.5455    7.7295 C.3       1 <0>        -0.1488
     33 O5         -0.5754    3.8922    7.4970 O.3       1 <0>        -0.4763
     34 O6         -3.0900    3.1490    6.7114 O.3       1 <0>        -0.4658
     35 C29        -3.5286    1.3817    4.5565 C.2       1 <0>         0.3587
     36 O7         -4.5042    1.8859    5.0738 O.2       1 <0>        -0.4469
     37 C30         2.5397   -0.1719    2.3347 C.3       1 <0>        -0.1187
     38 O8         -0.0154   -2.8696    2.9275 O.3       1 <0>        -0.4830
     39 H1          0.8960    1.3212   -0.2231 H         1 <0>         0.0749
     40 H2         -0.7087    1.2274   -0.9874 H         1 <0>         0.0721
     41 H3         -0.5729    1.4892    0.7680 H         1 <0>         0.0722
     42 H4         -0.3056   -0.9353   -1.9360 H         1 <0>         0.1397
     43 H5         -0.3754   -1.9722   -3.1955 H         1 <0>         0.0863
     44 H6          0.6315   -4.7053   -4.1084 H         1 <0>         0.0803
     45 H7          0.6421   -3.2163   -5.0838 H         1 <0>         0.0593
     46 H8          1.6540   -3.3312   -3.6239 H         1 <0>         0.0528
     47 H9         -1.8426   -3.0602   -4.8724 H         1 <0>         0.0667
     48 H10        -1.8532   -4.5492   -3.8971 H         1 <0>         0.0587
     49 H11        -2.6008   -3.0639   -3.2620 H         1 <0>         0.0571
     50 H12        -1.3834   -5.9991   -2.9774 H         1 <0>         0.3853
     51 H13        -1.2152   -7.2464   -0.1170 H         1 <0>         0.3976
     52 H14         0.0317   -4.6473    2.9576 H         1 <0>         0.1324
     53 H15         2.4070    1.5045    4.4061 H         1 <0>         0.1398
     54 H16        -2.6683   -0.8070    3.1998 H         1 <0>         0.3955
     55 H17         2.5156    2.5594    5.6467 H         1 <0>         0.0860
     56 H18         1.0887    4.9730    6.8530 H         1 <0>         0.0798
     57 H19         2.8385    4.8446    6.5535 H         1 <0>         0.0593
     58 H20         1.6998    4.8552    5.1854 H         1 <0>         0.0531
     59 H21         1.8948    1.4590    7.7803 H         1 <0>         0.0567
     60 H22         2.9524    2.8614    8.0688 H         1 <0>         0.0665
     61 H23         1.2025    2.9898    8.3683 H         1 <0>         0.0591
     62 H24        -0.5043    3.4545    8.3563 H         1 <0>         0.3850
     63 H25        -3.3748    2.6056    7.4588 H         1 <0>         0.3953
     64 H26        -3.6512    0.6381    3.7829 H         1 <0>         0.1327
     65 H27         2.8051    0.5020    1.5201 H         1 <0>         0.0775
     66 H28         3.3619   -0.2202    3.0487 H         1 <0>         0.0736
     67 H29         2.3470   -1.1673    1.9346 H         1 <0>         0.0662
     68 H30         0.8876   -3.0316    3.2331 H         1 <0>         0.3935
@<TRIPOS>BOND
     1    1    2 1
     2    1   39 1
     3    1   40 1
     4    1   41 1
     5    2   18 ar
     6    2    3 ar
     7    3    4 ar
     8    3   42 1
     9    4    9 ar
    10    4    5 ar
    11    5    6 ar
    12    5   17 ar
    13    6    7 ar
    14    6   15 1
    15    7    8 ar
    16    7   14 1
    17    8    9 ar
    18    8   13 1
    19    9   10 1
    20   10   11 1
    21   10   12 1
    22   10   43 1
    23   11   44 1
    24   11   45 1
    25   11   46 1
    26   12   47 1
    27   12   48 1
    28   12   49 1
    29   13   50 1
    30   14   51 1
    31   15   16 2
    32   15   52 1
    33   17   18 ar
    34   17   38 1
    35   18   19 1
    36   19   24 ar
    37   19   20 ar
    38   20   21 ar
    39   20   37 1
    40   21   22 ar
    41   21   53 1
    42   22   29 ar
    43   22   23 ar
    44   23   24 ar
    45   23   26 ar
    46   24   25 1
    47   25   54 1
    48   26   27 ar
    49   26   35 1
    50   27   28 ar
    51   27   34 1
    52   28   29 ar
    53   28   33 1
    54   29   30 1
    55   30   31 1
    56   30   32 1
    57   30   55 1
    58   31   56 1
    59   31   57 1
    60   31   58 1
    61   32   59 1
    62   32   60 1
    63   32   61 1
    64   33   62 1
    65   34   63 1
    66   35   36 2
    67   35   64 1
    68   37   65 1
    69   37   66 1
    70   37   67 1
    71   38   68 1
@<TRIPOS>MOLECULE
ZINC00020241
   32    33     0     0     0
SMALL
USER_CHARGES

@<TRIPOS>ATOM
      1 C1         -0.1270    1.4527   -0.1407 C.3       1 <0>        -0.1086
      2 C2         -0.1213   -0.0541   -0.1173 C.ar      1 <0>        -0.0512
      3 C3         -0.1891   -0.7637   -1.3027 C.ar      1 <0>        -0.1894
      4 C4         -0.1846   -2.1462   -1.2858 C.ar      1 <0>        -0.0787
      5 C5         -0.1123   -2.8235   -0.0842 C.ar      1 <0>        -0.1800
      6 C6         -0.0436   -2.1141    1.1080 C.ar      1 <0>         0.2711
      7 C7         -0.0427   -0.7248    1.0870 C.ar      1 <0>        -0.1638
      8 C8          0.0374    0.0491    2.3776 C.3       1 <0>        -0.0992
      9 N1          0.0291   -2.7961    2.3254 N.pl3     1 <0>        -0.6700
     10 C9         -0.0480   -4.1815    2.3504 C.ar      1 <0>         0.1665
     11 C10        -1.2336   -4.8092    2.7139 C.ar      1 <0>        -0.1405
     12 C11        -1.3074   -6.1862    2.7384 C.ar      1 <0>        -0.1235
     13 C12        -0.2039   -6.9555    2.4014 C.ar      1 <0>        -0.1393
     14 C13         0.9797   -6.3537    2.0380 C.ar      1 <0>        -0.0835
     15 C14         1.0707   -4.9579    2.0026 C.ar      1 <0>        -0.1368
     16 C15         2.3298   -4.3079    1.6101 C.2       1 <0>         0.5183
     17 O1          3.2619   -4.9816    1.1924 O.co2     1 <0>        -0.6938
     18 O2          2.4455   -3.0931    1.7012 O.co2     1 <0>        -0.6645
     19 H1          0.8972    1.8188   -0.2117 H         1 <0>         0.0651
     20 H2         -0.6976    1.8005   -1.0018 H         1 <0>         0.0591
     21 H3         -0.5846    1.8285    0.7744 H         1 <0>         0.0624
     22 H4         -0.2460   -0.2365   -2.2436 H         1 <0>         0.1082
     23 H5         -0.2380   -2.6972   -2.2132 H         1 <0>         0.1108
     24 H6         -0.1095   -3.9034   -0.0717 H         1 <0>         0.1109
     25 H7         -0.9689    0.2328    2.7541 H         1 <0>         0.0555
     26 H8          0.6006   -0.5266    3.1121 H         1 <0>         0.0596
     27 H9          0.5383    1.0007    2.2002 H         1 <0>         0.0621
     28 H10         0.1334   -2.3012    3.1531 H         1 <0>         0.4004
     29 H11        -2.0980   -4.2179    2.9779 H         1 <0>         0.1160
     30 H12        -2.2310   -6.6687    3.0223 H         1 <0>         0.1150
     31 H13        -0.2734   -8.0331    2.4245 H         1 <0>         0.1149
     32 H14         1.8358   -6.9582    1.7769 H         1 <0>         0.1270
@<TRIPOS>BOND
     1    1    2 1
     2    1   19 1
     3    1   20 1
     4    1   21 1
     5    2    7 ar
     6    2    3 ar
     7    3    4 ar
     8    3   22 1
     9    4    5 ar
    10    4   23 1
    11    5    6 ar
    12    5   24 1
    13    6    7 ar
    14    6    9 1
    15    7    8 1
    16    8   25 1
    17    8   26 1
    18    8   27 1
    19    9   10 1
    20    9   28 1
    21   10   15 ar
    22   10   11 ar
    23   11   12 ar
    24   11   29 1
    25   12   13 ar
    26   12   30 1
    27   13   14 ar
    28   13   31 1
    29   14   15 ar
    30   14   32 1
    31   15   16 1
    32   16   17 2
    33   16   18 1
