@<TRIPOS>MOLECULE
ZINC04175443
   31    32     0     0     0
SMALL
USER_CHARGES

@<TRIPOS>ATOM
      1 C1         -0.0186    1.3779   -0.0138 C.ar      1 <0>        -0.1041
      2 C2          1.1659    2.0938   -0.0101 C.ar      1 <0>        -0.1230
      3 C3          2.3756    1.4323   -0.0190 C.ar      1 <0>        -0.0916
      4 C4          2.4036    0.0340   -0.0312 C.ar      1 <0>        -0.0847
      5 C5          1.2023   -0.6823   -0.0343 C.ar      1 <0>        -0.0976
      6 C6          0.0007   -0.0060   -0.0258 C.ar      1 <0>        -0.1231
      7 C7          3.6904   -0.6800   -0.0411 C.2       1 <0>        -0.0065
      8 C8          3.7134   -2.0288   -0.0529 C.2       1 <0>        -0.2339
      9 C9          4.9939   -2.7393   -0.0628 C.2       1 <0>         0.4487
     10 O1          6.0360   -2.1153   -0.1563 O.2       1 <0>        -0.4446
     11 C10         5.0218   -4.2066    0.0400 C.ar      1 <0>        -0.2115
     12 C11         4.9874   -4.8269    1.2997 C.ar      1 <0>         0.1732
     13 C12         5.0141   -6.2065    1.3875 C.ar      1 <0>        -0.1806
     14 C13         5.0747   -6.9787    0.2344 C.ar      1 <0>         0.1572
     15 C14         5.1091   -6.3732   -1.0153 C.ar      1 <0>        -0.1821
     16 C15         5.0773   -4.9950   -1.1210 C.ar      1 <0>         0.1742
     17 O2          5.1052   -4.4056   -2.3427 O.3       1 <0>        -0.4903
     18 O3          5.1010   -8.3323    0.3294 O.3       1 <0>        -0.4918
     19 O4          4.9286   -4.0745    2.4271 O.3       1 <0>        -0.4869
     20 H1         -0.9630    1.9018   -0.0026 H         1 <0>         0.1260
     21 H2          1.1426    3.1736   -0.0007 H         1 <0>         0.1280
     22 H3          3.2990    1.9923   -0.0168 H         1 <0>         0.1291
     23 H4          1.2158   -1.7622   -0.0441 H         1 <0>         0.1278
     24 H5         -0.9278   -0.5576   -0.0286 H         1 <0>         0.1273
     25 H6          4.6164   -0.1242   -0.0390 H         1 <0>         0.1355
     26 H7          2.7874   -2.5847   -0.0550 H         1 <0>         0.1338
     27 H8          4.9880   -6.6851    2.3553 H         1 <0>         0.1461
     28 H9          5.1562   -6.9808   -1.9069 H         1 <0>         0.1458
     29 H10         5.9960   -4.2158   -2.6676 H         1 <0>         0.4021
     30 H11         4.2261   -8.7440    0.3235 H         1 <0>         0.3994
     31 H12         4.0290   -3.8753    2.7205 H         1 <0>         0.3985
@<TRIPOS>BOND
     1    1    6 ar
     2    1    2 ar
     3    1   20 1
     4    2    3 ar
     5    2   21 1
     6    3    4 ar
     7    3   22 1
     8    4    5 ar
     9    4    7 1
    10    5    6 ar
    11    5   23 1
    12    6   24 1
    13    7    8 2
    14    7   25 1
    15    8    9 1
    16    8   26 1
    17    9   10 2
    18    9   11 1
    19   11   16 ar
    20   11   12 ar
    21   12   13 ar
    22   12   19 1
    23   13   14 ar
    24   13   27 1
    25   14   15 ar
    26   14   18 1
    27   15   16 ar
    28   15   28 1
    29   16   17 1
    30   17   29 1
    31   18   30 1
    32   19   31 1
@<TRIPOS>MOLECULE
ZINC03869768
   31    33     0     0     0
SMALL
USER_CHARGES

@<TRIPOS>ATOM
      1 C1          0.9745   -0.2752   -0.9649 C.ar      1 <0>        -0.0474
      2 C2          2.1550    0.4346   -0.9693 C.ar      1 <0>        -0.1488
      3 C3          2.3800    1.4188   -0.0145 C.ar      1 <0>         0.1280
      4 C4          1.4162    1.6917    0.9485 C.ar      1 <0>        -0.1504
      5 C5          0.2327    0.9869    0.9606 C.ar      1 <0>        -0.0665
      6 C6          0.0021   -0.0041    0.0020 C.ar      1 <0>        -0.0625
      7 C7         -1.2634   -0.7608    0.0105 C.2       1 <0>         0.1356
      8 C8         -1.2167   -2.1184   -0.0957 C.2       1 <0>        -0.0454
      9 C9         -2.4259   -2.8610   -0.0886 C.2       1 <0>         0.4007
     10 O1         -2.4232   -4.0781   -0.1814 O.2       1 <0>        -0.4492
     11 C10        -3.6832   -2.1065    0.0355 C.ar      1 <0>        -0.2689
     12 C11        -4.9234   -2.7585    0.0517 C.ar      1 <0>         0.2243
     13 C12        -6.0821   -2.0144    0.1703 C.ar      1 <0>        -0.2086
     14 C13        -6.0155   -0.6287    0.2722 C.ar      1 <0>         0.1994
     15 C14        -4.7926    0.0230    0.2564 C.ar      1 <0>        -0.1859
     16 C15        -3.6188   -0.7060    0.1392 C.ar      1 <0>         0.1873
     17 O2         -2.4200   -0.0864    0.1283 O.3       1 <0>        -0.1981
     18 O3         -7.1599    0.0925    0.3877 O.3       1 <0>        -0.4869
     19 O4         -4.9864   -4.1104   -0.0487 O.3       1 <0>        -0.4727
     20 O5         -0.0202   -2.7570   -0.2082 O.3       1 <0>        -0.4492
     21 O6          3.5454    2.1157   -0.0224 O.3       1 <0>        -0.4978
     22 H1          0.7987   -1.0369   -1.7101 H         1 <0>         0.1366
     23 H2          2.9071    0.2256   -1.7157 H         1 <0>         0.1375
     24 H3          1.5954    2.4572    1.6889 H         1 <0>         0.1366
     25 H4         -0.5157    1.1995    1.7097 H         1 <0>         0.1340
     26 H5         -7.0416   -2.5100    0.1835 H         1 <0>         0.1512
     27 H6         -4.7536    1.0994    0.3359 H         1 <0>         0.1553
     28 H7         -7.4448    0.2345    1.3008 H         1 <0>         0.4049
     29 H8         -4.9577   -4.5698    0.8018 H         1 <0>         0.4037
     30 H9         -0.0926   -3.7187   -0.2778 H         1 <0>         0.4073
     31 H10         3.5195    2.9194   -0.5594 H         1 <0>         0.3958
@<TRIPOS>BOND
     1    1    6 ar
     2    1    2 ar
     3    1   22 1
     4    2    3 ar
     5    2   23 1
     6    3    4 ar
     7    3   21 1
     8    4    5 ar
     9    4   24 1
    10    5    6 ar
    11    5   25 1
    12    6    7 1
    13    7   17 1
    14    7    8 2
    15    8    9 1
    16    8   20 1
    17    9   10 2
    18    9   11 1
    19   11   16 ar
    20   11   12 ar
    21   12   13 ar
    22   12   19 1
    23   13   14 ar
    24   13   26 1
    25   14   15 ar
    26   14   18 1
    27   15   16 ar
    28   15   27 1
    29   16   17 1
    30   18   28 1
    31   19   29 1
    32   20   30 1
    33   21   31 1
@<TRIPOS>MOLECULE
ZINC03869768
   30    32     0     0     0
SMALL
USER_CHARGES

@<TRIPOS>ATOM
      1 C1          0.1387    1.1253   -0.8121 C.ar      1 <0>        -0.0723
      2 C2          1.3222    1.8291   -0.8163 C.ar      1 <0>        -0.1492
      3 C3          2.3802    1.4188   -0.0136 C.ar      1 <0>         0.1107
      4 C4          2.2493    0.2973    0.7970 C.ar      1 <0>        -0.1487
      5 C5          1.0698   -0.4131    0.8081 C.ar      1 <0>        -0.0549
      6 C6          0.0021   -0.0041    0.0020 C.ar      1 <0>        -0.0373
      7 C7         -1.2618   -0.7600    0.0105 C.2       1 <0>         0.1024
      8 C8         -1.2272   -2.1382   -0.0967 C.2       1 <0>        -0.0073
      9 C9         -2.4246   -2.8649   -0.0894 C.2       1 <0>         0.3353
     10 C10        -3.6396   -2.1555    0.0286 C.2       1 <0>        -0.3335
     11 C11        -4.8747   -2.8371    0.0419 C.2       1 <0>         0.2665
     12 C12        -6.0380   -2.1324    0.1573 C.2       1 <0>        -0.3754
     13 C13        -6.0102   -0.7324    0.2627 C.2       1 <0>         0.3645
     14 O1         -7.1532   -0.0530    0.3751 O.2       1 <0>        -0.6613
     15 C14        -4.7917   -0.0455    0.2513 C.2       1 <0>        -0.3154
     16 C15        -3.6071   -0.7470    0.1346 C.2       1 <0>         0.2120
     17 O2         -2.4247   -0.0966    0.1278 O.3       1 <0>        -0.2026
     18 O3         -4.9062   -4.1898   -0.0602 O.3       1 <0>        -0.4482
     19 O4         -2.4171   -4.2129   -0.1933 O.3       1 <0>        -0.5752
     20 O5         -0.0356   -2.7853   -0.2091 O.3       1 <0>        -0.4646
     21 O6          3.5454    2.1154   -0.0218 O.3       1 <0>        -0.5000
     22 H1         -0.6842    1.4472   -1.4330 H         1 <0>         0.1347
     23 H2          1.4286    2.7011   -1.4445 H         1 <0>         0.1321
     24 H3          3.0741   -0.0177    1.4190 H         1 <0>         0.1323
     25 H4          0.9692   -1.2847    1.4377 H         1 <0>         0.1358
     26 H5         -6.9838   -2.6538    0.1671 H         1 <0>         0.1177
     27 H6         -4.7769    1.0313    0.3327 H         1 <0>         0.1225
     28 H7         -5.7973   -4.5650   -0.0417 H         1 <0>         0.3845
     29 H8         -0.1151   -3.7466   -0.2784 H         1 <0>         0.4051
     30 H9          3.5829    2.8269    0.6320 H         1 <0>         0.3897
@<TRIPOS>BOND
     1    1    6 ar
     2    1    2 ar
     3    1   22 1
     4    2    3 ar
     5    2   23 1
     6    3    4 ar
     7    3   21 1
     8    4    5 ar
     9    4   24 1
    10    5    6 ar
    11    5   25 1
    12    6    7 1
    13    7   17 1
    14    7    8 2
    15    8    9 1
    16    8   20 1
    17    9   10 2
    18    9   19 1
    19   10   16 1
    20   10   11 1
    21   11   12 2
    22   11   18 1
    23   12   13 1
    24   12   26 1
    25   13   14 2
    26   13   15 1
    27   15   16 2
    28   15   27 1
    29   16   17 1
    30   18   28 1
    31   20   29 1
    32   21   30 1
@<TRIPOS>MOLECULE
ZINC00120273
   30    32     0     0     0
SMALL
USER_CHARGES

@<TRIPOS>ATOM
      1 C1         -0.0163    1.3802    0.0111 C.ar      1 <0>        -0.0990
      2 C2          0.2374    0.3974    0.9516 C.ar      1 <0>        -0.1230
      3 C3          1.4405   -0.2770    0.9418 C.ar      1 <0>        -0.0655
      4 C4          2.4040    0.0343   -0.0206 C.ar      1 <0>        -0.0531
      5 C5          2.1410    1.0276   -0.9670 C.ar      1 <0>        -0.0849
      6 C6          0.9335    1.6938   -0.9452 C.ar      1 <0>        -0.1245
      7 C7          3.6939   -0.6826   -0.0372 C.2       1 <0>         0.1351
      8 C8          3.6900   -2.0410    0.0540 C.2       1 <0>        -0.0465
      9 C9          4.9235   -2.7456    0.0389 C.2       1 <0>         0.4008
     10 O1          4.9595   -3.9630    0.1183 O.2       1 <0>        -0.4497
     11 C10         6.1558   -1.9502   -0.0767 C.ar      1 <0>        -0.2692
     12 C11         7.4165   -2.5618   -0.0999 C.ar      1 <0>         0.2242
     13 C12         8.5506   -1.7796   -0.2100 C.ar      1 <0>        -0.2087
     14 C13         8.4394   -0.3957   -0.2971 C.ar      1 <0>         0.1994
     15 C14         7.1961    0.2162   -0.2748 C.ar      1 <0>        -0.1861
     16 C15         6.0463   -0.5513   -0.1648 C.ar      1 <0>         0.1875
     17 O2          4.8285    0.0294   -0.1473 O.3       1 <0>        -0.1979
     18 O3          9.5600    0.3630   -0.4045 O.3       1 <0>        -0.4868
     19 O4          7.5229   -3.9121   -0.0144 O.3       1 <0>        -0.4727
     20 O5          2.5145   -2.7180    0.1592 O.3       1 <0>        -0.4489
     21 H1         -0.9619    1.9019    0.0207 H         1 <0>         0.1278
     22 H2         -0.5083    0.1581    1.6953 H         1 <0>         0.1307
     23 H3          1.6374   -1.0436    1.6767 H         1 <0>         0.1313
     24 H4          2.8815    1.2735   -1.7137 H         1 <0>         0.1284
     25 H5          0.7287    2.4620   -1.6762 H         1 <0>         0.1298
     26 H6          9.5255   -2.2439   -0.2282 H         1 <0>         0.1512
     27 H7          7.1227    1.2915   -0.3431 H         1 <0>         0.1553
     28 H8          9.8402    0.5239   -1.3159 H         1 <0>         0.4048
     29 H9          7.5088   -4.3627   -0.8698 H         1 <0>         0.4035
     30 H10         2.6173   -3.6777    0.2183 H         1 <0>         0.4067
@<TRIPOS>BOND
     1    1    6 ar
     2    1    2 ar
     3    1   21 1
     4    2    3 ar
     5    2   22 1
     6    3    4 ar
     7    3   23 1
     8    4    5 ar
     9    4    7 1
    10    5    6 ar
    11    5   24 1
    12    6   25 1
    13    7   17 1
    14    7    8 2
    15    8    9 1
    16    8   20 1
    17    9   10 2
    18    9   11 1
    19   11   16 ar
    20   11   12 ar
    21   12   13 ar
    22   12   19 1
    23   13   14 ar
    24   13   26 1
    25   14   15 ar
    26   14   18 1
    27   15   16 ar
    28   15   27 1
    29   16   17 1
    30   18   28 1
    31   19   29 1
    32   20   30 1
@<TRIPOS>MOLECULE
ZINC04097193
   32    33     0     0     0
SMALL
USER_CHARGES

@<TRIPOS>ATOM
      1 C1         -0.0150    1.3947    0.0152 C.ar      1 <0>        -0.0732
      2 C2          1.1693    2.0962    0.0143 C.ar      1 <0>        -0.1489
      3 C3          2.3824    1.4169    0.0102 C.ar      1 <0>         0.1228
      4 C4          2.4063    0.0268    0.0070 C.ar      1 <0>        -0.1489
      5 C5          1.2277   -0.6843    0.0073 C.ar      1 <0>        -0.0795
      6 C6          0.0034   -0.0052    0.0119 C.ar      1 <0>        -0.0939
      7 C7         -1.2580   -0.7592    0.0133 C.2       1 <0>        -0.0051
      8 C8         -1.2376   -2.1098    0.0101 C.2       1 <0>        -0.2344
      9 C9         -2.4931   -2.8603    0.0115 C.2       1 <0>         0.4486
     10 O1         -3.5549   -2.2711    0.1113 O.2       1 <0>        -0.4445
     11 C10        -2.4738   -4.3269   -0.1077 C.ar      1 <0>        -0.2117
     12 C11        -2.4191   -4.9317   -1.3739 C.ar      1 <0>         0.1733
     13 C12        -2.4008   -6.3104   -1.4770 C.ar      1 <0>        -0.1807
     14 C13        -2.4363   -7.0969   -0.3327 C.ar      1 <0>         0.1574
     15 C14        -2.4905   -6.5066    0.9235 C.ar      1 <0>        -0.1822
     16 C15        -2.5041   -5.1292    1.0444 C.ar      1 <0>         0.1741
     17 O2         -2.5517   -4.5546    2.2725 O.3       1 <0>        -0.4904
     18 O3         -2.4185   -8.4495   -0.4426 O.3       1 <0>        -0.4918
     19 O4         -2.3847   -4.1652   -2.4929 O.3       1 <0>        -0.4869
     20 O5          3.5475    2.1133    0.0090 O.3       1 <0>        -0.4985
     21 H1         -0.9568    1.9233    0.0228 H         1 <0>         0.1347
     22 H2          1.1563    3.1761    0.0165 H         1 <0>         0.1348
     23 H3          3.3513   -0.4961    0.0038 H         1 <0>         0.1340
     24 H4          1.2473   -1.7641    0.0041 H         1 <0>         0.1331
     25 H5         -2.2014   -0.2334    0.0168 H         1 <0>         0.1366
     26 H6         -0.2942   -2.6355    0.0066 H         1 <0>         0.1338
     27 H7         -2.3591   -6.7771   -2.4501 H         1 <0>         0.1461
     28 H8         -2.5179   -7.1252    1.8084 H         1 <0>         0.1457
     29 H9         -3.4484   -4.3974    2.5988 H         1 <0>         0.4021
     30 H10        -1.5306   -8.8326   -0.4408 H         1 <0>         0.3995
     31 H11        -1.4921   -3.9336   -2.7837 H         1 <0>         0.3986
     32 H12         3.8871    2.3133    0.8920 H         1 <0>         0.3954
@<TRIPOS>BOND
     1    1    6 ar
     2    1    2 ar
     3    1   21 1
     4    2    3 ar
     5    2   22 1
     6    3    4 ar
     7    3   20 1
     8    4    5 ar
     9    4   23 1
    10    5    6 ar
    11    5   24 1
    12    6    7 1
    13    7    8 2
    14    7   25 1
    15    8    9 1
    16    8   26 1
    17    9   10 2
    18    9   11 1
    19   11   16 ar
    20   11   12 ar
    21   12   13 ar
    22   12   19 1
    23   13   14 ar
    24   13   27 1
    25   14   15 ar
    26   14   18 1
    27   15   16 ar
    28   15   28 1
    29   16   17 1
    30   17   29 1
    31   18   30 1
    32   19   31 1
    33   20   32 1
@<TRIPOS>MOLECULE
ZINC06411540
   34    36     0     0     0
SMALL
USER_CHARGES
3,5,7-trihydroxy-2-(4-methoxyphenyl)chromen-4-one
@<TRIPOS>ATOM
      1 C1          5.3444    4.4721    9.2086 C.3       1 <0>         0.0211
      2 O1          6.0419    3.7242    8.2106 O.3       1 <0>        -0.3139
      3 C2          5.3546    3.4110    7.0821 C.ar      1 <0>         0.1462
      4 C3          5.9745    2.6852    6.0724 C.ar      1 <0>        -0.1565
      5 C4          5.2812    2.3653    4.9259 C.ar      1 <0>        -0.0460
      6 C5          3.9520    2.7725    4.7790 C.ar      1 <0>        -0.0851
      7 C6          3.3342    3.5074    5.7950 C.ar      1 <0>        -0.0245
      8 C7          4.0335    3.8178    6.9404 C.ar      1 <0>        -0.2126
      9 C8          3.2058    2.4329    3.5534 C.2       1 <0>         0.1179
     10 C9          1.9588    1.8967    3.6719 C.2       1 <0>        -0.0246
     11 C10         1.2279    1.5645    2.5019 C.2       1 <0>         0.4035
     12 O2          0.1082    1.0828    2.5690 O.2       1 <0>        -0.4560
     13 C11         1.8722    1.8239    1.2045 C.ar      1 <0>        -0.3106
     14 C12         1.2232    1.5271   -0.0014 C.ar      1 <0>         0.2901
     15 C13         1.8595    1.7907   -1.1997 C.ar      1 <0>        -0.2993
     16 C14         3.1366    2.3421   -1.2064 C.ar      1 <0>         0.2673
     17 C15         3.7867    2.6334   -0.0176 C.ar      1 <0>        -0.2902
     18 C16         3.1651    2.3757    1.1950 C.ar      1 <0>         0.2314
     19 O3          3.7851    2.6537    2.3609 O.3       1 <0>        -0.2000
     20 O4          3.7524    2.5970   -2.3891 O.3       1 <0>        -0.4950
     21 O5         -0.0231    0.9899    0.0072 O.3       1 <0>        -0.4691
     22 O6          1.4189    1.6809    4.9024 O.3       1 <0>        -0.4820
     23 H1          6.0126    4.6558   10.0629 H         1 <0>         0.1044
     24 H2          4.4658    3.9028    9.5461 H         1 <0>         0.0593
     25 H3          5.0179    5.4334    8.7850 H         1 <0>         0.0590
     26 H4          7.0015    2.3711    6.1868 H         1 <0>         0.1375
     27 H5          5.7638    1.8012    4.1416 H         1 <0>         0.1355
     28 H6          2.3088    3.8279    5.6838 H         1 <0>         0.1332
     29 H7          3.5557    4.3821    7.7276 H         1 <0>         0.1351
     30 H8          1.3639    1.5684   -2.1331 H         1 <0>         0.1453
     31 H9          4.7783    3.0610   -0.0356 H         1 <0>         0.1487
     32 H10         4.7623    3.0330   -2.4007 H         1 <0>         0.4462
     33 H11        -0.5288    0.7585   -0.9418 H         1 <0>         0.4414
     34 H12         0.4118    1.2478    4.9929 H         1 <0>         0.4418
@<TRIPOS>BOND
     1    1    2 1
     2    1   23 1
     3    1   24 1
     4    1   25 1
     5    2    3 1
     6    3    8 ar
     7    3    4 ar
     8    4    5 ar
     9    4   26 1
    10    5    6 ar
    11    5   27 1
    12    6    7 ar
    13    6    9 1
    14    7    8 ar
    15    7   28 1
    16    8   29 1
    17    9   19 1
    18    9   10 2
    19   10   11 1
    20   10   22 1
    21   11   12 2
    22   11   13 1
    23   13   18 ar
    24   13   14 ar
    25   14   15 ar
    26   14   21 1
    27   15   16 ar
    28   15   30 1
    29   16   17 ar
    30   16   20 1
    31   17   18 ar
    32   17   31 1
    33   18   19 1
    34   20   32 1
    35   21   33 1
    36   22   34 1
@<TRIPOS>MOLECULE
ZINC01530850
   57    61     0     0     0
SMALL
USER_CHARGES
3,5,7-trihydroxy-2-[8-(4-hydroxy-3-methoxy-phenyl)-9-(hydroxymethyl)-7,10-dioxabicyclo[4.4.0]deca-2,4,11-trien-4-yl]-chroman-4-one
@<TRIPOS>ATOM
      1 C1         -7.9774    3.9194    2.6408 C.3       1 <0>         0.0225
      2 O1         -8.0994    4.6500    1.4187 O.3       1 <0>        -0.3040
      3 C2         -7.0353    4.6195    0.5723 C.ar      1 <0>         0.1059
      4 C3         -5.8991    3.9022    0.9109 C.ar      1 <0>        -0.1804
      5 C4         -4.8186    3.8719    0.0492 C.ar      1 <0>        -0.0627
      6 C5         -4.8661    4.5608   -1.1485 C.ar      1 <0>        -0.1081
      7 C6         -5.9987    5.2737   -1.4949 C.ar      1 <0>        -0.1041
      8 C7         -7.0853    5.3082   -0.6358 C.ar      1 <0>         0.0884
      9 O2         -8.1980    6.0140   -0.9723 O.3       1 <0>        -0.4850
     10 C8         -3.5837    3.0913    0.4191 C.3       1 <0>         0.1075
     11 H1         -3.5697    2.9135    1.4944 H         1 <0>         0.0963
     12 C9         -3.5752    1.7504   -0.3273 C.3       1 <0>         0.0636
     13 H2         -3.5832    1.9282   -1.4027 H         1 <0>         0.0968
     14 O3         -2.3848    1.0427    0.0362 O.3       1 <0>        -0.2904
     15 C10        -1.2234    1.7522    0.0174 C.ar      1 <0>         0.0642
     16 C11        -0.0126    1.0758    0.0080 C.ar      1 <0>        -0.1130
     17 C12         1.1751    1.7823    0.0004 C.ar      1 <0>        -0.0849
     18 C13         1.1599    3.1648    0.0079 C.ar      1 <0>        -0.0856
     19 C14        -0.0431    3.8448    0.0214 C.ar      1 <0>        -0.0735
     20 C15        -1.2388    3.1418    0.0276 C.ar      1 <0>         0.0471
     21 O4         -2.4157    3.8254    0.0359 O.3       1 <0>        -0.2911
     22 C16         2.4573    3.9314    0.0018 C.3       1 <0>         0.1564
     23 H3          2.3004    4.9154    0.4435 H         1 <0>         0.0995
     24 C17         2.9514    4.0911   -1.4434 C.3       1 <0>         0.0553
     25 H4          3.0700    3.1883   -1.8568 H         1 <0>         0.0940
     26 C18         4.2727    4.8367   -1.3865 C.2       1 <0>         0.3737
     27 O5          4.5558    5.6957   -2.1959 O.2       1 <0>        -0.4202
     28 C19         5.1894    4.4660   -0.3029 C.ar      1 <0>        -0.2943
     29 C20         6.5227    4.9054   -0.3108 C.ar      1 <0>         0.2247
     30 C21         7.3632    4.5510    0.7292 C.ar      1 <0>        -0.2183
     31 C22         6.8876    3.7641    1.7712 C.ar      1 <0>         0.2005
     32 C23         5.5711    3.3219    1.7817 C.ar      1 <0>        -0.1972
     33 C24         4.7139    3.6628    0.7501 C.ar      1 <0>         0.2104
     34 O6          3.4351    3.2190    0.7595 O.3       1 <0>        -0.2875
     35 O7          7.7182    3.4238    2.7886 O.3       1 <0>        -0.4893
     36 O8          6.9835    5.6712   -1.3308 O.3       1 <0>        -0.4788
     37 O9          2.0014    4.8418   -2.2023 O.3       1 <0>        -0.5331
     38 C25        -4.8050    0.9312    0.0693 C.3       1 <0>         0.0867
     39 O10        -4.8543   -0.2634   -0.7132 O.3       1 <0>        -0.5611
     40 H5         -7.8098    2.8655    2.4188 H         1 <0>         0.0563
     41 H6         -7.1359    4.3083    3.2141 H         1 <0>         0.0573
     42 H7         -8.8935    4.0272    3.2215 H         1 <0>         0.1048
     43 H8         -5.8579    3.3665    1.8478 H         1 <0>         0.1365
     44 H9         -4.0180    4.5386   -1.8169 H         1 <0>         0.1355
     45 H10        -6.0349    5.8076   -2.4330 H         1 <0>         0.1428
     46 H11        -8.1849    6.9341   -0.6753 H         1 <0>         0.3910
     47 H12         0.0021   -0.0041    0.0020 H         1 <0>         0.1406
     48 H13         2.1168    1.2537   -0.0110 H         1 <0>         0.1388
     49 H14        -0.0522    4.9248    0.0267 H         1 <0>         0.1404
     50 H15         8.3897    4.8866    0.7316 H         1 <0>         0.1476
     51 H16         5.2152    2.7099    2.5972 H         1 <0>         0.1514
     52 H17         7.7185    4.0527    3.5232 H         1 <0>         0.4038
     53 H18         6.8797    6.6218   -1.1869 H         1 <0>         0.4044
     54 H19         2.2549    4.9781   -3.1254 H         1 <0>         0.3957
     55 H20        -4.7430    0.6711    1.1260 H         1 <0>         0.0601
     56 H21        -5.7057    1.5190   -0.1079 H         1 <0>         0.0750
     57 H22        -5.6102   -0.8328   -0.5147 H         1 <0>         0.3867
@<TRIPOS>BOND
     1    1    2 1
     2    1   40 1
     3    1   41 1
     4    1   42 1
     5    2    3 1
     6    3    8 ar
     7    3    4 ar
     8    4    5 ar
     9    4   43 1
    10    5    6 ar
    11    5   10 1
    12    6    7 ar
    13    6   44 1
    14    7    8 ar
    15    7   45 1
    16    8    9 1
    17    9   46 1
    18   10   11 1
    19   10   21 1
    20   10   12 1
    21   12   13 1
    22   12   14 1
    23   12   38 1
    24   14   15 1
    25   15   20 ar
    26   15   16 ar
    27   16   17 ar
    28   16   47 1
    29   17   18 ar
    30   17   48 1
    31   18   19 ar
    32   18   22 1
    33   19   20 ar
    34   19   49 1
    35   20   21 1
    36   22   23 1
    37   22   34 1
    38   22   24 1
    39   24   25 1
    40   24   26 1
    41   24   37 1
    42   26   27 2
    43   26   28 1
    44   28   33 ar
    45   28   29 ar
    46   29   30 ar
    47   29   36 1
    48   30   31 ar
    49   30   50 1
    50   31   32 ar
    51   31   35 1
    52   32   33 ar
    53   32   51 1
    54   33   34 1
    55   35   52 1
    56   36   53 1
    57   37   54 1
    58   38   39 1
    59   38   55 1
    60   38   56 1
    61   39   57 1
@<TRIPOS>MOLECULE
ZINC02033588
   57    61     0     0     0
SMALL
USER_CHARGES
3,5,7-trihydroxy-2-[8-(4-hydroxy-3-methoxy-phenyl)-9-(hydroxymethyl)-7,10-dioxabicyclo[4.4.0]deca-2,4,11-trien-4-yl]-chroman-4-one
@<TRIPOS>ATOM
      1 C1          6.8028    4.0795    9.0138 C.3       1 <0>         0.0222
      2 O1          5.4817    4.2482    9.5317 O.3       1 <0>        -0.3041
      3 C2          4.4595    3.7377    8.7942 C.ar      1 <0>         0.1072
      4 C3          4.7230    3.0846    7.6008 C.ar      1 <0>        -0.1760
      5 C4          3.6823    2.5709    6.8497 C.ar      1 <0>        -0.0623
      6 C5          2.3784    2.6978    7.2915 C.ar      1 <0>        -0.1146
      7 C6          2.1091    3.3440    8.4835 C.ar      1 <0>        -0.1058
      8 C7          3.1471    3.8658    9.2386 C.ar      1 <0>         0.0885
      9 O2          2.8838    4.5022   10.4113 O.3       1 <0>        -0.4845
     10 C8          3.9702    1.8655    5.5495 C.3       1 <0>         0.1076
     11 H1          4.9506    2.1638    5.1780 H         1 <0>         0.1019
     12 C9          3.9393    0.3466    5.7667 C.3       1 <0>         0.0641
     13 H2          4.7028    0.0626    6.4909 H         1 <0>         0.1377
     14 O3          4.2026   -0.2913    4.5123 O.3       1 <0>        -0.2864
     15 C10         3.5252    0.1822    3.4309 C.ar      1 <0>         0.0643
     16 C11         3.4524   -0.5903    2.2813 C.ar      1 <0>        -0.1134
     17 C12         2.7721   -0.1211    1.1737 C.ar      1 <0>        -0.0852
     18 C13         2.1629    1.1195    1.2080 C.ar      1 <0>        -0.0851
     19 C14         2.2352    1.8961    2.3488 C.ar      1 <0>        -0.0741
     20 C15         2.9107    1.4282    3.4662 C.ar      1 <0>         0.0469
     21 O4          2.9661    2.2007    4.5855 O.3       1 <0>        -0.2935
     22 C16         1.4239    1.6284   -0.0028 C.3       1 <0>         0.1553
     23 H3          1.4014    2.7180    0.0161 H         1 <0>         0.0996
     24 C17        -0.0127    1.0858    0.0080 C.3       1 <0>         0.0559
     25 H4          0.0087    0.0861    0.0160 H         1 <0>         0.0938
     26 C18        -0.6964    1.6005   -1.2460 C.2       1 <0>         0.3691
     27 O5         -1.8484    1.9825   -1.2335 O.2       1 <0>        -0.4137
     28 C19         0.1063    1.6115   -2.4739 C.ar      1 <0>        -0.2928
     29 C20        -0.4975    1.8282   -3.7226 C.ar      1 <0>         0.2236
     30 C21         0.2847    1.8487   -4.8633 C.ar      1 <0>        -0.2176
     31 C22         1.6574    1.6537   -4.7697 C.ar      1 <0>         0.2003
     32 C23         2.2596    1.4340   -3.5376 C.ar      1 <0>        -0.1979
     33 C24         1.4957    1.4072   -2.3841 C.ar      1 <0>         0.2100
     34 O6          2.0871    1.1854   -1.1867 O.3       1 <0>        -0.2881
     35 O7          2.4173    1.6785   -5.8934 O.3       1 <0>        -0.4895
     36 O8         -1.8378    2.0151   -3.8100 O.3       1 <0>        -0.4752
     37 O9         -0.7019    1.5565    1.1680 O.3       1 <0>        -0.5329
     38 C25         2.5603   -0.0733    6.2796 C.3       1 <0>         0.0481
     39 O10         2.5639   -1.4737    6.5640 O.3       1 <0>        -0.5611
     40 H5          7.5216    4.5314    9.6974 H         1 <0>         0.1049
     41 H6          7.0192    3.0163    8.9097 H         1 <0>         0.0574
     42 H7          6.8753    4.5622    8.0392 H         1 <0>         0.0579
     43 H8          5.7409    2.9805    7.2554 H         1 <0>         0.1379
     44 H9          1.5685    2.2915    6.7039 H         1 <0>         0.1353
     45 H10         1.0897    3.4418    8.8264 H         1 <0>         0.1425
     46 H11         2.8789    3.9192   11.1827 H         1 <0>         0.3905
     47 H12         3.9282   -1.5594    2.2515 H         1 <0>         0.1401
     48 H13         2.7166   -0.7244    0.2796 H         1 <0>         0.1380
     49 H14         1.7621    2.8667    2.3716 H         1 <0>         0.1403
     50 H15        -0.1718    2.0162   -5.8276 H         1 <0>         0.1476
     51 H16         3.3275    1.2831   -3.4796 H         1 <0>         0.1514
     52 H17         2.5209    0.8156   -6.3173 H         1 <0>         0.4038
     53 H18        -2.3418    1.1987   -3.9300 H         1 <0>         0.4008
     54 H19        -1.6212    1.2622    1.2257 H         1 <0>         0.3948
     55 H20         2.3262    0.4814    7.1882 H         1 <0>         0.0742
     56 H21         1.8092    0.1412    5.5194 H         1 <0>         0.0561
     57 H22         1.7196   -1.8102    6.8942 H         1 <0>         0.3843
@<TRIPOS>BOND
     1    1    2 1
     2    1   40 1
     3    1   41 1
     4    1   42 1
     5    2    3 1
     6    3    8 ar
     7    3    4 ar
     8    4    5 ar
     9    4   43 1
    10    5    6 ar
    11    5   10 1
    12    6    7 ar
    13    6   44 1
    14    7    8 ar
    15    7   45 1
    16    8    9 1
    17    9   46 1
    18   10   11 1
    19   10   21 1
    20   10   12 1
    21   12   13 1
    22   12   14 1
    23   12   38 1
    24   14   15 1
    25   15   20 ar
    26   15   16 ar
    27   16   17 ar
    28   16   47 1
    29   17   18 ar
    30   17   48 1
    31   18   19 ar
    32   18   22 1
    33   19   20 ar
    34   19   49 1
    35   20   21 1
    36   22   23 1
    37   22   34 1
    38   22   24 1
    39   24   25 1
    40   24   26 1
    41   24   37 1
    42   26   27 2
    43   26   28 1
    44   28   33 ar
    45   28   29 ar
    46   29   30 ar
    47   29   36 1
    48   30   31 ar
    49   30   50 1
    50   31   32 ar
    51   31   35 1
    52   32   33 ar
    53   32   51 1
    54   33   34 1
    55   35   52 1
    56   36   53 1
    57   37   54 1
    58   38   39 1
    59   38   55 1
    60   38   56 1
    61   39   57 1
@<TRIPOS>MOLECULE
ZINC02033589
   57    61     0     0     0
SMALL
USER_CHARGES

@<TRIPOS>ATOM
      1 C1         -0.0173    1.4248    0.0099 C.3       1 <0>         0.0225
      2 O1          0.0021   -0.0041    0.0020 O.3       1 <0>        -0.3038
      3 C2          0.6062   -0.6075   -1.0564 C.ar      1 <0>         0.1065
      4 C3          1.1729    0.1590   -2.0621 C.ar      1 <0>        -0.1822
      5 C4          1.7870   -0.4560   -3.1371 C.ar      1 <0>        -0.0620
      6 C5          1.8372   -1.8356   -3.2121 C.ar      1 <0>        -0.1086
      7 C6          1.2734   -2.6062   -2.2124 C.ar      1 <0>        -0.1040
      8 C7          0.6617   -1.9961   -1.1290 C.ar      1 <0>         0.0878
      9 O2          0.1119   -2.7526   -0.1417 O.3       1 <0>        -0.4845
     10 C8          2.4028    0.3792   -4.2300 C.3       1 <0>         0.1075
     11 H1          2.6720    1.3592   -3.8361 H         1 <0>         0.0970
     12 C9          1.4028    0.5417   -5.3828 C.3       1 <0>         0.0640
     13 H2          1.1374   -0.4380   -5.7801 H         1 <0>         0.0968
     14 O3          2.0234    1.3263   -6.4071 O.3       1 <0>        -0.2907
     15 C10         3.2959    0.9871   -6.7507 C.ar      1 <0>         0.0642
     16 C11         3.8219    1.4437   -7.9501 C.ar      1 <0>        -0.1132
     17 C12         5.1136    1.1104   -8.3112 C.ar      1 <0>        -0.0849
     18 C13         5.8848    0.3211   -7.4784 C.ar      1 <0>        -0.0844
     19 C14         5.3663   -0.1384   -6.2826 C.ar      1 <0>        -0.0740
     20 C15         4.0700    0.1907   -5.9152 C.ar      1 <0>         0.0473
     21 O4          3.5710   -0.2748   -4.7373 O.3       1 <0>        -0.2911
     22 C16         7.2932   -0.0392   -7.8755 C.3       1 <0>         0.1588
     23 H3          7.5838   -0.9673   -7.3832 H         1 <0>         0.0991
     24 C17         8.2487    1.0861   -7.4527 C.3       1 <0>         0.0431
     25 H4          7.9559    2.0208   -7.9310 H         1 <0>         0.1058
     26 C18         9.6414    0.6873   -7.9067 C.2       1 <0>         0.3741
     27 O5         10.6187    0.8832   -7.2141 O.2       1 <0>        -0.4215
     28 C19         9.7454    0.0524   -9.2252 C.ar      1 <0>        -0.2941
     29 C20        10.9953   -0.1195   -9.8408 C.ar      1 <0>         0.2243
     30 C21        11.0664   -0.7321  -11.0791 C.ar      1 <0>        -0.2184
     31 C22         9.9065   -1.1704  -11.7065 C.ar      1 <0>         0.2003
     32 C23         8.6667   -0.9978  -11.1048 C.ar      1 <0>        -0.1973
     33 C24         8.5725   -0.3856   -9.8674 C.ar      1 <0>         0.2104
     34 O6          7.3601   -0.2098   -9.2911 O.3       1 <0>        -0.2876
     35 O7          9.9860   -1.7729  -12.9195 O.3       1 <0>        -0.4894
     36 O8         12.1246    0.3121   -9.2263 O.3       1 <0>        -0.4789
     37 O9          8.2233    1.2380   -6.0320 O.3       1 <0>        -0.5314
     38 C25         0.1450    1.2519   -4.8784 C.3       1 <0>         0.0859
     39 O10        -0.8281    1.2970   -5.9239 O.3       1 <0>        -0.5609
     40 H5          1.0053    1.8021    0.0021 H         1 <0>         0.0579
     41 H6         -0.5445    1.7859   -0.8732 H         1 <0>         0.0557
     42 H7         -0.5275    1.7763    0.9067 H         1 <0>         0.1049
     43 H8          1.1344    1.2368   -2.0063 H         1 <0>         0.1363
     44 H9          2.3175   -2.3124   -4.0537 H         1 <0>         0.1363
     45 H10         1.3136   -3.6837   -2.2735 H         1 <0>         0.1427
     46 H11        -0.8162   -2.9794   -0.2906 H         1 <0>         0.3903
     47 H12         3.2213    2.0599   -8.6027 H         1 <0>         0.1405
     48 H13         5.5211    1.4669   -9.2457 H         1 <0>         0.1390
     49 H14         5.9709   -0.7547   -5.6338 H         1 <0>         0.1403
     50 H15        12.0242   -0.8694  -11.5588 H         1 <0>         0.1474
     51 H16         7.7733   -1.3421  -11.6045 H         1 <0>         0.1514
     52 H17        10.0920   -2.7330  -12.8756 H         1 <0>         0.4038
     53 H18        12.5380   -0.3487   -8.6541 H         1 <0>         0.4043
     54 H19         8.8065    1.9343   -5.7004 H         1 <0>         0.3950
     55 H20        -0.2624    0.7080   -4.0262 H         1 <0>         0.0750
     56 H21         0.3984    2.2673   -4.5739 H         1 <0>         0.0602
     57 H22        -1.6536    1.7345   -5.6743 H         1 <0>         0.3864
@<TRIPOS>BOND
     1    1    2 1
     2    1   40 1
     3    1   41 1
     4    1   42 1
     5    2    3 1
     6    3    8 ar
     7    3    4 ar
     8    4    5 ar
     9    4   43 1
    10    5    6 ar
    11    5   10 1
    12    6    7 ar
    13    6   44 1
    14    7    8 ar
    15    7   45 1
    16    8    9 1
    17    9   46 1
    18   10   11 1
    19   10   21 1
    20   10   12 1
    21   12   13 1
    22   12   14 1
    23   12   38 1
    24   14   15 1
    25   15   20 ar
    26   15   16 ar
    27   16   17 ar
    28   16   47 1
    29   17   18 ar
    30   17   48 1
    31   18   19 ar
    32   18   22 1
    33   19   20 ar
    34   19   49 1
    35   20   21 1
    36   22   23 1
    37   22   34 1
    38   22   24 1
    39   24   25 1
    40   24   26 1
    41   24   37 1
    42   26   27 2
    43   26   28 1
    44   28   33 ar
    45   28   29 ar
    46   29   30 ar
    47   29   36 1
    48   30   31 ar
    49   30   50 1
    50   31   32 ar
    51   31   35 1
    52   32   33 ar
    53   32   51 1
    54   33   34 1
    55   35   52 1
    56   36   53 1
    57   37   54 1
    58   38   39 1
    59   38   55 1
    60   38   56 1
    61   39   57 1
@<TRIPOS>MOLECULE
ZINC25995973
   57    61     0     0     0
SMALL
USER_CHARGES
(2R,3R)-3,5,7-trihydroxy-2-[(2S,3R)-3-(4-hydroxy-3-methoxy-phenyl)-2-(hydroxymethyl)-2,3-dihydro-1,4-benzodioxin-6-yl]chroman-4-one
@<TRIPOS>ATOM
      1 C1         -7.9682    3.5929    5.8719 C.3       1 <0>         0.0204
      2 O1         -8.2741    4.6102    4.9161 O.3       1 <0>        -0.3039
      3 C2         -7.2505    5.0552    4.1390 C.ar      1 <0>         0.0921
      4 C3         -5.9800    4.5243    4.2934 C.ar      1 <0>        -0.1516
      5 C4         -4.9405    4.9781    3.5030 C.ar      1 <0>        -0.0984
      6 C5         -5.1642    5.9653    2.5613 C.ar      1 <0>        -0.0864
      7 C6         -6.4305    6.4955    2.3986 C.ar      1 <0>        -0.1806
      8 C7         -7.4767    6.0451    3.1875 C.ar      1 <0>         0.1425
      9 O2         -8.7221    6.5690    3.0320 O.3       1 <0>        -0.4972
     10 C8         -3.5592    4.3999    3.6726 C.3       1 <0>         0.1145
     11 H1         -3.6350    3.3623    4.0298 H         1 <0>         0.1014
     12 C9         -2.7391    5.2877    4.6184 C.3       1 <0>         0.0662
     13 H2         -3.1686    5.3202    5.6306 H         1 <0>         0.1371
     14 O3         -1.4315    4.7187    4.7457 O.3       1 <0>        -0.2902
     15 C10        -0.8186    4.3310    3.5940 C.ar      1 <0>         0.0622
     16 C11         0.5516    4.1158    3.5910 C.ar      1 <0>        -0.1144
     17 C12         1.1864    3.7112    2.4320 C.ar      1 <0>        -0.0870
     18 C13         0.4594    3.5295    1.2702 C.ar      1 <0>        -0.0823
     19 C14        -0.9060    3.7431    1.2661 C.ar      1 <0>        -0.0760
     20 C15        -1.5498    4.1458    2.4268 C.ar      1 <0>         0.0480
     21 O4         -2.8938    4.3596    2.4056 O.3       1 <0>        -0.2983
     22 C16         1.1561    3.0919    0.0076 C.3       1 <0>         0.1612
     23 H3          0.6158    3.4652   -0.8748 H         1 <0>         0.0977
     24 C17         1.2864    1.5618   -0.0018 C.3       1 <0>         0.0556
     25 H4          1.7823    1.1668    0.8971 H         1 <0>         0.1018
     26 C18         2.0223    1.1817   -1.2742 C.2       1 <0>         0.3772
     27 O5          1.7022    0.2125   -1.9311 O.2       1 <0>        -0.4257
     28 C19         3.1404    2.0456   -1.6688 C.ar      1 <0>        -0.3360
     29 C20         4.0330    1.6466   -2.6762 C.ar      1 <0>         0.2898
     30 C21         5.0695    2.4873   -3.0403 C.ar      1 <0>        -0.3066
     31 C22         5.2241    3.7156   -2.4089 C.ar      1 <0>         0.2669
     32 C23         4.3475    4.1131   -1.4077 C.ar      1 <0>        -0.2972
     33 C24         3.3046    3.2870   -1.0270 C.ar      1 <0>         0.2528
     34 O6          2.4570    3.6769   -0.0460 O.3       1 <0>        -0.2934
     35 O7          6.2416    4.5350   -2.7746 O.3       1 <0>        -0.4969
     36 O8          3.8804    0.4459   -3.2878 O.3       1 <0>        -0.4744
     37 O9         -0.0110    0.9628    0.0073 O.3       1 <0>        -0.5711
     38 C25        -2.6333    6.6996    4.0387 C.3       1 <0>         0.0620
     39 O10        -1.9450    7.5439    4.9636 O.3       1 <0>        -0.5907
     40 H5         -8.8789    3.3272    6.4288 H         1 <0>         0.1045
     41 H6         -7.2057    3.9650    6.5720 H         1 <0>         0.0566
     42 H7         -7.5846    2.7035    5.3506 H         1 <0>         0.0567
     43 H8         -5.8018    3.7557    5.0309 H         1 <0>         0.1387
     44 H9         -4.3486    6.3201    1.9486 H         1 <0>         0.1317
     45 H10        -6.6034    7.2636    1.6594 H         1 <0>         0.1389
     46 H11        -8.8996    7.3515    2.2795 H         1 <0>         0.4344
     47 H12         1.1224    4.2605    4.4964 H         1 <0>         0.1387
     48 H13         2.2528    3.5405    2.4329 H         1 <0>         0.1371
     49 H14        -1.4722    3.5966    0.3582 H         1 <0>         0.1386
     50 H15         5.7593    2.1887   -3.8157 H         1 <0>         0.1421
     51 H16         4.4799    5.0701   -0.9249 H         1 <0>         0.1451
     52 H17         6.3692    5.5085   -2.2786 H         1 <0>         0.4452
     53 H18         4.5822    0.1373   -4.0767 H         1 <0>         0.4414
     54 H19        -0.1111   -0.1326    0.0024 H         1 <0>         0.4259
     55 H20        -2.0779    6.6657    3.0898 H         1 <0>         0.0512
     56 H21        -3.6424    7.0987    3.8588 H         1 <0>         0.0686
     57 H22        -1.7724    8.6023    4.7188 H         1 <0>         0.4135
@<TRIPOS>BOND
     1    1    2 1
     2    1   40 1
     3    1   41 1
     4    1   42 1
     5    2    3 1
     6    3    8 ar
     7    3    4 ar
     8    4    5 ar
     9    4   43 1
    10    5    6 ar
    11    5   10 1
    12    6    7 ar
    13    6   44 1
    14    7    8 ar
    15    7   45 1
    16    8    9 1
    17    9   46 1
    18   10   11 1
    19   10   21 1
    20   10   12 1
    21   12   13 1
    22   12   14 1
    23   12   38 1
    24   14   15 1
    25   15   20 ar
    26   15   16 ar
    27   16   17 ar
    28   16   47 1
    29   17   18 ar
    30   17   48 1
    31   18   19 ar
    32   18   22 1
    33   19   20 ar
    34   19   49 1
    35   20   21 1
    36   22   23 1
    37   22   34 1
    38   22   24 1
    39   24   25 1
    40   24   26 1
    41   24   37 1
    42   26   27 2
    43   26   28 1
    44   28   33 ar
    45   28   29 ar
    46   29   30 ar
    47   29   36 1
    48   30   31 ar
    49   30   50 1
    50   31   32 ar
    51   31   35 1
    52   32   33 ar
    53   32   51 1
    54   33   34 1
    55   35   52 1
    56   36   53 1
    57   37   54 1
    58   38   39 1
    59   38   55 1
    60   38   56 1
    61   39   57 1
