@<TRIPOS>MOLECULE
ZINC00119632
   44    47     0     0     0
SMALL
USER_CHARGES

@<TRIPOS>ATOM
      1 C1          0.1715    1.6923   -0.0834 C.3       1 <0>        -0.1743
      2 C2          0.0455    0.1679   -0.0498 C.3       1 <0>         0.0257
      3 N1          0.6012   -0.3953   -1.2827 N.ar      1 <0>        -0.3384
      4 C3         -0.2026   -0.5044   -2.3519 C.ar      1 <0>         0.1284
      5 C4         -1.5395   -0.0845   -2.2735 C.ar      1 <0>        -0.2236
      6 C5         -2.3603   -0.1992   -3.3769 C.ar      1 <0>         0.2635
      7 C6         -1.8741   -0.7304   -4.5737 C.ar      1 <0>        -0.1464
      8 C7         -0.5781   -1.1446   -4.6718 C.ar      1 <0>        -0.0411
      9 C8          0.2744   -1.0395   -3.5711 C.ar      1 <0>        -0.0750
     10 C9          1.6723   -1.4772   -3.6491 C.ar      1 <0>        -0.0189
     11 C10         2.2215   -2.0149   -4.8122 C.ar      1 <0>        -0.0723
     12 C11         3.5299   -2.4048   -4.8259 C.ar      1 <0>        -0.1118
     13 C12         4.3265   -2.2715   -3.6868 C.ar      1 <0>         0.2299
     14 C13         3.8054   -1.7416   -2.5208 C.ar      1 <0>        -0.1562
     15 C14         2.4697   -1.3373   -2.4893 C.ar      1 <0>        -0.0623
     16 C15         1.8615   -0.7628   -1.2871 C.ar      1 <0>         0.3312
     17 C16         2.6759   -0.5993   -0.0614 C.ar      1 <0>        -0.1258
     18 C17         3.8200    0.1986   -0.0819 C.ar      1 <0>        -0.0683
     19 C18         4.5747    0.3470    1.0635 C.ar      1 <0>        -0.1107
     20 C19         4.1991   -0.2940    2.2307 C.ar      1 <0>        -0.0740
     21 C20         3.0655   -1.0868    2.2574 C.ar      1 <0>        -0.1087
     22 C21         2.2990   -1.2380    1.1202 C.ar      1 <0>        -0.0895
     23 N2          5.6622   -2.6775   -3.7256 N.pl3     1 <0>        -0.8602
     24 N3         -3.6895    0.2193   -3.2960 N.pl3     1 <0>        -0.8552
     25 H1          1.2256    1.9700   -0.0776 H         1 <0>         0.0740
     26 H2         -0.3004    2.0761   -0.9879 H         1 <0>         0.0757
     27 H3         -0.3208    2.1170    0.7915 H         1 <0>         0.1007
     28 H4          0.5934   -0.2232    0.8075 H         1 <0>         0.1312
     29 H5         -1.0056   -0.1080    0.0342 H         1 <0>         0.1257
     30 H6         -1.9248    0.3269   -1.3522 H         1 <0>         0.1467
     31 H7         -2.5295   -0.8142   -5.4280 H         1 <0>         0.1476
     32 H8         -0.2113   -1.5540   -5.6015 H         1 <0>         0.1526
     33 H9          1.6143   -2.1229   -5.6988 H         1 <0>         0.1506
     34 H10         3.9535   -2.8215   -5.7278 H         1 <0>         0.1471
     35 H11         4.4261   -1.6411   -1.6427 H         1 <0>         0.1455
     36 H12         4.1146    0.6990   -0.9926 H         1 <0>         0.1380
     37 H13         5.4606    0.9644    1.0489 H         1 <0>         0.1430
     38 H14         4.7935   -0.1754    3.1245 H         1 <0>         0.1408
     39 H15         2.7775   -1.5846    3.1716 H         1 <0>         0.1427
     40 H16         1.4117   -1.8532    1.1436 H         1 <0>         0.1342
     41 H17         6.0324   -3.0501   -4.5410 H         1 <0>         0.4099
     42 H18         6.2197   -2.5870   -2.9370 H         1 <0>         0.4081
     43 H19        -4.0322    0.5886   -2.4670 H         1 <0>         0.4084
     44 H20        -4.2706    0.1408   -4.0687 H         1 <0>         0.4120
@<TRIPOS>BOND
     1    1    2 1
     2    1   25 1
     3    1   26 1
     4    1   27 1
     5    2    3 1
     6    2   28 1
     7    2   29 1
     8    3   16 ar
     9    3    4 ar
    10    4    9 ar
    11    4    5 ar
    12    5    6 ar
    13    5   30 1
    14    6    7 ar
    15    6   24 1
    16    7    8 ar
    17    7   31 1
    18    8    9 ar
    19    8   32 1
    20    9   10 ar
    21   10   15 ar
    22   10   11 ar
    23   11   12 ar
    24   11   33 1
    25   12   13 ar
    26   12   34 1
    27   13   14 ar
    28   13   23 1
    29   14   15 ar
    30   14   35 1
    31   15   16 ar
    32   16   17 1
    33   17   22 ar
    34   17   18 ar
    35   18   19 ar
    36   18   36 1
    37   19   20 ar
    38   19   37 1
    39   20   21 ar
    40   20   38 1
    41   21   22 ar
    42   21   39 1
    43   22   40 1
    44   23   41 1
    45   23   42 1
    46   24   43 1
    47   24   44 1
@<TRIPOS>MOLECULE
ZINC03861461
   63    66     0     0     0
SMALL
USER_CHARGES
ethyl 2-(6-ethylamino-3-ethylimino-2,7-dimethyl-xanthen-9-yl)benzoate
@<TRIPOS>ATOM
      1 C1         -8.3462    6.2140    2.1652 C.3       1 <0>        -0.1662
      2 C2         -6.9591    5.6365    1.8764 C.3       1 <0>         0.1108
      3 N1         -7.0345    4.1737    1.8520 N.pl3     1 <0>        -0.7314
      4 C3         -5.8909    3.4228    1.6065 C.ar      1 <0>         0.2726
      5 C4         -4.6801    4.0644    1.3851 C.ar      1 <0>        -0.2270
      6 C5         -3.5364    3.3195    1.1397 C.ar      1 <0>         0.1962
      7 C6         -3.6237    1.9138    1.1192 C.ar      1 <0>        -0.1725
      8 C7         -4.8538    1.2816    1.3451 C.ar      1 <0>        -0.0127
      9 C8         -5.9689    2.0289    1.5840 C.ar      1 <0>        -0.1784
     10 C9         -7.2911    1.3475    1.8257 C.3       1 <0>        -0.1049
     11 C10        -2.4180    1.1186    0.8603 C.2       1 <0>         0.0792
     12 C11        -1.2123    1.8097    0.6413 C.2       1 <0>        -0.1159
     13 C12        -0.0161    1.1050    0.3872 C.2       1 <0>        -0.0863
     14 C13         1.1345    1.7834    0.1734 C.2       1 <0>        -0.0671
     15 C14         1.1399    3.2447    0.2120 C.2       1 <0>         0.2428
     16 N2          2.2704    3.9080    0.0019 N.2       1 <0>        -0.5310
     17 C15         2.2541    5.3693   -0.1001 C.3       1 <0>         0.0255
     18 C16         2.7886    5.7908   -1.4704 C.3       1 <0>        -0.1394
     19 C17        -0.0526    3.9523    0.4715 C.2       1 <0>        -0.2640
     20 C18        -1.2151    3.2714    0.6872 C.2       1 <0>         0.1909
     21 O1         -2.3581    3.9459    0.9358 O.3       1 <0>        -0.2265
     22 C19         2.4113    1.0325   -0.1043 C.3       1 <0>        -0.1053
     23 C20        -2.4683   -0.3547    0.8311 C.ar      1 <0>         0.0031
     24 C21        -2.2537   -1.0883    1.9987 C.ar      1 <0>        -0.1079
     25 C22        -2.3059   -2.4675    1.9661 C.ar      1 <0>        -0.0794
     26 C23        -2.5612   -3.1325    0.7784 C.ar      1 <0>        -0.1223
     27 C24        -2.7715   -2.4250   -0.3894 C.ar      1 <0>        -0.0606
     28 C25        -2.7277   -1.0324   -0.3779 C.ar      1 <0>        -0.1066
     29 C26        -2.9509   -0.2715   -1.6233 C.2       1 <0>         0.5003
     30 O2         -2.9114    0.9426   -1.6087 O.2       1 <0>        -0.4807
     31 O3         -3.1984   -0.9236   -2.7761 O.3       1 <0>        -0.3540
     32 C27        -3.4081   -0.1113   -3.9611 C.3       1 <0>         0.0647
     33 C28        -3.6731   -1.0208   -5.1626 C.3       1 <0>        -0.1530
     34 H1         -8.2901    7.3024    2.1834 H         1 <0>         0.0768
     35 H2         -9.0403    5.8989    1.3862 H         1 <0>         0.0627
     36 H3         -8.6963    5.8520    3.1319 H         1 <0>         0.0628
     37 H4         -6.2649    5.9516    2.6555 H         1 <0>         0.0662
     38 H5         -6.6089    5.9985    0.9097 H         1 <0>         0.0660
     39 H6         -7.8825    3.7291    2.0072 H         1 <0>         0.4050
     40 H7         -4.6286    5.1430    1.4043 H         1 <0>         0.1398
     41 H8         -4.9187    0.2037    1.3289 H         1 <0>         0.1304
     42 H9         -7.8083    1.2106    0.8760 H         1 <0>         0.0684
     43 H10        -7.1198    0.3761    2.2895 H         1 <0>         0.0708
     44 H11        -7.9016    1.9630    2.4865 H         1 <0>         0.0609
     45 H12        -0.0203    0.0254    0.3590 H         1 <0>         0.1313
     46 H13         1.2325    5.7305    0.0182 H         1 <0>         0.0489
     47 H14         2.8828    5.7951    0.6818 H         1 <0>         0.0779
     48 H15         3.8102    5.4297   -1.5887 H         1 <0>         0.0613
     49 H16         2.1599    5.3650   -2.2523 H         1 <0>         0.0511
     50 H17         2.7765    6.8781   -1.5463 H         1 <0>         0.0598
     51 H18        -0.0455    5.0319    0.4991 H         1 <0>         0.1395
     52 H19         2.5160    0.8785   -1.1783 H         1 <0>         0.0699
     53 H20         3.2595    1.6092    0.2645 H         1 <0>         0.0797
     54 H21         2.3818    0.0666    0.4001 H         1 <0>         0.0630
     55 H22        -2.0504   -0.5772    2.9281 H         1 <0>         0.1385
     56 H23        -2.1427   -3.0318    2.8724 H         1 <0>         0.1373
     57 H24        -2.5957   -4.2118    0.7649 H         1 <0>         0.1368
     58 H25        -2.9697   -2.9513   -1.3114 H         1 <0>         0.1436
     59 H26        -4.2652    0.5440   -3.8055 H         1 <0>         0.0704
     60 H27        -2.5198    0.4913   -4.1504 H         1 <0>         0.0716
     61 H28        -3.8305   -0.4109   -6.0522 H         1 <0>         0.0815
     62 H29        -2.8160   -1.6760   -5.3182 H         1 <0>         0.0679
     63 H30        -4.5614   -1.6233   -4.9733 H         1 <0>         0.0672
@<TRIPOS>BOND
     1    1    2 1
     2    1   34 1
     3    1   35 1
     4    1   36 1
     5    2    3 1
     6    2   37 1
     7    2   38 1
     8    3    4 1
     9    3   39 1
    10    4    9 ar
    11    4    5 ar
    12    5    6 ar
    13    5   40 1
    14    6   21 1
    15    6    7 ar
    16    7    8 ar
    17    7   11 1
    18    8    9 ar
    19    8   41 1
    20    9   10 1
    21   10   42 1
    22   10   43 1
    23   10   44 1
    24   11   12 2
    25   11   23 1
    26   12   20 1
    27   12   13 1
    28   13   14 2
    29   13   45 1
    30   14   15 1
    31   14   22 1
    32   15   16 2
    33   15   19 1
    34   16   17 1
    35   17   18 1
    36   17   46 1
    37   17   47 1
    38   18   48 1
    39   18   49 1
    40   18   50 1
    41   19   20 2
    42   19   51 1
    43   20   21 1
    44   22   52 1
    45   22   53 1
    46   22   54 1
    47   23   28 ar
    48   23   24 ar
    49   24   25 ar
    50   24   55 1
    51   25   26 ar
    52   25   56 1
    53   26   27 ar
    54   26   57 1
    55   27   28 ar
    56   27   58 1
    57   28   29 1
    58   29   30 2
    59   29   31 1
    60   31   32 1
    61   32   33 1
    62   32   59 1
    63   32   60 1
    64   33   61 1
    65   33   62 1
    66   33   63 1
