@<TRIPOS>MOLECULE
ZINC17654244
   61    60     0     0     0
SMALL
USER_CHARGES
(5Z,8Z,11Z,14Z)-1-(fluoro-methoxy-phosphoryl)icosa-5,8,11,14-tetraene
@<TRIPOS>ATOM
      1 C1        -11.8196   13.2176    9.8711 C.3       1 <0>        -0.1543
      2 C2        -10.9707   13.0657    8.6073 C.3       1 <0>        -0.1259
      3 C3        -11.6929   12.1528    7.6145 C.3       1 <0>        -0.1214
      4 C4        -10.8440   12.0009    6.3507 C.3       1 <0>        -0.1145
      5 C5        -11.5663   11.0879    5.3578 C.3       1 <0>        -0.1025
      6 C6        -10.7302   10.9383    4.1130 C.2       1 <0>        -0.1583
      7 C7        -10.4412    9.7445    3.6577 C.2       1 <0>        -0.1532
      8 C8        -11.0768    8.5271    4.2782 C.3       1 <0>        -0.0835
      9 C9        -11.7351    7.7011    3.2034 C.2       1 <0>        -0.1510
     10 C10       -11.4475    6.4284    3.0870 C.2       1 <0>        -0.1520
     11 C11       -10.5979    5.7494    4.1301 C.3       1 <0>        -0.0842
     12 C12       -11.3122    4.5243    4.6402 C.2       1 <0>        -0.1501
     13 C13       -10.7100    3.3610    4.6246 C.2       1 <0>        -0.1521
     14 C14        -9.2524    3.2720    4.2528 C.3       1 <0>        -0.0854
     15 C15        -8.5067    2.5148    5.3213 C.2       1 <0>        -0.1476
     16 C16        -7.7706    1.4804    4.9984 C.2       1 <0>        -0.1622
     17 C17        -7.5360    1.1459    3.5479 C.3       1 <0>        -0.1044
     18 C18        -6.0339    1.0055    3.2934 C.3       1 <0>        -0.1085
     19 C19        -5.7957    0.6658    1.8207 C.3       1 <0>        -0.1174
     20 C20        -4.2936    0.5254    1.5661 C.3       1 <0>        -0.7259
     21 P1         -4.0098    0.1207   -0.1886 P.3       1 <0>         2.2098
     22 O1         -4.5553    1.2024   -1.0388 O.2       1 <0>        -0.9851
     23 O2         -2.4291   -0.0270   -0.4564 O.3       1 <0>        -0.7306
     24 C21        -1.8831   -0.3417   -1.7390 C.3       1 <0>         0.0716
     25 F1         -4.7739   -1.3173   -0.5588 F         1 <0>        -0.3637
     26 H1        -11.9748   12.2386   10.3244 H         1 <0>         0.0533
     27 H2        -11.3050   13.8680   10.5784 H         1 <0>         0.0535
     28 H3        -12.7837   13.6545    9.6109 H         1 <0>         0.0535
     29 H4        -10.0066   12.6288    8.8676 H         1 <0>         0.0604
     30 H5        -10.8154   14.0448    8.1540 H         1 <0>         0.0607
     31 H6        -12.6570   12.5897    7.3542 H         1 <0>         0.0614
     32 H7        -11.8482   11.1737    8.0677 H         1 <0>         0.0609
     33 H8         -9.8799   11.5640    6.6109 H         1 <0>         0.0617
     34 H9        -10.6888   12.9799    5.8974 H         1 <0>         0.0618
     35 H10       -12.5304   11.5248    5.0976 H         1 <0>         0.0689
     36 H11       -11.7216   10.1089    5.8111 H         1 <0>         0.0754
     37 H12       -10.3692   11.8153    3.5963 H         1 <0>         0.1090
     38 H13        -9.7474    9.6327    2.8376 H         1 <0>         0.1088
     39 H14       -11.8255    8.8394    5.0063 H         1 <0>         0.0838
     40 H15       -10.3116    7.9318    4.7765 H         1 <0>         0.0822
     41 H16       -12.4441    8.1584    2.5291 H         1 <0>         0.1102
     42 H17       -11.8193    5.8657    2.2434 H         1 <0>         0.1106
     43 H18       -10.4195    6.4367    4.9571 H         1 <0>         0.0833
     44 H19        -9.6451    5.4570    3.6886 H         1 <0>         0.0832
     45 H20       -12.3204    4.6055    5.0186 H         1 <0>         0.1105
     46 H21       -11.2583    2.4658    4.8782 H         1 <0>         0.1102
     47 H22        -8.8383    4.2763    4.1630 H         1 <0>         0.0841
     48 H23        -9.1514    2.7509    3.3007 H         1 <0>         0.0847
     49 H24        -8.5793    2.8250    6.3533 H         1 <0>         0.1099
     50 H25        -7.3318    0.8674    5.7718 H         1 <0>         0.1089
     51 H26        -7.9377    1.9425    2.9217 H         1 <0>         0.0806
     52 H27        -8.0347    0.2073    3.3062 H         1 <0>         0.0728
     53 H28        -5.6321    0.2089    3.9195 H         1 <0>         0.0625
     54 H29        -5.5351    1.9441    3.5350 H         1 <0>         0.0648
     55 H30        -6.1974    1.4625    1.1945 H         1 <0>         0.0878
     56 H31        -6.2944   -0.2728    1.5790 H         1 <0>         0.0746
     57 H32        -3.8918   -0.2712    2.1923 H         1 <0>         0.1025
     58 H33        -3.7948    1.4640    1.8078 H         1 <0>         0.1213
     59 H34        -2.2668   -1.3066   -2.0704 H         1 <0>         0.0612
     60 H35        -0.7963   -0.3872   -1.6700 H         1 <0>         0.1019
     61 H36        -2.1698    0.4286   -2.4549 H         1 <0>         0.0714
@<TRIPOS>BOND
     1    1    2 1
     2    1   26 1
     3    1   27 1
     4    1   28 1
     5    2    3 1
     6    2   29 1
     7    2   30 1
     8    3    4 1
     9    3   31 1
    10    3   32 1
    11    4    5 1
    12    4   33 1
    13    4   34 1
    14    5    6 1
    15    5   35 1
    16    5   36 1
    17    6    7 2
    18    6   37 1
    19    7    8 1
    20    7   38 1
    21    8    9 1
    22    8   39 1
    23    8   40 1
    24    9   10 2
    25    9   41 1
    26   10   11 1
    27   10   42 1
    28   11   12 1
    29   11   43 1
    30   11   44 1
    31   12   13 2
    32   12   45 1
    33   13   14 1
    34   13   46 1
    35   14   15 1
    36   14   47 1
    37   14   48 1
    38   15   16 2
    39   15   49 1
    40   16   17 1
    41   16   50 1
    42   17   18 1
    43   17   51 1
    44   17   52 1
    45   18   19 1
    46   18   53 1
    47   18   54 1
    48   19   20 1
    49   19   55 1
    50   19   56 1
    51   20   21 1
    52   20   57 1
    53   20   58 1
    54   21   22 2
    55   21   23 1
    56   21   25 1
    57   23   24 1
    58   24   59 1
    59   24   60 1
    60   24   61 1
@<TRIPOS>MOLECULE
ZINC17654246
   61    60     0     0     0
SMALL
USER_CHARGES
(5Z,8Z,11Z,14Z)-1-(fluoro-methoxy-phosphoryl)icosa-5,8,11,14-tetraene
@<TRIPOS>ATOM
      1 C1        -11.8196   13.2177    9.8709 C.3       1 <0>        -0.1543
      2 C2        -10.9707   13.0658    8.6072 C.3       1 <0>        -0.1259
      3 C3        -11.6930   12.1528    7.6143 C.3       1 <0>        -0.1215
      4 C4        -10.8441   12.0009    6.3505 C.3       1 <0>        -0.1144
      5 C5        -11.5664   11.0880    5.3577 C.3       1 <0>        -0.1027
      6 C6        -10.7302   10.9383    4.1129 C.2       1 <0>        -0.1578
      7 C7        -10.4412    9.7445    3.6576 C.2       1 <0>        -0.1535
      8 C8        -11.0768    8.5271    4.2781 C.3       1 <0>        -0.0836
      9 C9        -11.7352    7.7011    3.2033 C.2       1 <0>        -0.1508
     10 C10       -11.4476    6.4284    3.0869 C.2       1 <0>        -0.1523
     11 C11       -10.5979    5.7494    4.1300 C.3       1 <0>        -0.0837
     12 C12       -11.3122    4.5244    4.6401 C.2       1 <0>        -0.1507
     13 C13       -10.7101    3.3610    4.6245 C.2       1 <0>        -0.1519
     14 C14        -9.2524    3.2720    4.2527 C.3       1 <0>        -0.0847
     15 C15        -8.5067    2.5148    5.3213 C.2       1 <0>        -0.1493
     16 C16        -7.7706    1.4805    4.9984 C.2       1 <0>        -0.1608
     17 C17        -7.5360    1.1459    3.5479 C.3       1 <0>        -0.1046
     18 C18        -6.0339    1.0055    3.2933 C.3       1 <0>        -0.1085
     19 C19        -5.7957    0.6658    1.8207 C.3       1 <0>        -0.1173
     20 C20        -4.2936    0.5254    1.5661 C.3       1 <0>        -0.7260
     21 P1         -4.0098    0.1207   -0.1886 P.3       1 <0>         2.2100
     22 O1         -4.6870   -1.1537   -0.5167 O.2       1 <0>        -0.9853
     23 O2         -2.4291   -0.0270   -0.4564 O.3       1 <0>        -0.7306
     24 C21        -1.8831   -0.3417   -1.7390 C.3       1 <0>         0.0715
     25 F1         -4.6253    1.3412   -1.1480 F         1 <0>        -0.3637
     26 H1        -12.7837   13.6546    9.6107 H         1 <0>         0.0535
     27 H2        -11.9749   12.2387   10.3242 H         1 <0>         0.0533
     28 H3        -11.3050   13.8681   10.5783 H         1 <0>         0.0536
     29 H4        -10.0066   12.6289    8.8674 H         1 <0>         0.0603
     30 H5        -10.8155   14.0448    8.1539 H         1 <0>         0.0606
     31 H6        -12.6571   12.5897    7.3540 H         1 <0>         0.0615
     32 H7        -11.8482   11.1738    8.0676 H         1 <0>         0.0609
     33 H8         -9.8800   11.5640    6.6108 H         1 <0>         0.0617
     34 H9        -10.6888   12.9799    5.8972 H         1 <0>         0.0618
     35 H10       -12.5305   11.5249    5.0974 H         1 <0>         0.0691
     36 H11       -11.7216   10.1089    5.8110 H         1 <0>         0.0755
     37 H12       -10.3693   11.8153    3.5961 H         1 <0>         0.1090
     38 H13        -9.7474    9.6327    2.8375 H         1 <0>         0.1085
     39 H14       -11.8255    8.8394    5.0062 H         1 <0>         0.0839
     40 H15       -10.3117    7.9318    4.7764 H         1 <0>         0.0822
     41 H16       -12.4441    8.1584    2.5290 H         1 <0>         0.1102
     42 H17       -11.8193    5.8657    2.2433 H         1 <0>         0.1105
     43 H18       -10.4195    6.4367    4.9570 H         1 <0>         0.0832
     44 H19        -9.6452    5.4570    3.6886 H         1 <0>         0.0827
     45 H20       -12.3205    4.6055    5.0185 H         1 <0>         0.1106
     46 H21       -11.2583    2.4658    4.8782 H         1 <0>         0.1104
     47 H22        -8.8383    4.2763    4.1630 H         1 <0>         0.0835
     48 H23        -9.1514    2.7509    3.3007 H         1 <0>         0.0843
     49 H24        -8.5793    2.8250    6.3532 H         1 <0>         0.1099
     50 H25        -7.3318    0.8675    5.7718 H         1 <0>         0.1093
     51 H26        -7.9377    1.9425    2.9217 H         1 <0>         0.0794
     52 H27        -8.0347    0.2073    3.3062 H         1 <0>         0.0744
     53 H28        -5.6321    0.2089    3.9195 H         1 <0>         0.0646
     54 H29        -5.5351    1.9441    3.5350 H         1 <0>         0.0628
     55 H30        -6.1974    1.4624    1.1945 H         1 <0>         0.0742
     56 H31        -6.2944   -0.2728    1.5790 H         1 <0>         0.0882
     57 H32        -3.8918   -0.2712    2.1923 H         1 <0>         0.1214
     58 H33        -3.7948    1.4640    1.8078 H         1 <0>         0.1025
     59 H34        -2.2668   -1.3067   -2.0703 H         1 <0>         0.0714
     60 H35        -0.7962   -0.3872   -1.6699 H         1 <0>         0.1019
     61 H36        -2.1698    0.4286   -2.4549 H         1 <0>         0.0612
@<TRIPOS>BOND
     1    1    2 1
     2    1   26 1
     3    1   27 1
     4    1   28 1
     5    2    3 1
     6    2   29 1
     7    2   30 1
     8    3    4 1
     9    3   31 1
    10    3   32 1
    11    4    5 1
    12    4   33 1
    13    4   34 1
    14    5    6 1
    15    5   35 1
    16    5   36 1
    17    6    7 2
    18    6   37 1
    19    7    8 1
    20    7   38 1
    21    8    9 1
    22    8   39 1
    23    8   40 1
    24    9   10 2
    25    9   41 1
    26   10   11 1
    27   10   42 1
    28   11   12 1
    29   11   43 1
    30   11   44 1
    31   12   13 2
    32   12   45 1
    33   13   14 1
    34   13   46 1
    35   14   15 1
    36   14   47 1
    37   14   48 1
    38   15   16 2
    39   15   49 1
    40   16   17 1
    41   16   50 1
    42   17   18 1
    43   17   51 1
    44   17   52 1
    45   18   19 1
    46   18   53 1
    47   18   54 1
    48   19   20 1
    49   19   55 1
    50   19   56 1
    51   20   21 1
    52   20   57 1
    53   20   58 1
    54   21   22 2
    55   21   23 1
    56   21   25 1
    57   23   24 1
    58   24   59 1
    59   24   60 1
    60   24   61 1
@<TRIPOS>MOLECULE
ZINC01532176
   24    23     0     0     0
SMALL
USER_CHARGES

@<TRIPOS>ATOM
      1 C1         -0.0178    1.4608    0.0101 C.3       1 <0>         0.0614
      2 N1          0.0021   -0.0041    0.0020 N.pl3     1 <0>        -0.5000
      3 C2          0.0241   -0.7433    1.2666 C.3       1 <0>         0.0461
      4 C3          0.0001   -0.6716   -1.1688 C.2       1 <0>         0.2325
      5 S1         -0.0257    0.1923   -2.6467 S.2       1 <0>        -0.5444
      6 S2          0.0226   -2.3314   -1.1779 S.3       1 <0>         0.1474
      7 S3          0.0103   -2.8166   -3.1697 S.3       1 <0>         0.1480
      8 C4          1.6101   -2.7534   -3.6082 C.2       1 <0>         0.2328
      9 S4          2.8004   -2.3451   -2.4475 S.2       1 <0>        -0.5413
     10 N2          1.9718   -3.0236   -4.8781 N.pl3     1 <0>        -0.5017
     11 C5          3.3837   -2.9678   -5.2652 C.3       1 <0>         0.0616
     12 C6          0.9532   -3.3730   -5.8714 C.3       1 <0>         0.0531
     13 H1          1.0048    1.8381    0.0023 H         1 <0>         0.0810
     14 H2         -0.5450    1.8219   -0.8730 H         1 <0>         0.1082
     15 H3         -0.5280    1.8123    0.9069 H         1 <0>         0.0862
     16 H4          0.0224   -0.0395    2.0990 H         1 <0>         0.1029
     17 H5         -0.8567   -1.3823    1.3294 H         1 <0>         0.0845
     18 H6          0.9230   -1.3581    1.3125 H         1 <0>         0.0904
     19 H7          3.8392   -3.9474   -5.1198 H         1 <0>         0.0810
     20 H8          3.4618   -2.6829   -6.3144 H         1 <0>         0.0867
     21 H9          3.9005   -2.2318   -4.6493 H         1 <0>         0.1079
     22 H10         0.5952   -2.4663   -6.3591 H         1 <0>         0.0892
     23 H11         1.3864   -4.0398   -6.6170 H         1 <0>         0.0997
     24 H12         0.1202   -3.8729   -5.3772 H         1 <0>         0.0869
@<TRIPOS>BOND
     1    1    2 1
     2    1   13 1
     3    1   14 1
     4    1   15 1
     5    2    3 1
     6    2    4 1
     7    3   16 1
     8    3   17 1
     9    3   18 1
    10    4    5 2
    11    4    6 1
    12    6    7 1
    13    7    8 1
    14    8    9 2
    15    8   10 1
    16   10   11 1
    17   10   12 1
    18   11   19 1
    19   11   20 1
    20   11   21 1
    21   12   22 1
    22   12   23 1
    23   12   24 1
@<TRIPOS>MOLECULE
ZINC01606736
   38    39     0     0     0
SMALL
USER_CHARGES

@<TRIPOS>ATOM
      1 C1         -0.0187    1.5262    0.0104 C.3       1 <0>        -0.1261
      2 C2          1.4165    2.0576   -0.0004 C.3       1 <0>        -0.1324
      3 C3          2.1442    1.5770    1.2590 C.3       1 <0>         0.0829
      4 N1          2.0433    0.1131    1.3339 N.pl3     1 <0>        -0.4937
      5 C4          0.7138   -0.5080    1.2615 C.3       1 <0>         0.0901
      6 C5          0.0021   -0.0041    0.0020 C.3       1 <0>        -0.1337
      7 C6          3.1494   -0.6456    1.4661 C.2       1 <0>         0.2453
      8 S1          4.6907    0.0951    1.5483 S.2       1 <0>        -0.5470
      9 S2          3.0173   -2.2982    1.5491 S.3       1 <0>         0.1372
     10 S3          4.9542   -2.9415    1.7417 S.3       1 <0>         0.1367
     11 C7          5.2495   -2.8440    3.3723 C.2       1 <0>         0.2455
     12 S4          4.0238   -2.2924    4.4327 S.2       1 <0>        -0.5481
     13 N2          6.4542   -3.1990    3.8614 N.pl3     1 <0>        -0.4933
     14 C8          7.5179   -3.6685    2.9633 C.3       1 <0>         0.0895
     15 C9          8.7757   -2.8288    3.2075 C.3       1 <0>        -0.1339
     16 C10         9.1388   -2.8814    4.6933 C.3       1 <0>        -0.1248
     17 C11         7.9952   -2.2903    5.5208 C.3       1 <0>        -0.1333
     18 C12         6.7306   -3.1181    5.3022 C.3       1 <0>         0.0836
     19 H1         -0.5292    1.8775    0.9071 H         1 <0>         0.0700
     20 H2         -0.5462    1.8870   -0.8725 H         1 <0>         0.0758
     21 H3          1.9352    1.6864   -0.8843 H         1 <0>         0.0721
     22 H4          1.4008    3.1473   -0.0180 H         1 <0>         0.0877
     23 H5          3.1932    1.8688    1.2087 H         1 <0>         0.1273
     24 H6          1.6812    2.0207    2.1404 H         1 <0>         0.0878
     25 H7          0.8190   -1.5919    1.2128 H         1 <0>         0.0950
     26 H8          0.1341   -0.2343    2.1430 H         1 <0>         0.0982
     27 H9         -1.0203   -0.3817   -0.0139 H         1 <0>         0.0900
     28 H10         0.5341   -0.3558   -0.8819 H         1 <0>         0.0742
     29 H11         7.7331   -4.7171    3.1685 H         1 <0>         0.0965
     30 H12         7.1982   -3.5549    1.9274 H         1 <0>         0.0962
     31 H13         9.6003   -3.2284    2.6171 H         1 <0>         0.0891
     32 H14         8.5859   -1.7959    2.9157 H         1 <0>         0.0771
     33 H15         9.3043   -3.9170    4.9902 H         1 <0>         0.0690
     34 H16        10.0476   -2.3047    4.8656 H         1 <0>         0.0753
     35 H17         8.2642   -2.3066    6.5770 H         1 <0>         0.0875
     36 H18         7.8128   -1.2624    5.2073 H         1 <0>         0.0731
     37 H19         5.8915   -2.6415    5.8090 H         1 <0>         0.1268
     38 H20         6.8801   -4.1208    5.7024 H         1 <0>         0.0869
@<TRIPOS>BOND
     1    1    6 1
     2    1    2 1
     3    1   19 1
     4    1   20 1
     5    2    3 1
     6    2   21 1
     7    2   22 1
     8    3    4 1
     9    3   23 1
    10    3   24 1
    11    4    5 1
    12    4    7 1
    13    5    6 1
    14    5   25 1
    15    5   26 1
    16    6   27 1
    17    6   28 1
    18    7    8 2
    19    7    9 1
    20    9   10 1
    21   10   11 1
    22   11   12 2
    23   11   13 1
    24   13   18 1
    25   13   14 1
    26   14   15 1
    27   14   29 1
    28   14   30 1
    29   15   16 1
    30   15   31 1
    31   15   32 1
    32   16   17 1
    33   16   33 1
    34   16   34 1
    35   17   18 1
    36   17   35 1
    37   17   36 1
    38   18   37 1
    39   18   38 1
@<TRIPOS>MOLECULE
ZINC01594973
   34    35     0     0     0
SMALL
USER_CHARGES
morpholino-morpholinocarbothioyldisulfanyl-methanethione
@<TRIPOS>ATOM
      1 C1          1.4231    1.9498   -0.0011 C.3       1 <0>         0.0554
      2 C2         -0.0173    1.4254    0.0099 C.3       1 <0>         0.0503
      3 O1          0.0021   -0.0041    0.0020 O.3       1 <0>        -0.3716
      4 C3          0.6216   -0.5873    1.1508 C.3       1 <0>         0.0493
      5 C4          2.0948   -0.1660    1.1983 C.3       1 <0>         0.0514
      6 N1          2.1618    1.3002    1.0934 N.pl3     1 <0>        -0.5002
      7 C5          2.8782    2.0268    1.9739 C.2       1 <0>         0.2710
      8 S1          3.7277    1.2450    3.2381 S.2       1 <0>        -0.5271
      9 S2          2.9388    3.7315    1.8282 S.3       1 <0>         0.1045
     10 S3          4.1552    4.1842    3.4278 S.3       1 <0>         0.1042
     11 C6          5.6914    3.9741    2.7020 C.2       1 <0>         0.2701
     12 S4          5.8051    3.5061    1.0591 S.2       1 <0>        -0.5254
     13 N2          6.8113    4.1771    3.4239 N.pl3     1 <0>        -0.5004
     14 C7          6.7388    4.5857    4.8357 C.3       1 <0>         0.0543
     15 C8          7.6362    3.6434    5.6539 C.3       1 <0>         0.0507
     16 O2          8.9402    3.6123    5.0687 O.3       1 <0>        -0.3724
     17 C9          8.9717    3.0940    3.7366 C.3       1 <0>         0.0494
     18 C10         8.1427    4.0027    2.8218 C.3       1 <0>         0.0520
     19 H1          1.8938    1.7101   -0.9546 H         1 <0>         0.1079
     20 H2          1.4218    3.0296    0.1471 H         1 <0>         0.1037
     21 H3         -0.5432    1.7872   -0.8736 H         1 <0>         0.1213
     22 H4         -0.5262    1.7777    0.9071 H         1 <0>         0.0647
     23 H5          0.1151   -0.2424    2.0522 H         1 <0>         0.0639
     24 H6          0.5554   -1.6735    1.0882 H         1 <0>         0.1205
     25 H7          2.5383   -0.4873    2.1408 H         1 <0>         0.1355
     26 H8          2.6332   -0.6192    0.3660 H         1 <0>         0.0991
     27 H9          7.0892    5.6127    4.9391 H         1 <0>         0.1058
     28 H10         5.7096    4.5114    5.1869 H         1 <0>         0.1053
     29 H11         7.2120    2.6394    5.6516 H         1 <0>         0.0682
     30 H12         7.7058    4.0078    6.6788 H         1 <0>         0.1201
     31 H13         8.5524    2.0880    3.7274 H         1 <0>         0.0650
     32 H14        10.0020    3.0631    3.3823 H         1 <0>         0.1198
     33 H15         8.0436    3.5421    1.8389 H         1 <0>         0.1351
     34 H16         8.6320    4.9720    2.7259 H         1 <0>         0.0985
@<TRIPOS>BOND
     1    1    6 1
     2    1    2 1
     3    1   19 1
     4    1   20 1
     5    2    3 1
     6    2   21 1
     7    2   22 1
     8    3    4 1
     9    4    5 1
    10    4   23 1
    11    4   24 1
    12    5    6 1
    13    5   25 1
    14    5   26 1
    15    6    7 1
    16    7    8 2
    17    7    9 1
    18    9   10 1
    19   10   11 1
    20   11   12 2
    21   11   13 1
    22   13   18 1
    23   13   14 1
    24   14   15 1
    25   14   27 1
    26   14   28 1
    27   15   16 1
    28   15   29 1
    29   15   30 1
    30   16   17 1
    31   17   18 1
    32   17   31 1
    33   17   32 1
    34   18   33 1
    35   18   34 1
@<TRIPOS>MOLECULE
ZINC00071274
   26    27     0     0     0
SMALL
USER_CHARGES
1-phenethylpyrrole-2,5-dione
@<TRIPOS>ATOM
      1 C1         -0.0167    1.3781    0.0096 C.ar      1 <0>        -0.1194
      2 C2          1.1709    2.0855    0.0021 C.ar      1 <0>        -0.1179
      3 C3          2.3773    1.4107   -0.0141 C.ar      1 <0>        -0.1128
      4 C4          2.3960    0.0285   -0.0217 C.ar      1 <0>        -0.0869
      5 C5          1.2084   -0.6789   -0.0136 C.ar      1 <0>        -0.1128
      6 C6          0.0021   -0.0041    0.0020 C.ar      1 <0>        -0.1179
      7 C7          3.7112   -0.7071   -0.0392 C.3       1 <0>        -0.0954
      8 C8          4.1416   -0.9479   -1.4876 C.3       1 <0>         0.1197
      9 N1          5.4200   -1.6630   -1.5046 N.am      1 <0>        -0.5902
     10 C9          6.6333   -1.0823   -1.5195 C.2       1 <0>         0.5393
     11 O1          6.8487    0.1124   -1.5214 O.2       1 <0>        -0.4527
     12 C10         7.6609   -2.1469   -1.5302 C.2       1 <0>        -0.1404
     13 C11         7.0051   -3.3192   -1.5302 C.2       1 <0>        -0.1405
     14 C12         5.5603   -3.0008   -1.5137 C.2       1 <0>         0.5393
     15 O2          4.6550   -3.8097   -1.5087 O.2       1 <0>        -0.4527
     16 H1         -0.9592    1.9054    0.0170 H         1 <0>         0.1229
     17 H2          1.1563    3.1654    0.0081 H         1 <0>         0.1238
     18 H3          3.3051    1.9634   -0.0207 H         1 <0>         0.1233
     19 H4          1.2231   -1.7587   -0.0199 H         1 <0>         0.1233
     20 H5         -0.9258   -0.5567    0.0079 H         1 <0>         0.1238
     21 H6          4.4679   -0.1107    0.4703 H         1 <0>         0.0797
     22 H7          3.5990   -1.6641    0.4703 H         1 <0>         0.0798
     23 H8          3.3848   -1.5443   -1.9971 H         1 <0>         0.0978
     24 H9          4.2537    0.0092   -1.9971 H         1 <0>         0.0980
     25 H10         8.7319   -2.0082   -1.5398 H         1 <0>         0.1845
     26 H11         7.4474   -4.3045   -1.5397 H         1 <0>         0.1845
@<TRIPOS>BOND
     1    1    6 ar
     2    1    2 ar
     3    1   16 1
     4    2    3 ar
     5    2   17 1
     6    3    4 ar
     7    3   18 1
     8    4    5 ar
     9    4    7 1
    10    5    6 ar
    11    5   19 1
    12    6   20 1
    13    7    8 1
    14    7   21 1
    15    7   22 1
    16    8    9 1
    17    8   23 1
    18    8   24 1
    19    9   14 am
    20    9   10 am
    21   10   11 2
    22   10   12 1
    23   12   13 2
    24   12   25 1
    25   13   14 1
    26   13   26 1
    27   14   15 2
@<TRIPOS>MOLECULE
ZINC03813524
   56    55     0     0     0
SMALL
USER_CHARGES

@<TRIPOS>ATOM
      1 C1          1.4699    3.0103    1.6795 C.3       1 <0>        -0.1543
      2 C2          1.1470    1.5224    1.8304 C.3       1 <0>        -0.1260
      3 C3          2.2011    0.8593    2.7193 C.3       1 <0>        -0.1214
      4 C4          1.8782   -0.6286    2.8702 C.3       1 <0>        -0.1145
      5 C5          2.9323   -1.2916    3.7591 C.3       1 <0>        -0.1026
      6 C6          2.6142   -2.7572    3.9077 C.2       1 <0>        -0.1576
      7 C7          3.5316   -3.6560    3.6493 C.2       1 <0>        -0.1540
      8 C8          4.9477   -3.2268    3.3638 C.3       1 <0>        -0.0836
      9 C9          5.8898   -3.9597    4.2837 C.2       1 <0>        -0.1502
     10 C10         6.9144   -4.6095    3.7897 C.2       1 <0>        -0.1530
     11 C11         7.2468   -4.4906    2.3247 C.3       1 <0>        -0.0838
     12 C12         8.6877   -4.0777    2.1683 C.2       1 <0>        -0.1500
     13 C13         9.4920   -4.7809    1.4103 C.2       1 <0>        -0.1531
     14 C14         8.9417   -5.8950    0.5577 C.3       1 <0>        -0.0844
     15 C15         9.3779   -5.6965   -0.8711 C.2       1 <0>        -0.1473
     16 C16         9.9891   -6.6633   -1.5096 C.2       1 <0>        -0.1612
     17 C17        10.1105   -8.0256   -0.8767 C.3       1 <0>        -0.1010
     18 C18         9.5949   -9.0878   -1.8497 C.3       1 <0>        -0.1078
     19 C19         9.7182  -10.4708   -1.2070 C.3       1 <0>        -0.1636
     20 C20         9.2103  -11.5171   -2.1654 C.2       1 <0>         0.3287
     21 O1          8.7928  -11.1903   -3.2504 O.2       1 <0>        -0.3730
     22 C21         9.2234  -12.9712   -1.7697 C.3       1 <0>         0.4166
     23 F1          8.7076  -13.7438   -2.8157 F         1 <0>        -0.1646
     24 F2         10.5372  -13.3692   -1.4999 F         1 <0>        -0.1663
     25 F3          8.4377  -13.1504   -0.6262 F         1 <0>        -0.1663
     26 H1          2.4534    3.1242    1.2236 H         1 <0>         0.0534
     27 H2          0.7189    3.4826    1.0462 H         1 <0>         0.0536
     28 H3          1.4674    3.4840    2.6612 H         1 <0>         0.0534
     29 H4          0.1635    1.4084    2.2863 H         1 <0>         0.0606
     30 H5          1.1495    1.0487    0.8487 H         1 <0>         0.0605
     31 H6          3.1846    0.9733    2.2634 H         1 <0>         0.0610
     32 H7          2.1986    1.3330    3.7010 H         1 <0>         0.0613
     33 H8          0.8947   -0.7425    3.3261 H         1 <0>         0.0617
     34 H9          1.8807   -1.1023    1.8885 H         1 <0>         0.0620
     35 H10         3.9158   -1.1777    3.3032 H         1 <0>         0.0755
     36 H11         2.9298   -0.8179    4.7408 H         1 <0>         0.0689
     37 H12         1.6300   -3.0664    4.2272 H         1 <0>         0.1090
     38 H13         3.2730   -4.7045    3.6409 H         1 <0>         0.1086
     39 H14         5.1962   -3.4599    2.3284 H         1 <0>         0.0827
     40 H15         5.0419   -2.1533    3.5273 H         1 <0>         0.0842
     41 H16         5.7203   -3.9492    5.3503 H         1 <0>         0.1099
     42 H17         7.5209   -5.2304    4.4324 H         1 <0>         0.1100
     43 H18         7.0897   -5.4528    1.8372 H         1 <0>         0.0832
     44 H19         6.6022   -3.7411    1.8655 H         1 <0>         0.0836
     45 H20         9.0572   -3.2020    2.6812 H         1 <0>         0.1101
     46 H21        10.5496   -4.5623    1.3965 H         1 <0>         0.1102
     47 H22         9.3168   -6.8511    0.9226 H         1 <0>         0.0838
     48 H23         7.8529   -5.8882    0.6094 H         1 <0>         0.0839
     49 H24         9.1867   -4.7572   -1.3685 H         1 <0>         0.1103
     50 H25        10.4060   -6.4842   -2.4897 H         1 <0>         0.1113
     51 H26        11.1560   -8.2251   -0.6416 H         1 <0>         0.0745
     52 H27         9.5202   -8.0546    0.0392 H         1 <0>         0.0801
     53 H28         8.5494   -8.8883   -2.0848 H         1 <0>         0.0750
     54 H29        10.1852   -9.0588   -2.7655 H         1 <0>         0.0748
     55 H30        10.7637  -10.6704   -0.9719 H         1 <0>         0.1190
     56 H31         9.1279  -10.4999   -0.2912 H         1 <0>         0.1184
@<TRIPOS>BOND
     1    1    2 1
     2    1   26 1
     3    1   27 1
     4    1   28 1
     5    2    3 1
     6    2   29 1
     7    2   30 1
     8    3    4 1
     9    3   31 1
    10    3   32 1
    11    4    5 1
    12    4   33 1
    13    4   34 1
    14    5    6 1
    15    5   35 1
    16    5   36 1
    17    6    7 2
    18    6   37 1
    19    7    8 1
    20    7   38 1
    21    8    9 1
    22    8   39 1
    23    8   40 1
    24    9   10 2
    25    9   41 1
    26   10   11 1
    27   10   42 1
    28   11   12 1
    29   11   43 1
    30   11   44 1
    31   12   13 2
    32   12   45 1
    33   13   14 1
    34   13   46 1
    35   14   15 1
    36   14   47 1
    37   14   48 1
    38   15   16 2
    39   15   49 1
    40   16   17 1
    41   16   50 1
    42   17   18 1
    43   17   51 1
    44   17   52 1
    45   18   19 1
    46   18   53 1
    47   18   54 1
    48   19   20 1
    49   19   55 1
    50   19   56 1
    51   20   21 2
    52   20   22 1
    53   22   23 1
    54   22   24 1
    55   22   25 1
@<TRIPOS>MOLECULE
ZINC00096688
   23    24     0     0     0
SMALL
USER_CHARGES

@<TRIPOS>ATOM
      1 C1         -0.0167    1.3781    0.0096 C.ar      1 <0>        -0.1082
      2 C2          1.1709    2.0855    0.0021 C.ar      1 <0>        -0.1233
      3 C3          2.3773    1.4107   -0.0130 C.ar      1 <0>        -0.0960
      4 C4          2.3960    0.0285   -0.0201 C.ar      1 <0>        -0.1246
      5 C5          1.2084   -0.6789   -0.0117 C.ar      1 <0>        -0.0961
      6 C6          0.0021   -0.0041    0.0020 C.ar      1 <0>        -0.1233
      7 C7          3.7112   -0.7071   -0.0376 C.3       1 <0>         0.1564
      8 N1          4.1518   -0.9524    1.3379 N.am      1 <0>        -0.5856
      9 C8          4.9169   -0.1203    2.0672 C.2       1 <0>         0.5405
     10 O1          5.3531    0.9506    1.6975 O.2       1 <0>        -0.4529
     11 C9          5.1361   -0.7316    3.3967 C.2       1 <0>        -0.1407
     12 C10         4.4862   -1.9072    3.3953 C.2       1 <0>        -0.1407
     13 C11         3.8485   -2.0415    2.0669 C.2       1 <0>         0.5405
     14 O2          3.1689   -2.9769    1.6968 O.2       1 <0>        -0.4530
     15 H1         -0.9591    1.9053    0.0259 H         1 <0>         0.1248
     16 H2          1.1563    3.1654    0.0076 H         1 <0>         0.1255
     17 H3          3.3051    1.9634   -0.0196 H         1 <0>         0.1266
     18 H4          1.2231   -1.7588   -0.0176 H         1 <0>         0.1265
     19 H5         -0.9258   -0.5567    0.0082 H         1 <0>         0.1255
     20 H6          3.5884   -1.6586   -0.5549 H         1 <0>         0.1047
     21 H7          4.4573   -0.1052   -0.5563 H         1 <0>         0.1047
     22 H8          5.7087   -0.3134    4.2113 H         1 <0>         0.1842
     23 H9          4.4354   -2.6159    4.2086 H         1 <0>         0.1842
@<TRIPOS>BOND
     1    1    6 ar
     2    1    2 ar
     3    1   15 1
     4    2    3 ar
     5    2   16 1
     6    3    4 ar
     7    3   17 1
     8    4    5 ar
     9    4    7 1
    10    5    6 ar
    11    5   18 1
    12    6   19 1
    13    7    8 1
    14    7   20 1
    15    7   21 1
    16    8   13 am
    17    8    9 am
    18    9   10 2
    19    9   11 1
    20   11   12 2
    21   11   22 1
    22   12   13 1
    23   12   23 1
    24   13   14 2
@<TRIPOS>MOLECULE
ZINC01046144
   41    44     0     0     0
SMALL
USER_CHARGES

@<TRIPOS>ATOM
      1 C1         -1.2176    1.7508    0.0173 C.ar      1 <0>        -0.0917
      2 C2         -0.0126    1.0758    0.0080 C.ar      1 <0>        -0.1351
      3 C3          1.1798    1.7870    0.0004 C.ar      1 <0>         0.1244
      4 C4          1.1569    3.1751    0.0081 C.ar      1 <0>        -0.1351
      5 C5         -0.0512    3.8444    0.0233 C.ar      1 <0>        -0.0917
      6 C6         -1.2371    3.1334    0.0308 C.ar      1 <0>        -0.0829
      7 C7         -2.5535    3.8668    0.0474 C.3       1 <0>        -0.0413
      8 C8         -3.0059    4.1189   -1.3679 C.ar      1 <0>        -0.0829
      9 C9         -2.6345    5.2838   -2.0138 C.ar      1 <0>        -0.0918
     10 C10        -3.0429    5.5151   -3.3128 C.ar      1 <0>        -0.1351
     11 C11        -3.8361    4.5816   -3.9662 C.ar      1 <0>         0.1244
     12 C12        -4.2120    3.4156   -3.3131 C.ar      1 <0>        -0.1351
     13 C13        -3.7962    3.1875   -2.0159 C.ar      1 <0>        -0.0917
     14 N1         -4.2569    4.8161   -5.2825 N.am      1 <0>        -0.5323
     15 C14        -5.0198    3.9830   -6.0129 C.2       1 <0>         0.5389
     16 O1         -5.4548    2.9113   -5.6438 O.2       1 <0>        -0.4401
     17 C15        -5.2407    4.5953   -7.3415 C.2       1 <0>        -0.1340
     18 C16        -4.5872    5.7693   -7.3413 C.2       1 <0>        -0.1340
     19 C17        -3.9547    5.9061   -6.0107 C.2       1 <0>         0.5389
     20 O2         -3.2785    6.8432   -5.6390 O.2       1 <0>        -0.4400
     21 N2          2.4042    1.1048   -0.0155 N.am      1 <0>        -0.5323
     22 C18         2.5467   -0.2328   -0.0187 C.2       1 <0>         0.5389
     23 O3          1.6428   -1.0431   -0.0084 O.2       1 <0>        -0.4401
     24 C19         3.9920   -0.5487   -0.0391 C.2       1 <0>        -0.1340
     25 C20         4.6459    0.6250   -0.0392 C.2       1 <0>        -0.1340
     26 C21         3.6165    1.6877   -0.0240 C.2       1 <0>         0.5389
     27 O4          3.8298    2.8828   -0.0204 O.2       1 <0>        -0.4401
     28 H1         -2.1455    1.1981    0.0187 H         1 <0>         0.1313
     29 H2          0.0021   -0.0041    0.0020 H         1 <0>         0.1525
     30 H3          2.0829    3.7310    0.0019 H         1 <0>         0.1525
     31 H4         -0.0696    4.9243    0.0297 H         1 <0>         0.1313
     32 H5         -3.2991    3.2633    0.5651 H         1 <0>         0.0870
     33 H6         -2.4328    4.8183    0.5652 H         1 <0>         0.0870
     34 H7         -2.0209    6.0114   -1.5036 H         1 <0>         0.1313
     35 H8         -2.7492    6.4232   -3.8182 H         1 <0>         0.1525
     36 H9         -4.8293    2.6878   -3.8188 H         1 <0>         0.1525
     37 H10        -4.0884    2.2806   -1.5073 H         1 <0>         0.1313
     38 H11        -5.8138    4.1775   -8.1560 H         1 <0>         0.1904
     39 H12        -4.5339    6.4768   -8.1555 H         1 <0>         0.1904
     40 H13         4.4359   -1.5332   -0.0483 H         1 <0>         0.1904
     41 H14         5.7166    0.7657   -0.0486 H         1 <0>         0.1904
@<TRIPOS>BOND
     1    1    6 ar
     2    1    2 ar
     3    1   28 1
     4    2    3 ar
     5    2   29 1
     6    3    4 ar
     7    3   21 1
     8    4    5 ar
     9    4   30 1
    10    5    6 ar
    11    5   31 1
    12    6    7 1
    13    7    8 1
    14    7   32 1
    15    7   33 1
    16    8   13 ar
    17    8    9 ar
    18    9   10 ar
    19    9   34 1
    20   10   11 ar
    21   10   35 1
    22   11   12 ar
    23   11   14 1
    24   12   13 ar
    25   12   36 1
    26   13   37 1
    27   14   19 am
    28   14   15 am
    29   15   16 2
    30   15   17 1
    31   17   18 2
    32   17   38 1
    33   18   19 1
    34   18   39 1
    35   19   20 2
    36   21   26 am
    37   21   22 am
    38   22   23 2
    39   22   24 1
    40   24   25 2
    41   24   40 1
    42   25   26 1
    43   25   41 1
    44   26   27 2
@<TRIPOS>MOLECULE
ZINC13813297
   40    42     0     0     0
SMALL
USER_CHARGES

@<TRIPOS>ATOM
      1 C1          0.1070    1.2655   -0.1922 C.3       1 <0>         0.0964
      2 N1         -0.1191   -0.1668    0.0166 N.am      1 <0>        -0.5974
      3 C2          1.0113   -1.0983   -0.0088 C.3       1 <0>         0.0695
      4 C3         -1.3672   -0.6276    0.2322 C.2       1 <0>         0.7241
      5 O1         -2.3157    0.1269    0.1504 O.2       1 <0>        -0.5212
      6 N2         -1.5629   -1.9254    0.5384 N.am      1 <0>        -0.3860
      7 C4         -2.7468   -2.5653    0.6926 C.2       1 <0>         0.3167
      8 N3         -2.4786   -3.8098    0.9844 N.2       1 <0>        -0.3193
      9 N4         -1.2098   -4.0030    1.0257 N.2       1 <0>        -0.0089
     10 N5         -0.5821   -2.9083    0.7605 N.2       1 <0>        -0.0667
     11 C5         -4.1177   -1.9550    0.5539 C.3       1 <0>        -0.0121
     12 C6         -4.5793   -2.0763   -0.8755 C.ar      1 <0>        -0.0964
     13 C7         -4.2874   -1.0726   -1.7814 C.ar      1 <0>        -0.1006
     14 C8         -4.7077   -1.1786   -3.0918 C.ar      1 <0>        -0.1142
     15 C9         -5.4273   -2.2992   -3.5014 C.ar      1 <0>        -0.0348
     16 C10        -5.7186   -3.3072   -2.5846 C.ar      1 <0>        -0.1126
     17 C11        -5.2885   -3.1936   -1.2781 C.ar      1 <0>        -0.0936
     18 C12        -5.8823   -2.4184   -4.9088 C.ar      1 <0>        -0.0502
     19 C13        -5.5865   -1.4129   -5.8269 C.ar      1 <0>        -0.1098
     20 C14        -6.0117   -1.5291   -7.1348 C.ar      1 <0>        -0.1178
     21 C15        -6.7307   -2.6411   -7.5347 C.ar      1 <0>        -0.1168
     22 C16        -7.0275   -3.6421   -6.6274 C.ar      1 <0>        -0.1174
     23 C17        -6.6019   -3.5391   -5.3185 C.ar      1 <0>        -0.1089
     24 H1          1.1704    1.4463   -0.3492 H         1 <0>         0.0901
     25 H2         -0.4511    1.5976   -1.0676 H         1 <0>         0.0728
     26 H3         -0.2299    1.8182    0.6848 H         1 <0>         0.0714
     27 H4          1.3529   -1.2830    1.0097 H         1 <0>         0.0716
     28 H5          0.6975   -2.0382   -0.4629 H         1 <0>         0.0873
     29 H6          1.8247   -0.6667   -0.5921 H         1 <0>         0.0840
     30 H7         -4.8161   -2.4783    1.2069 H         1 <0>         0.1221
     31 H8         -4.0769   -0.9025    0.8345 H         1 <0>         0.1262
     32 H9         -3.7299   -0.2043   -1.4627 H         1 <0>         0.1375
     33 H10        -4.4796   -0.3942   -3.7982 H         1 <0>         0.1269
     34 H11        -6.2764   -4.1778   -2.8968 H         1 <0>         0.1296
     35 H12        -5.5096   -3.9765   -0.5678 H         1 <0>         0.1327
     36 H13        -5.0258   -0.5439   -5.5155 H         1 <0>         0.1248
     37 H14        -5.7829   -0.7503   -7.8472 H         1 <0>         0.1251
     38 H15        -7.0618   -2.7279   -8.5590 H         1 <0>         0.1239
     39 H16        -7.5895   -4.5080   -6.9449 H         1 <0>         0.1256
     40 H17        -6.8304   -4.3233   -4.6120 H         1 <0>         0.1262
@<TRIPOS>BOND
     1    1    2 1
     2    1   24 1
     3    1   25 1
     4    1   26 1
     5    2    3 1
     6    2    4 am
     7    3   27 1
     8    3   28 1
     9    3   29 1
    10    4    5 2
    11    4    6 am
    12    6   10 1
    13    6    7 1
    14    7    8 2
    15    7   11 1
    16    8    9 1
    17    9   10 2
    18   11   12 1
    19   11   30 1
    20   11   31 1
    21   12   17 ar
    22   12   13 ar
    23   13   14 ar
    24   13   32 1
    25   14   15 ar
    26   14   33 1
    27   15   16 ar
    28   15   18 1
    29   16   17 ar
    30   16   34 1
    31   17   35 1
    32   18   23 ar
    33   18   19 ar
    34   19   20 ar
    35   19   36 1
    36   20   21 ar
    37   20   37 1
    38   21   22 ar
    39   21   38 1
    40   22   23 ar
    41   22   39 1
    42   23   40 1
@<TRIPOS>MOLECULE
ZINC27645447
   62    62     0     0     0
SMALL
USER_CHARGES
1-[(5Z,8Z,11Z,14Z)-icosa-5,8,11,14-tetraenyl]pyrrole-2,5-dione
@<TRIPOS>ATOM
      1 C1         16.7756   -7.7089   -3.5979 C.3       1 <0>        -0.1556
      2 C2         15.4043   -7.9716   -2.9723 C.3       1 <0>        -0.1265
      3 C3         14.3322   -7.9446   -4.0635 C.3       1 <0>        -0.1219
      4 C4         12.9609   -8.2074   -3.4379 C.3       1 <0>        -0.1149
      5 C5         11.8889   -8.1804   -4.5292 C.3       1 <0>        -0.1031
      6 C6         10.5382   -8.4392   -3.9130 C.2       1 <0>        -0.1600
      7 C7          9.5460   -7.6144   -4.1395 C.2       1 <0>        -0.1550
      8 C8          9.7054   -6.5015   -5.1431 C.3       1 <0>        -0.0842
      9 C9          8.5848   -6.5675   -6.1485 C.2       1 <0>        -0.1528
     10 C10         7.8496   -5.5083   -6.3804 C.2       1 <0>        -0.1541
     11 C11         8.2302   -4.1803   -5.7780 C.3       1 <0>        -0.0845
     12 C12         8.3113   -3.1402   -6.8655 C.2       1 <0>        -0.1530
     13 C13         7.6308   -2.0260   -6.7582 C.2       1 <0>        -0.1537
     14 C14         6.8988   -1.7103   -5.4793 C.3       1 <0>        -0.0849
     15 C15         7.2934   -0.3369   -5.0006 C.2       1 <0>        -0.1520
     16 C16         6.3711    0.5574   -4.7442 C.2       1 <0>        -0.1614
     17 C17         4.9157    0.1672   -4.7684 C.3       1 <0>        -0.1014
     18 C18         4.2506    0.5968   -3.4592 C.3       1 <0>        -0.1102
     19 C19         2.7730    0.2006   -3.4838 C.3       1 <0>        -0.1379
     20 C20         2.1080    0.6302   -2.1746 C.3       1 <0>         0.1116
     21 N1          0.6931    0.2509   -2.1982 N.am      1 <0>        -0.5877
     22 C21        -0.3088    1.0212   -2.6589 C.2       1 <0>         0.5461
     23 O1         -0.1913    2.1379   -3.1206 O.2       1 <0>        -0.4536
     24 C22        -1.5783    0.2762   -2.5083 C.2       1 <0>        -0.1549
     25 C23        -1.2691   -0.9108   -1.9611 C.2       1 <0>        -0.1550
     26 C24         0.1972   -0.9215   -1.7633 C.2       1 <0>         0.5461
     27 O2          0.8431   -1.8336   -1.2893 O.2       1 <0>        -0.4534
     28 H1         17.5463   -7.7283   -2.8133 H         1 <0>         0.0539
     29 H2         16.7734   -6.7228   -4.0854 H         1 <0>         0.0537
     30 H3         16.9929   -8.4867   -4.3448 H         1 <0>         0.0538
     31 H4         15.4065   -8.9577   -2.4848 H         1 <0>         0.0609
     32 H5         15.1869   -7.1938   -2.2254 H         1 <0>         0.0608
     33 H6         14.3299   -6.9585   -4.5509 H         1 <0>         0.0612
     34 H7         14.5496   -8.7223   -4.8104 H         1 <0>         0.0616
     35 H8         12.9632   -9.1935   -2.9504 H         1 <0>         0.0619
     36 H9         12.7435   -7.4297   -2.6910 H         1 <0>         0.0622
     37 H10        11.8867   -7.1943   -5.0167 H         1 <0>         0.0763
     38 H11        12.1063   -8.9581   -5.2761 H         1 <0>         0.0689
     39 H12        10.3855   -9.3207   -3.2730 H         1 <0>         0.1105
     40 H13         8.5965   -7.7341   -3.5972 H         1 <0>         0.1102
     41 H14         9.6754   -5.5323   -4.6237 H         1 <0>         0.0833
     42 H15        10.6697   -6.6102   -5.6611 H         1 <0>         0.0845
     43 H16         8.3842   -7.5051   -6.6877 H         1 <0>         0.1114
     44 H17         6.9545   -5.5882   -7.0148 H         1 <0>         0.1114
     45 H18         7.4709   -3.8812   -5.0404 H         1 <0>         0.0839
     46 H19         9.2080   -4.2693   -5.2821 H         1 <0>         0.0841
     47 H20         8.9419   -3.3166   -7.7494 H         1 <0>         0.1116
     48 H21         7.5937   -1.3208   -7.6016 H         1 <0>         0.1114
     49 H22         5.8143   -1.7377   -5.6612 H         1 <0>         0.0841
     50 H23         7.1610   -2.4550   -4.7133 H         1 <0>         0.0841
     51 H24         8.3558   -0.0853   -4.8665 H         1 <0>         0.1111
     52 H25         6.6590    1.5932   -4.5112 H         1 <0>         0.1120
     53 H26         4.4168    0.6643   -5.6134 H         1 <0>         0.0706
     54 H27         4.8303   -0.9235   -4.8823 H         1 <0>         0.0776
     55 H28         4.7495    0.0998   -2.6142 H         1 <0>         0.0686
     56 H29         4.3359    1.6876   -3.3453 H         1 <0>         0.0684
     57 H30         2.2741    0.6977   -4.3288 H         1 <0>         0.0706
     58 H31         2.6877   -0.8901   -3.5978 H         1 <0>         0.0702
     59 H32         2.6069    0.1331   -1.3296 H         1 <0>         0.0977
     60 H33         2.1934    1.7209   -2.0606 H         1 <0>         0.0977
     61 H34        -2.6248    0.5153   -2.7482 H         1 <0>         0.1889
     62 H35        -2.0624   -1.6438   -1.7529 H         1 <0>         0.1889
@<TRIPOS>BOND
     1    1    2 1
     2    1   28 1
     3    1   29 1
     4    1   30 1
     5    2    3 1
     6    2   31 1
     7    2   32 1
     8    3    4 1
     9    3   33 1
    10    3   34 1
    11    4    5 1
    12    4   35 1
    13    4   36 1
    14    5    6 1
    15    5   37 1
    16    5   38 1
    17    6    7 2
    18    6   39 1
    19    7    8 1
    20    7   40 1
    21    8    9 1
    22    8   41 1
    23    8   42 1
    24    9   10 2
    25    9   43 1
    26   10   11 1
    27   10   44 1
    28   11   12 1
    29   11   45 1
    30   11   46 1
    31   12   13 2
    32   12   47 1
    33   13   14 1
    34   13   48 1
    35   14   15 1
    36   14   49 1
    37   14   50 1
    38   15   16 2
    39   15   51 1
    40   16   17 1
    41   16   52 1
    42   17   18 1
    43   17   53 1
    44   17   54 1
    45   18   19 1
    46   18   55 1
    47   18   56 1
    48   19   20 1
    49   19   57 1
    50   19   58 1
    51   20   21 1
    52   20   59 1
    53   20   60 1
    54   21   26 am
    55   21   22 am
    56   22   23 2
    57   22   24 1
    58   24   25 2
    59   24   61 1
    60   25   26 1
    61   25   62 1
    62   26   27 2
@<TRIPOS>MOLECULE
ZINC00096687
   20    21     0     0     0
SMALL
USER_CHARGES
1-(2-chlorophenyl)pyrrole-2,5-dione
@<TRIPOS>ATOM
      1 C1          2.3796    1.4158   -0.0132 C.ar      1 <0>        -0.1043
      2 C2          1.1705    2.0868    0.0021 C.ar      1 <0>        -0.0897
      3 C3         -0.0167    1.3782    0.0096 C.ar      1 <0>        -0.1023
      4 C4          0.0021   -0.0041    0.0020 C.ar      1 <0>        -0.0204
      5 C5          1.2154   -0.6803   -0.0132 C.ar      1 <0>         0.1264
      6 C6          2.4051    0.0348   -0.0208 C.ar      1 <0>        -0.0866
      7 N1          1.2383   -2.0823   -0.0215 N.am      1 <0>        -0.5478
      8 C7          1.2348   -2.8515   -1.1250 C.2       1 <0>         0.5411
      9 O1          1.2114   -2.4498   -2.2704 O.2       1 <0>        -0.4409
     10 C8          1.2678   -4.2702   -0.7060 C.2       1 <0>        -0.1340
     11 C9          1.2804   -4.2778    0.6374 C.2       1 <0>        -0.1340
     12 C10         1.2613   -2.8639    1.0731 C.2       1 <0>         0.5411
     13 O2          1.2656   -2.4752    2.2232 O.2       1 <0>        -0.4409
     14 Cl1        -1.4887   -0.8936    0.0110 Cl        1 <0>        -0.0531
     15 H1          3.3051    1.9723   -0.0194 H         1 <0>         0.1418
     16 H2          1.1535    3.1666    0.0077 H         1 <0>         0.1428
     17 H3         -0.9594    1.9050    0.0170 H         1 <0>         0.1450
     18 H4          3.3500   -0.4882   -0.0323 H         1 <0>         0.1378
     19 H5          1.2759   -5.1333   -1.3551 H         1 <0>         0.1889
     20 H6          1.3006   -5.1484    1.2763 H         1 <0>         0.1889
@<TRIPOS>BOND
     1    1    6 ar
     2    1    2 ar
     3    1   15 1
     4    2    3 ar
     5    2   16 1
     6    3    4 ar
     7    3   17 1
     8    4    5 ar
     9    4   14 1
    10    5    6 ar
    11    5    7 1
    12    6   18 1
    13    7   12 am
    14    7    8 am
    15    8    9 2
    16    8   10 1
    17   10   11 2
    18   10   19 1
    19   11   12 1
    20   11   20 1
    21   12   13 2
@<TRIPOS>MOLECULE
ZINC00096640
   20    21     0     0     0
SMALL
USER_CHARGES
1-(4-chlorophenyl)pyrrole-2,5-dione
@<TRIPOS>ATOM
      1 C1         -0.0126    1.0758    0.0080 C.ar      1 <0>        -0.1268
      2 C2         -1.2176    1.7506    0.0173 C.ar      1 <0>        -0.0873
      3 C3         -1.2370    3.1343    0.0297 C.ar      1 <0>        -0.0429
      4 C4         -0.0498    3.8451    0.0222 C.ar      1 <0>        -0.0873
      5 C5          1.1577    3.1748    0.0076 C.ar      1 <0>        -0.1268
      6 C6          1.1798    1.7868    0.0004 C.ar      1 <0>         0.1334
      7 N1          2.4044    1.1040   -0.0149 N.am      1 <0>        -0.5339
      8 C7          2.5464   -0.2337   -0.0176 C.2       1 <0>         0.5398
      9 O1          1.6423   -1.0437   -0.0072 O.2       1 <0>        -0.4382
     10 C8          3.9916   -0.5501   -0.0381 C.2       1 <0>        -0.1323
     11 C9          4.6459    0.6234   -0.0384 C.2       1 <0>        -0.1322
     12 C10         3.6169    1.6864   -0.0234 C.2       1 <0>         0.5397
     13 O2          3.8306    2.8815   -0.0198 O.2       1 <0>        -0.4383
     14 Cl1        -2.7532    3.9796    0.0482 Cl        1 <0>        -0.0617
     15 H1          0.0021   -0.0041    0.0020 H         1 <0>         0.1617
     16 H2         -2.1455    1.1980    0.0187 H         1 <0>         0.1440
     17 H3         -0.0674    4.9250    0.0275 H         1 <0>         0.1440
     18 H4          2.0840    3.7301    0.0013 H         1 <0>         0.1617
     19 H5          4.4352   -1.5348   -0.0478 H         1 <0>         0.1917
     20 H6          5.7167    0.7637   -0.0472 H         1 <0>         0.1917
@<TRIPOS>BOND
     1    1    6 ar
     2    1    2 ar
     3    1   15 1
     4    2    3 ar
     5    2   16 1
     6    3    4 ar
     7    3   14 1
     8    4    5 ar
     9    4   17 1
    10    5    6 ar
    11    5   18 1
    12    6    7 1
    13    7   12 am
    14    7    8 am
    15    8    9 2
    16    8   10 1
    17   10   11 2
    18   10   19 1
    19   11   12 1
    20   11   20 1
    21   12   13 2
@<TRIPOS>MOLECULE
ZINC00859266
   20    21     0     0     0
SMALL
USER_CHARGES
1-(3-iodophenyl)pyrrole-2,5-dione
@<TRIPOS>ATOM
      1 C1         -0.0511    3.8449    0.0222 C.ar      1 <0>        -0.0915
      2 C2          1.1570    3.1750    0.0076 C.ar      1 <0>        -0.1213
      3 C3          1.1798    1.7871    0.0004 C.ar      1 <0>         0.1333
      4 C4         -0.0126    1.0758    0.0080 C.ar      1 <0>        -0.1079
      5 C5         -1.2179    1.7510    0.0173 C.ar      1 <0>        -0.0830
      6 C6         -1.2370    3.1345    0.0293 C.ar      1 <0>        -0.0915
      7 I1         -3.0180    0.6793    0.0207 I         1 <0>        -0.0256
      8 N1          2.4042    1.1049   -0.0140 N.am      1 <0>        -0.5337
      9 C7          2.5467   -0.2327   -0.0157 C.2       1 <0>         0.5379
     10 O1          1.6428   -1.0430   -0.0054 O.2       1 <0>        -0.4367
     11 C8          3.9920   -0.5487   -0.0349 C.2       1 <0>        -0.1314
     12 C9          4.6459    0.6251   -0.0359 C.2       1 <0>        -0.1326
     13 C10         3.6165    1.6878   -0.0224 C.2       1 <0>         0.5407
     14 O2          3.8298    2.8829   -0.0190 O.2       1 <0>        -0.4387
     15 H1         -0.0691    4.9247    0.0278 H         1 <0>         0.1426
     16 H2          2.0831    3.7308    0.0021 H         1 <0>         0.1590
     17 H3          0.0021   -0.0041    0.0020 H         1 <0>         0.1605
     18 H4         -2.1803    3.6604    0.0404 H         1 <0>         0.1362
     19 H5          4.4360   -1.5332   -0.0429 H         1 <0>         0.1919
     20 H6          5.7167    0.7658   -0.0445 H         1 <0>         0.1919
@<TRIPOS>BOND
     1    1    6 ar
     2    1    2 ar
     3    1   15 1
     4    2    3 ar
     5    2   16 1
     6    3    4 ar
     7    3    8 1
     8    4    5 ar
     9    4   17 1
    10    5    6 ar
    11    5    7 1
    12    6   18 1
    13    8   13 am
    14    8    9 am
    15    9   10 2
    16    9   11 1
    17   11   12 2
    18   11   19 1
    19   12   13 1
    20   12   20 1
    21   13   14 2
@<TRIPOS>MOLECULE
ZINC00053012
   24    25     0     0     0
SMALL
USER_CHARGES
1-(2-methoxyphenyl)pyrrole-2,5-dione
@<TRIPOS>ATOM
      1 C1          4.7647    1.3268   -0.0359 C.3       1 <0>         0.0254
      2 O1          3.5594    2.0942   -0.0202 O.3       1 <0>        -0.3134
      3 C2          2.3880    1.4037   -0.0132 C.ar      1 <0>         0.1481
      4 C3          2.3986    0.0181   -0.0212 C.ar      1 <0>        -0.2016
      5 C4          1.2069   -0.6824   -0.0136 C.ar      1 <0>        -0.0615
      6 C5          0.0021   -0.0041    0.0020 C.ar      1 <0>        -0.1469
      7 C6         -0.0167    1.3778    0.0096 C.ar      1 <0>        -0.0598
      8 C7          1.1749    2.0873    0.0020 C.ar      1 <0>         0.0828
      9 N1          1.1582    3.4909    0.0093 N.am      1 <0>        -0.5360
     10 C8          1.1446    4.2719   -1.0859 C.2       1 <0>         0.5419
     11 O2          1.1447    3.8824   -2.2357 O.2       1 <0>        -0.4468
     12 C9          1.1268    5.6862   -0.6511 C.2       1 <0>        -0.1357
     13 C10         1.1390    5.6794    0.6923 C.2       1 <0>        -0.1356
     14 C11         1.1593    4.2607    1.1124 C.2       1 <0>         0.5419
     15 O3          1.1747    3.8597    2.2581 O.2       1 <0>        -0.4468
     16 H1          5.6231    1.9986   -0.0401 H         1 <0>         0.1042
     17 H2          4.8036    0.6931    0.8502 H         1 <0>         0.0600
     18 H3          4.7869    0.7033   -0.9297 H         1 <0>         0.0601
     19 H4          3.3380   -0.5146   -0.0330 H         1 <0>         0.1389
     20 H5          1.2169   -1.7624   -0.0195 H         1 <0>         0.1353
     21 H6         -0.9266   -0.5554    0.0079 H         1 <0>         0.1366
     22 H7         -0.9591    1.9052    0.0170 H         1 <0>         0.1350
     23 H8          1.1114    6.5563   -1.2907 H         1 <0>         0.1868
     24 H9          1.1354    6.5430    1.3407 H         1 <0>         0.1868
@<TRIPOS>BOND
     1    1    2 1
     2    1   16 1
     3    1   17 1
     4    1   18 1
     5    2    3 1
     6    3    8 ar
     7    3    4 ar
     8    4    5 ar
     9    4   19 1
    10    5    6 ar
    11    5   20 1
    12    6    7 ar
    13    6   21 1
    14    7    8 ar
    15    7   22 1
    16    8    9 1
    17    9   14 am
    18    9   10 am
    19   10   11 2
    20   10   12 1
    21   12   13 2
    22   12   23 1
    23   13   14 1
    24   13   24 1
    25   14   15 2
@<TRIPOS>MOLECULE
ZINC00097282
   24    25     0     0     0
SMALL
USER_CHARGES
1-(3-methoxyphenyl)pyrrole-2,5-dione
@<TRIPOS>ATOM
      1 C1          4.7753    0.1737   -0.0432 C.3       1 <0>         0.0259
      2 O1          3.5906   -0.6254   -0.0362 O.3       1 <0>        -0.3126
      3 C2          2.4021    0.0335   -0.0208 C.ar      1 <0>         0.1496
      4 C3          2.3775    1.4213   -0.0131 C.ar      1 <0>        -0.2148
      5 C4          1.1698    2.0923    0.0021 C.ar      1 <0>        -0.0568
      6 C5         -0.0168    1.3843    0.0097 C.ar      1 <0>        -0.1767
      7 C6          0.0021   -0.0041    0.0020 C.ar      1 <0>         0.1684
      8 C7          1.2139   -0.6798   -0.0132 C.ar      1 <0>        -0.1757
      9 N1         -1.2016   -0.7221    0.0092 N.am      1 <0>        -0.5328
     10 C8         -1.3046   -2.0633   -0.0029 C.2       1 <0>         0.5375
     11 O2         -0.3772   -2.8465   -0.0214 O.2       1 <0>        -0.4355
     12 C9         -2.7400   -2.4220    0.0134 C.2       1 <0>        -0.1320
     13 C10        -3.4282   -1.2682    0.0263 C.2       1 <0>        -0.1335
     14 C11        -2.4306   -0.1755    0.0235 C.2       1 <0>         0.5406
     15 O3         -2.6791    1.0128    0.0322 O.2       1 <0>        -0.4383
     16 H1          4.7806    0.8079   -0.9297 H         1 <0>         0.0578
     17 H2          4.7980    0.7977    0.8502 H         1 <0>         0.0578
     18 H3          5.6511   -0.4752   -0.0555 H         1 <0>         0.1034
     19 H4          3.3034    1.9772   -0.0190 H         1 <0>         0.1340
     20 H5          1.1532    3.1721    0.0081 H         1 <0>         0.1361
     21 H6         -0.9595    1.9111    0.0170 H         1 <0>         0.1545
     22 H7          1.2311   -1.7597   -0.0188 H         1 <0>         0.1608
     23 H8         -3.1546   -3.4192    0.0115 H         1 <0>         0.1910
     24 H9         -4.5027   -1.1592    0.0363 H         1 <0>         0.1911
@<TRIPOS>BOND
     1    1    2 1
     2    1   16 1
     3    1   17 1
     4    1   18 1
     5    2    3 1
     6    3    8 ar
     7    3    4 ar
     8    4    5 ar
     9    4   19 1
    10    5    6 ar
    11    5   20 1
    12    6    7 ar
    13    6   21 1
    14    7    8 ar
    15    7    9 1
    16    8   22 1
    17    9   14 am
    18    9   10 am
    19   10   11 2
    20   10   12 1
    21   12   13 2
    22   12   23 1
    23   13   14 1
    24   13   24 1
    25   14   15 2
@<TRIPOS>MOLECULE
ZINC00097319
   20    21     0     0     0
SMALL
USER_CHARGES
1-(4-bromophenyl)pyrrole-2,5-dione
@<TRIPOS>ATOM
      1 C1         -0.0126    1.0758    0.0080 C.ar      1 <0>        -0.1338
      2 C2         -1.2176    1.7507    0.0173 C.ar      1 <0>        -0.0674
      3 C3         -1.2370    3.1341    0.0297 C.ar      1 <0>        -0.1001
      4 C4         -0.0501    3.8450    0.0222 C.ar      1 <0>        -0.0674
      5 C5          1.1575    3.1749    0.0076 C.ar      1 <0>        -0.1338
      6 C6          1.1798    1.7868    0.0004 C.ar      1 <0>         0.1451
      7 N1          2.4043    1.1042   -0.0149 N.am      1 <0>        -0.5348
      8 C7          2.5465   -0.2334   -0.0176 C.2       1 <0>         0.5397
      9 O1          1.6424   -1.0436   -0.0066 O.2       1 <0>        -0.4375
     10 C8          3.9917   -0.5498   -0.0390 C.2       1 <0>        -0.1320
     11 C9          4.6459    0.6238   -0.0389 C.2       1 <0>        -0.1320
     12 C10         3.6168    1.6867   -0.0234 C.2       1 <0>         0.5397
     13 O2          3.8304    2.8818   -0.0196 O.2       1 <0>        -0.4375
     14 Br1        -2.8886    4.0547    0.0492 Br        1 <0>        -0.0417
     15 H1          0.0021   -0.0041    0.0020 H         1 <0>         0.1615
     16 H2         -2.1455    1.1980    0.0191 H         1 <0>         0.1433
     17 H3         -0.0679    4.9248    0.0275 H         1 <0>         0.1433
     18 H4          2.0838    3.7303    0.0014 H         1 <0>         0.1615
     19 H5          4.4354   -1.5344   -0.0490 H         1 <0>         0.1919
     20 H6          5.7167    0.7642   -0.0478 H         1 <0>         0.1919
@<TRIPOS>BOND
     1    1    6 ar
     2    1    2 ar
     3    1   15 1
     4    2    3 ar
     5    2   16 1
     6    3    4 ar
     7    3   14 1
     8    4    5 ar
     9    4   17 1
    10    5    6 ar
    11    5   18 1
    12    6    7 1
    13    7   12 am
    14    7    8 am
    15    8    9 2
    16    8   10 1
    17   10   11 2
    18   10   19 1
    19   11   12 1
    20   11   20 1
    21   12   13 2
@<TRIPOS>MOLECULE
ZINC00179533
   20    21     0     0     0
SMALL
USER_CHARGES
1-(2-iodophenyl)pyrrole-2,5-dione
@<TRIPOS>ATOM
      1 C1          2.3796    1.4155   -0.0130 C.ar      1 <0>        -0.0903
      2 C2          1.1704    2.0864    0.0021 C.ar      1 <0>        -0.0985
      3 C3         -0.0167    1.3777    0.0096 C.ar      1 <0>        -0.0779
      4 C4          0.0021   -0.0041    0.0020 C.ar      1 <0>        -0.0885
      5 C5          1.2148   -0.6803   -0.0132 C.ar      1 <0>         0.1509
      6 C6          2.4049    0.0346   -0.0207 C.ar      1 <0>        -0.0945
      7 N1          1.2374   -2.0820   -0.0214 N.am      1 <0>        -0.5527
      8 C7          1.2338   -2.8511   -1.1249 C.2       1 <0>         0.5403
      9 O1          1.2106   -2.4494   -2.2703 O.2       1 <0>        -0.4380
     10 C8          1.2664   -4.2698   -0.7060 C.2       1 <0>        -0.1339
     11 C9          1.2790   -4.2775    0.6375 C.2       1 <0>        -0.1339
     12 C10         1.2601   -2.8636    1.0732 C.2       1 <0>         0.5403
     13 O2          1.2645   -2.4749    2.2233 O.2       1 <0>        -0.4381
     14 I1         -1.7971   -1.0774    0.0127 I         1 <0>        -0.0242
     15 H1          3.3052    1.9720   -0.0188 H         1 <0>         0.1417
     16 H2          1.1533    3.1663    0.0080 H         1 <0>         0.1415
     17 H3         -0.9595    1.9045    0.0169 H         1 <0>         0.1403
     18 H4          3.3497   -0.4886   -0.0321 H         1 <0>         0.1366
     19 H5          1.2744   -5.1330   -1.3550 H         1 <0>         0.1894
     20 H6          1.2986   -5.1480    1.2764 H         1 <0>         0.1894
@<TRIPOS>BOND
     1    1    6 ar
     2    1    2 ar
     3    1   15 1
     4    2    3 ar
     5    2   16 1
     6    3    4 ar
     7    3   17 1
     8    4    5 ar
     9    4   14 1
    10    5    6 ar
    11    5    7 1
    12    6   18 1
    13    7   12 am
    14    7    8 am
    15    8    9 2
    16    8   10 1
    17   10   11 2
    18   10   19 1
    19   11   12 1
    20   11   20 1
    21   12   13 2
@<TRIPOS>MOLECULE
ZINC00207239
   23    24     0     0     0
SMALL
USER_CHARGES
1-(m-tolyl)pyrrole-2,5-dione
@<TRIPOS>ATOM
      1 C1          3.7166   -0.7001   -0.0372 C.3       1 <0>        -0.1159
      2 C2          2.3994    0.0317   -0.0207 C.ar      1 <0>        -0.0650
      3 C3          2.3774    1.4145   -0.0135 C.ar      1 <0>        -0.1268
      4 C4          1.1709    2.0894    0.0021 C.ar      1 <0>        -0.0939
      5 C5         -0.0167    1.3839    0.0097 C.ar      1 <0>        -0.1456
      6 C6          0.0021   -0.0041    0.0020 C.ar      1 <0>         0.1306
      7 C7          1.2154   -0.6791   -0.0132 C.ar      1 <0>        -0.1412
      8 N1         -1.2013   -0.7227    0.0092 N.am      1 <0>        -0.5327
      9 C8         -1.3037   -2.0640   -0.0030 C.2       1 <0>         0.5388
     10 O1         -0.3759   -2.8467   -0.0214 O.2       1 <0>        -0.4401
     11 C9         -2.7388   -2.4234    0.0133 C.2       1 <0>        -0.1339
     12 C10        -3.4276   -1.2699    0.0261 C.2       1 <0>        -0.1336
     13 C11        -2.4306   -0.1767    0.0234 C.2       1 <0>         0.5390
     14 O2         -2.6797    1.0115    0.0321 O.2       1 <0>        -0.4399
     15 H1          4.0244   -0.8711   -1.0688 H         1 <0>         0.0744
     16 H2          4.4714   -0.1014    0.4727 H         1 <0>         0.0705
     17 H3          3.6069   -1.6573    0.4726 H         1 <0>         0.0694
     18 H4          3.3046    1.9683   -0.0201 H         1 <0>         0.1281
     19 H5          1.1569    3.1693    0.0080 H         1 <0>         0.1326
     20 H6         -0.9590    1.9117    0.0170 H         1 <0>         0.1518
     21 H7          1.2331   -1.7589   -0.0195 H         1 <0>         0.1523
     22 H8         -3.1530   -3.4208    0.0119 H         1 <0>         0.1905
     23 H9         -4.5021   -1.1615    0.0359 H         1 <0>         0.1906
@<TRIPOS>BOND
     1    1    2 1
     2    1   15 1
     3    1   16 1
     4    1   17 1
     5    2    7 ar
     6    2    3 ar
     7    3    4 ar
     8    3   18 1
     9    4    5 ar
    10    4   19 1
    11    5    6 ar
    12    5   20 1
    13    6    7 ar
    14    6    8 1
    15    7   21 1
    16    8   13 am
    17    8    9 am
    18    9   10 2
    19    9   11 1
    20   11   12 2
    21   11   22 1
    22   12   13 1
    23   12   23 1
    24   13   14 2
@<TRIPOS>MOLECULE
ZINC01724701
   36    37     0     0     0
SMALL
USER_CHARGES

@<TRIPOS>ATOM
      1 C1         -0.0180    1.4754    0.0102 C.2       1 <0>        -0.1409
      2 C2          1.2625    1.8810    0.0001 C.2       1 <0>        -0.1409
      3 C3          2.0977    0.6597   -0.0144 C.2       1 <0>         0.5393
      4 O1          3.3113    0.6294   -0.0258 O.2       1 <0>        -0.4533
      5 N1          1.2840   -0.4115   -0.0124 N.am      1 <0>        -0.5900
      6 C4          0.0021   -0.0041    0.0020 C.2       1 <0>         0.5393
      7 O2         -0.9729   -0.7274    0.0078 O.2       1 <0>        -0.4533
      8 C5          1.7262   -1.8081   -0.0237 C.3       1 <0>         0.1127
      9 C6          1.8935   -2.3018    1.4148 C.3       1 <0>        -0.1366
     10 C7          2.3554   -3.7603    1.4030 C.3       1 <0>        -0.1150
     11 C8          2.5227   -4.2540    2.8415 C.3       1 <0>        -0.1149
     12 C9          2.9846   -5.7125    2.8297 C.3       1 <0>        -0.1367
     13 C10         3.1519   -6.2061    4.2682 C.3       1 <0>         0.1128
     14 N2          3.5941   -7.6028    4.2569 N.am      1 <0>        -0.5901
     15 C11         2.7804   -8.6739    4.2531 C.2       1 <0>         0.5393
     16 O3          1.5668   -8.6437    4.2580 O.2       1 <0>        -0.4533
     17 C12         3.6156   -9.8952    4.2414 C.2       1 <0>        -0.1410
     18 C13         4.8961   -9.4897    4.2387 C.2       1 <0>        -0.1410
     19 C14         4.8761   -8.0102    4.2430 C.2       1 <0>         0.5393
     20 O4          5.8510   -7.2869    4.2373 O.2       1 <0>        -0.4533
     21 H1         -0.8936    2.1075    0.0259 H         1 <0>         0.1842
     22 H2          1.6147    2.9019    0.0019 H         1 <0>         0.1842
     23 H3          0.9827   -2.4206   -0.5338 H         1 <0>         0.0960
     24 H4          2.6796   -1.8832   -0.5468 H         1 <0>         0.0960
     25 H5          2.6370   -1.6893    1.9249 H         1 <0>         0.0706
     26 H6          0.9402   -2.2268    1.9379 H         1 <0>         0.0706
     27 H7          1.6119   -4.3728    0.8929 H         1 <0>         0.0685
     28 H8          3.3088   -3.8354    0.8799 H         1 <0>         0.0685
     29 H9          3.2662   -3.6415    3.3516 H         1 <0>         0.0685
     30 H10         1.5694   -4.1789    3.3646 H         1 <0>         0.0686
     31 H11         2.2411   -6.3250    2.3196 H         1 <0>         0.0706
     32 H12         3.9379   -5.7875    2.3066 H         1 <0>         0.0706
     33 H13         3.8954   -5.5937    4.7783 H         1 <0>         0.0961
     34 H14         2.1986   -6.1311    4.7913 H         1 <0>         0.0960
     35 H15         3.2634  -10.9162    4.2363 H         1 <0>         0.1842
     36 H16         5.7718  -10.1219    4.2308 H         1 <0>         0.1842
@<TRIPOS>BOND
     1    1    6 1
     2    1    2 2
     3    1   21 1
     4    2    3 1
     5    2   22 1
     6    3    4 2
     7    3    5 am
     8    5    6 am
     9    5    8 1
    10    6    7 2
    11    8    9 1
    12    8   23 1
    13    8   24 1
    14    9   10 1
    15    9   25 1
    16    9   26 1
    17   10   11 1
    18   10   27 1
    19   10   28 1
    20   11   12 1
    21   11   29 1
    22   11   30 1
    23   12   13 1
    24   12   31 1
    25   12   32 1
    26   13   14 1
    27   13   33 1
    28   13   34 1
    29   14   19 am
    30   14   15 am
    31   15   16 2
    32   15   17 1
    33   17   18 2
    34   17   35 1
    35   18   19 1
    36   18   36 1
    37   19   20 2
@<TRIPOS>MOLECULE
ZINC05604543
   30    32     0     0     0
SMALL
USER_CHARGES
1-(2-phenylphenyl)pyrrole-2,5-dione
@<TRIPOS>ATOM
      1 C1         -3.7216    3.4806    0.0384 C.ar      1 <0>        -0.1126
      2 C2         -2.7388    3.8092    0.9547 C.ar      1 <0>        -0.1165
      3 C3         -1.5343    3.1356    0.9499 C.ar      1 <0>        -0.0994
      4 C4         -1.3093    2.1222    0.0198 C.ar      1 <0>        -0.0563
      5 C5         -2.3012    1.7990   -0.9044 C.ar      1 <0>        -0.1202
      6 C6         -3.5038    2.4758   -0.8869 C.ar      1 <0>        -0.1166
      7 C7         -0.0169    1.3947    0.0097 C.ar      1 <0>        -0.0262
      8 C8          1.1836    2.1010    0.0020 C.ar      1 <0>        -0.0991
      9 C9          2.3837    1.4196   -0.0131 C.ar      1 <0>        -0.0996
     10 C10         2.3998    0.0357   -0.0207 C.ar      1 <0>        -0.1077
     11 C11         1.2155   -0.6756   -0.0132 C.ar      1 <0>        -0.0960
     12 C12         0.0021   -0.0041    0.0020 C.ar      1 <0>         0.1263
     13 N1         -1.1990   -0.7232    0.0101 N.am      1 <0>        -0.5424
     14 C13        -1.8782   -1.1106   -1.0845 C.2       1 <0>         0.5423
     15 O1         -1.5538   -0.8958   -2.2344 O.2       1 <0>        -0.4460
     16 C14        -3.0863   -1.8456   -0.6491 C.2       1 <0>        -0.1395
     17 C15        -3.0729   -1.8528    0.6945 C.2       1 <0>        -0.1330
     18 C16        -1.8534   -1.1274    1.1137 C.2       1 <0>         0.5403
     19 O2         -1.5030   -0.9302    2.2591 O.2       1 <0>        -0.4410
     20 H1         -4.6628    4.0103    0.0458 H         1 <0>         0.1258
     21 H2         -2.9143    4.5946    1.6749 H         1 <0>         0.1275
     22 H3         -0.7676    3.3929    1.6657 H         1 <0>         0.1261
     23 H4         -2.1303    1.0179   -1.6304 H         1 <0>         0.1260
     24 H5         -4.2747    2.2234   -1.6000 H         1 <0>         0.1260
     25 H6          1.1754    3.1810    0.0076 H         1 <0>         0.1350
     26 H7          3.3138    1.9684   -0.0194 H         1 <0>         0.1348
     27 H8          3.3428   -0.4907   -0.0329 H         1 <0>         0.1355
     28 H9          1.2345   -1.7554   -0.0195 H         1 <0>         0.1300
     29 H10        -3.8365   -2.2875   -1.2880 H         1 <0>         0.1884
     30 H11        -3.8105   -2.3013    1.3435 H         1 <0>         0.1879
@<TRIPOS>BOND
     1    1    6 ar
     2    1    2 ar
     3    1   20 1
     4    2    3 ar
     5    2   21 1
     6    3    4 ar
     7    3   22 1
     8    4    5 ar
     9    4    7 1
    10    5    6 ar
    11    5   23 1
    12    6   24 1
    13    7   12 ar
    14    7    8 ar
    15    8    9 ar
    16    8   25 1
    17    9   10 ar
    18    9   26 1
    19   10   11 ar
    20   10   27 1
    21   11   12 ar
    22   11   28 1
    23   12   13 1
    24   13   18 am
    25   13   14 am
    26   14   15 2
    27   14   16 1
    28   16   17 2
    29   16   29 1
    30   17   18 1
    31   17   30 1
    32   18   19 2
@<TRIPOS>MOLECULE
ZINC00186459
   30    32     0     0     0
SMALL
USER_CHARGES
1-(4-phenylphenyl)pyrrole-2,5-dione
@<TRIPOS>ATOM
      1 C1          1.1321    6.3384    0.0235 C.ar      1 <0>        -0.1175
      2 C2          2.3394    5.6635    0.0092 C.ar      1 <0>        -0.1170
      3 C3          2.3615    4.2835    0.0020 C.ar      1 <0>        -0.1103
      4 C4          1.1643    3.5701    0.0096 C.ar      1 <0>        -0.0472
      5 C5         -0.0491    4.2554    0.0187 C.ar      1 <0>        -0.1103
      6 C6         -0.0592    5.6354    0.0307 C.ar      1 <0>        -0.1169
      7 C7          1.1816    2.0867    0.0020 C.ar      1 <0>        -0.0505
      8 C8         -0.0166    1.3746    0.0096 C.ar      1 <0>        -0.0889
      9 C9          0.0021   -0.0041    0.0020 C.ar      1 <0>        -0.1348
     10 C10         1.2139   -0.6835   -0.0137 C.ar      1 <0>         0.1283
     11 C11         2.4095    0.0241   -0.0213 C.ar      1 <0>        -0.1348
     12 C12         2.3961    1.4028   -0.0128 C.ar      1 <0>        -0.0889
     13 N1          1.2302   -2.0841   -0.0223 N.am      1 <0>        -0.5323
     14 C13         0.1402   -2.8724   -0.0107 C.2       1 <0>         0.5391
     15 O1         -1.0120   -2.4905    0.0087 O.2       1 <0>        -0.4395
     16 C14         0.5840   -4.2837   -0.0285 C.2       1 <0>        -0.1335
     17 C15         1.9274   -4.2680   -0.0416 C.2       1 <0>        -0.1334
     18 C16         2.3382   -2.8466   -0.0375 C.2       1 <0>         0.5390
     19 O2          3.4813   -2.4379   -0.0467 O.2       1 <0>        -0.4395
     20 H1          1.1195    7.4183    0.0288 H         1 <0>         0.1237
     21 H2          3.2665    6.2174    0.0034 H         1 <0>         0.1253
     22 H3          3.3047    3.7576   -0.0098 H         1 <0>         0.1259
     23 H4         -0.9798    3.7075    0.0198 H         1 <0>         0.1259
     24 H5         -0.9989    6.1675    0.0414 H         1 <0>         0.1253
     25 H6         -0.9589    1.9022    0.0169 H         1 <0>         0.1353
     26 H7         -0.9260   -0.5563    0.0079 H         1 <0>         0.1553
     27 H8          3.3503   -0.5063   -0.0335 H         1 <0>         0.1553
     28 H9          3.3258    1.9523   -0.0188 H         1 <0>         0.1353
     29 H10        -0.0499   -5.1582   -0.0279 H         1 <0>         0.1908
     30 H11         2.5815   -5.1274   -0.0523 H         1 <0>         0.1908
@<TRIPOS>BOND
     1    1    6 ar
     2    1    2 ar
     3    1   20 1
     4    2    3 ar
     5    2   21 1
     6    3    4 ar
     7    3   22 1
     8    4    5 ar
     9    4    7 1
    10    5    6 ar
    11    5   23 1
    12    6   24 1
    13    7   12 ar
    14    7    8 ar
    15    8    9 ar
    16    8   25 1
    17    9   10 ar
    18    9   26 1
    19   10   11 ar
    20   10   13 1
    21   11   12 ar
    22   11   27 1
    23   12   28 1
    24   13   18 am
    25   13   14 am
    26   14   15 2
    27   14   16 1
    28   16   17 2
    29   16   29 1
    30   17   18 1
    31   17   30 1
    32   18   19 2
@<TRIPOS>MOLECULE
ZINC00522492
   30    32     0     0     0
SMALL
USER_CHARGES

@<TRIPOS>ATOM
      1 C1         -0.0167    1.3790    0.0096 C.ar      1 <0>        -0.1155
      2 C2          1.1687    2.0919    0.0021 C.ar      1 <0>        -0.1186
      3 C3          2.3774    1.4258   -0.0135 C.ar      1 <0>        -0.1076
      4 C4          2.4022    0.0327   -0.0212 C.ar      1 <0>        -0.0501
      5 C5          1.2051   -0.6804   -0.0131 C.ar      1 <0>        -0.1068
      6 C6          0.0021   -0.0041    0.0020 C.ar      1 <0>        -0.1173
      7 C7          3.6987   -0.6890   -0.0385 C.ar      1 <0>        -0.0231
      8 C8          4.8959    0.0250   -0.0412 C.ar      1 <0>        -0.1169
      9 C9          6.1010   -0.6479   -0.0573 C.ar      1 <0>        -0.0931
     10 C10         6.1254   -2.0299   -0.0712 C.ar      1 <0>        -0.1387
     11 C11         4.9373   -2.7492   -0.0691 C.ar      1 <0>         0.1316
     12 C12         3.7227   -2.0809   -0.0462 C.ar      1 <0>        -0.1328
     13 N1          4.9662   -4.1506   -0.0836 N.am      1 <0>        -0.5329
     14 C13         3.8832   -4.9486   -0.0890 C.2       1 <0>         0.5392
     15 O1          2.7275   -4.5770   -0.0814 O.2       1 <0>        -0.4408
     16 C14         4.3397   -6.3559   -0.1057 C.2       1 <0>        -0.1335
     17 C15         5.6830   -6.3281   -0.1095 C.2       1 <0>        -0.1331
     18 C16         6.0811   -4.9031   -0.1003 C.2       1 <0>         0.5396
     19 O2          7.2205   -4.4842   -0.1046 O.2       1 <0>        -0.4391
     20 H1         -0.9602    1.9042    0.0260 H         1 <0>         0.1241
     21 H2          1.1483    3.1717    0.0081 H         1 <0>         0.1258
     22 H3          3.3023    1.9834   -0.0200 H         1 <0>         0.1265
     23 H4          1.2186   -1.7603   -0.0194 H         1 <0>         0.1274
     24 H5         -0.9264   -0.5558    0.0079 H         1 <0>         0.1257
     25 H6          4.8806    1.1048   -0.0311 H         1 <0>         0.1318
     26 H7          7.0276   -0.0930   -0.0595 H         1 <0>         0.1357
     27 H8          7.0709   -2.5518   -0.0842 H         1 <0>         0.1539
     28 H9          2.7978   -2.6385   -0.0396 H         1 <0>         0.1567
     29 H10         3.7137   -7.2359   -0.1130 H         1 <0>         0.1908
     30 H11         6.3447   -7.1816   -0.1208 H         1 <0>         0.1910
@<TRIPOS>BOND
     1    1    6 ar
     2    1    2 ar
     3    1   20 1
     4    2    3 ar
     5    2   21 1
     6    3    4 ar
     7    3   22 1
     8    4    5 ar
     9    4    7 1
    10    5    6 ar
    11    5   23 1
    12    6   24 1
    13    7   12 ar
    14    7    8 ar
    15    8    9 ar
    16    8   25 1
    17    9   10 ar
    18    9   26 1
    19   10   11 ar
    20   10   27 1
    21   11   12 ar
    22   11   13 1
    23   12   28 1
    24   13   18 am
    25   13   14 am
    26   14   15 2
    27   14   16 1
    28   16   17 2
    29   16   29 1
    30   17   18 1
    31   17   30 1
    32   18   19 2
@<TRIPOS>MOLECULE
ZINC00092512
   24    25     0     0     0
SMALL
USER_CHARGES
1-(4-methoxyphenyl)pyrrole-2,5-dione
@<TRIPOS>ATOM
      1 C1         -3.6109    3.0057    0.0522 C.3       1 <0>         0.0248
      2 O1         -2.4234    3.8005    0.0446 O.3       1 <0>        -0.3145
      3 C2         -1.2366    3.1371    0.0302 C.ar      1 <0>         0.1239
      4 C3         -1.2177    1.7501    0.0173 C.ar      1 <0>        -0.1877
      5 C4         -0.0126    1.0758    0.0080 C.ar      1 <0>        -0.0960
      6 C5          1.1799    1.7862    0.0004 C.ar      1 <0>         0.0875
      7 C6          1.1604    3.1741    0.0075 C.ar      1 <0>        -0.0966
      8 C7         -0.0452    3.8475    0.0222 C.ar      1 <0>        -0.1302
      9 N1          2.4049    1.1014   -0.0150 N.am      1 <0>        -0.5292
     10 C8          2.5455   -0.2364   -0.0176 C.2       1 <0>         0.5393
     11 O2          1.6404   -1.0455   -0.0069 O.2       1 <0>        -0.4432
     12 C9          3.9904   -0.5545   -0.0381 C.2       1 <0>        -0.1344
     13 C10         4.6460    0.6182   -0.0384 C.2       1 <0>        -0.1334
     14 C11         3.6181    1.6825   -0.0234 C.2       1 <0>         0.5390
     15 O3          3.8332    2.8773   -0.0201 O.2       1 <0>        -0.4414
     16 H1         -3.6355    2.3807   -0.8405 H         1 <0>         0.0574
     17 H2         -3.6186    2.3724    0.9394 H         1 <0>         0.0574
     18 H3         -4.4844    3.6576    0.0636 H         1 <0>         0.1030
     19 H4         -2.1456    1.1974    0.0191 H         1 <0>         0.1378
     20 H5          0.0021   -0.0041    0.0020 H         1 <0>         0.1555
     21 H6          2.0880    3.7273    0.0013 H         1 <0>         0.1595
     22 H7         -0.0604    4.9274    0.0278 H         1 <0>         0.1415
     23 H8          4.4329   -1.5396   -0.0477 H         1 <0>         0.1900
     24 H9          5.7170    0.7573   -0.0472 H         1 <0>         0.1902
@<TRIPOS>BOND
     1    1    2 1
     2    1   16 1
     3    1   17 1
     4    1   18 1
     5    2    3 1
     6    3    8 ar
     7    3    4 ar
     8    4    5 ar
     9    4   19 1
    10    5    6 ar
    11    5   20 1
    12    6    7 ar
    13    6    9 1
    14    7    8 ar
    15    7   21 1
    16    8   22 1
    17    9   14 am
    18    9   10 am
    19   10   11 2
    20   10   12 1
    21   12   13 2
    22   12   23 1
    23   13   14 1
    24   13   24 1
    25   14   15 2
@<TRIPOS>MOLECULE
ZINC19972266
   26    27     0     0     0
SMALL
USER_CHARGES
1-(3-ethylphenyl)pyrrole-2,5-dione
@<TRIPOS>ATOM
      1 C1          4.1486   -0.9401   -1.4852 C.3       1 <0>        -0.1491
      2 C2          3.7166   -0.7001   -0.0372 C.3       1 <0>        -0.0872
      3 C3          2.3994    0.0317   -0.0207 C.ar      1 <0>        -0.0604
      4 C4          2.3774    1.4145   -0.0135 C.ar      1 <0>        -0.1238
      5 C5          1.1709    2.0894    0.0021 C.ar      1 <0>        -0.0946
      6 C6         -0.0167    1.3839    0.0097 C.ar      1 <0>        -0.1444
      7 C7          0.0021   -0.0041    0.0020 C.ar      1 <0>         0.1305
      8 C8          1.2154   -0.6791   -0.0132 C.ar      1 <0>        -0.1379
      9 N1         -1.2013   -0.7227    0.0092 N.am      1 <0>        -0.5307
     10 C9         -1.3037   -2.0640   -0.0030 C.2       1 <0>         0.5456
     11 O1         -0.3759   -2.8467   -0.0214 O.2       1 <0>        -0.4400
     12 C10        -2.7388   -2.4234    0.0133 C.2       1 <0>        -0.1481
     13 C11        -3.4276   -1.2699    0.0261 C.2       1 <0>        -0.1478
     14 C12        -2.4306   -0.1767    0.0234 C.2       1 <0>         0.5458
     15 O2         -2.6797    1.0115    0.0321 O.2       1 <0>        -0.4400
     16 H1          5.1101   -1.4743   -1.4972 H         1 <0>         0.0613
     17 H2          4.2593    0.0258   -1.9997 H         1 <0>         0.0569
     18 H3          3.3869   -1.5444   -1.9997 H         1 <0>         0.0564
     19 H4          3.6059   -1.6660    0.4773 H         1 <0>         0.0753
     20 H5          4.4783   -0.0958    0.4773 H         1 <0>         0.0765
     21 H6          3.3046    1.9683   -0.0201 H         1 <0>         0.1275
     22 H7          1.1569    3.1693    0.0080 H         1 <0>         0.1325
     23 H8         -0.9590    1.9117    0.0170 H         1 <0>         0.1518
     24 H9          1.2331   -1.7589   -0.0195 H         1 <0>         0.1521
     25 H10        -3.2747   -3.3840    0.0163 H         1 <0>         0.1958
     26 H11        -4.5274   -1.2861    0.0359 H         1 <0>         0.1959
@<TRIPOS>BOND
     1    1    2 1
     2    1   16 1
     3    1   17 1
     4    1   18 1
     5    2    3 1
     6    2   19 1
     7    2   20 1
     8    3    8 ar
     9    3    4 ar
    10    4    5 ar
    11    4   21 1
    12    5    6 ar
    13    5   22 1
    14    6    7 ar
    15    6   23 1
    16    7    8 ar
    17    7    9 1
    18    8   24 1
    19    9   14 am
    20    9   10 am
    21   10   11 2
    22   10   12 1
    23   12   13 2
    24   12   25 1
    25   13   14 1
    26   13   26 1
    27   14   15 2
@<TRIPOS>MOLECULE
ZINC00100150
   29    30     0     0     0
SMALL
USER_CHARGES
1-(4-propylphenyl)pyrrole-2,5-dione
@<TRIPOS>ATOM
      1 C1         -0.0366    1.0992   -2.4903 C.3       1 <0>        -0.1541
      2 C2         -0.7527    1.5927   -1.2315 C.3       1 <0>        -0.1194
      3 C3         -0.0127    1.0858    0.0080 C.3       1 <0>        -0.0820
      4 C4         -0.7181    1.5718    1.2479 C.ar      1 <0>        -0.0867
      5 C5         -0.3586    2.7794    1.8177 C.ar      1 <0>        -0.0963
      6 C6         -1.0066    3.2297    2.9513 C.ar      1 <0>        -0.1350
      7 C7         -2.0122    2.4634    3.5250 C.ar      1 <0>         0.1212
      8 C8         -2.3672    1.2490    2.9537 C.ar      1 <0>        -0.1350
      9 C9         -1.7195    0.8066    1.8168 C.ar      1 <0>        -0.0963
     10 N1         -2.6673    2.9148    4.6790 N.am      1 <0>        -0.5321
     11 C10        -3.6559    2.2612    5.3153 C.2       1 <0>         0.5389
     12 O1         -4.1251    1.1906    4.9875 O.2       1 <0>        -0.4405
     13 C11        -4.0726    3.0673    6.4840 C.2       1 <0>        -0.1340
     14 C12        -3.3119    4.1748    6.4827 C.2       1 <0>        -0.1340
     15 C13        -2.4075    4.0707    5.3163 C.2       1 <0>         0.5389
     16 O2         -1.5723    4.8891    4.9901 O.2       1 <0>        -0.4405
     17 H1         -0.0218    0.0093   -2.4963 H         1 <0>         0.0550
     18 H2         -0.5637    1.4603   -3.3734 H         1 <0>         0.0557
     19 H3          0.9860    1.4765   -2.4981 H         1 <0>         0.0549
     20 H4         -1.7753    1.2154   -1.2238 H         1 <0>         0.0632
     21 H5         -0.7675    2.6825   -1.2255 H         1 <0>         0.0632
     22 H6          0.0021   -0.0041    0.0020 H         1 <0>         0.0740
     23 H7          1.0099    1.4631    0.0003 H         1 <0>         0.0740
     24 H8          0.4267    3.3729    1.3735 H         1 <0>         0.1310
     25 H9         -0.7280    4.1747    3.3938 H         1 <0>         0.1521
     26 H10        -3.1488    0.6506    3.3979 H         1 <0>         0.1521
     27 H11        -1.9953   -0.1381    1.3718 H         1 <0>         0.1310
     28 H12        -4.8425    2.8157    7.1984 H         1 <0>         0.1904
     29 H13        -3.3528    4.9851    7.1955 H         1 <0>         0.1903
@<TRIPOS>BOND
     1    1    2 1
     2    1   17 1
     3    1   18 1
     4    1   19 1
     5    2    3 1
     6    2   20 1
     7    2   21 1
     8    3    4 1
     9    3   22 1
    10    3   23 1
    11    4    9 ar
    12    4    5 ar
    13    5    6 ar
    14    5   24 1
    15    6    7 ar
    16    6   25 1
    17    7    8 ar
    18    7   10 1
    19    8    9 ar
    20    8   26 1
    21    9   27 1
    22   10   15 am
    23   10   11 am
    24   11   12 2
    25   11   13 1
    26   13   14 2
    27   13   28 1
    28   14   15 1
    29   14   29 1
    30   15   16 2
@<TRIPOS>MOLECULE
ZINC19972212
   29    30     0     0     0
SMALL
USER_CHARGES
1-(2-isopropylphenyl)pyrrole-2,5-dione
@<TRIPOS>ATOM
      1 C1         -2.0881   -0.4245    1.2683 C.3       1 <0>        -0.1452
      2 C2         -1.2922   -0.7760    0.0098 C.3       1 <0>        -0.0596
      3 C3         -2.1111   -0.4111   -1.2300 C.3       1 <0>        -0.1452
      4 C4          0.0021   -0.0041    0.0020 C.ar      1 <0>        -0.0543
      5 C5         -0.0167    1.3772    0.0096 C.ar      1 <0>        -0.1078
      6 C6          1.1703    2.0861    0.0021 C.ar      1 <0>        -0.0989
      7 C7          2.3796    1.4152   -0.0132 C.ar      1 <0>        -0.1145
      8 C8          2.4047    0.0344   -0.0208 C.ar      1 <0>        -0.0955
      9 C9          1.2142   -0.6803   -0.0132 C.ar      1 <0>         0.1162
     10 N1          1.2365   -2.0818   -0.0205 N.am      1 <0>        -0.5421
     11 C10         1.2322   -2.8517   -1.1236 C.2       1 <0>         0.5451
     12 O1          1.2084   -2.4507   -2.2692 O.2       1 <0>        -0.4424
     13 C11         1.2639   -4.2700   -0.7036 C.2       1 <0>        -0.1507
     14 C12         1.2773   -4.2768    0.6399 C.2       1 <0>        -0.1507
     15 C13         1.2596   -2.8626    1.0746 C.2       1 <0>         0.5451
     16 O2          1.2643   -2.4732    2.2244 O.2       1 <0>        -0.4425
     17 H1         -1.4993   -0.6869    2.1597 H         1 <0>         0.0586
     18 H2         -3.0328   -0.9880    1.2740 H         1 <0>         0.0625
     19 H3         -2.3043    0.6540    1.2761 H         1 <0>         0.0618
     20 H4         -1.0606   -1.8513    0.0019 H         1 <0>         0.0670
     21 H5         -1.5389   -0.6638   -2.1348 H         1 <0>         0.0587
     22 H6         -2.3273    0.6674   -1.2222 H         1 <0>         0.0618
     23 H7         -3.0558   -0.9746   -1.2243 H         1 <0>         0.0625
     24 H8         -0.9595    1.9039    0.0169 H         1 <0>         0.1325
     25 H9          1.1532    3.1659    0.0081 H         1 <0>         0.1317
     26 H10         3.3052    1.9716   -0.0194 H         1 <0>         0.1333
     27 H11         3.3493   -0.4890   -0.0323 H         1 <0>         0.1270
     28 H12         1.2769   -5.2197   -1.2586 H         1 <0>         0.1927
     29 H13         1.2976   -5.2321    1.1849 H         1 <0>         0.1928
@<TRIPOS>BOND
     1    1    2 1
     2    1   17 1
     3    1   18 1
     4    1   19 1
     5    2    3 1
     6    2    4 1
     7    2   20 1
     8    3   21 1
     9    3   22 1
    10    3   23 1
    11    4    9 ar
    12    4    5 ar
    13    5    6 ar
    14    5   24 1
    15    6    7 ar
    16    6   25 1
    17    7    8 ar
    18    7   26 1
    19    8    9 ar
    20    8   27 1
    21    9   10 1
    22   10   15 am
    23   10   11 am
    24   11   12 2
    25   11   13 1
    26   13   14 2
    27   13   28 1
    28   14   15 1
    29   14   29 1
    30   15   16 2
@<TRIPOS>MOLECULE
ZINC01669786
   38    39     0     0     0
SMALL
USER_CHARGES
N-methyl-1-(methyl-phenyl-thiocarbamoyl)disulfanyl-N-phenyl-thioformamide
@<TRIPOS>ATOM
      1 C1         -0.6857    0.4193    0.1157 C.3       1 <0>         0.0517
      2 N1          0.6924    0.8858   -0.0556 N.pl3     1 <0>        -0.4600
      3 C2          0.9650    2.2565   -0.1105 C.ar      1 <0>         0.1072
      4 C3          1.5984    2.8834    0.9547 C.ar      1 <0>        -0.0710
      5 C4          1.8708    4.2361    0.8950 C.ar      1 <0>        -0.1098
      6 C5          1.5037    4.9683   -0.2191 C.ar      1 <0>        -0.1009
      7 C6          0.8678    4.3483   -1.2790 C.ar      1 <0>        -0.1127
      8 C7          0.5976    2.9949   -1.2281 C.ar      1 <0>        -0.1002
      9 C8          1.6977   -0.0058   -0.1601 C.2       1 <0>         0.2861
     10 S1          3.3198    0.5372   -0.2300 S.2       1 <0>        -0.4920
     11 S2          1.3424   -1.7304   -0.2249 S.3       1 <0>         0.0758
     12 S3          3.2536   -2.4839   -0.3767 S.3       1 <0>         0.0757
     13 C9          3.6962   -2.5413    1.3278 C.2       1 <0>         0.2858
     14 S4          2.5801   -2.0269    2.5198 S.2       1 <0>        -0.4913
     15 N2          4.9133   -2.9900    1.6933 N.pl3     1 <0>        -0.4606
     16 C10         5.9039   -3.3358    0.6709 C.3       1 <0>         0.0568
     17 C11         5.2307   -3.1256    3.0486 C.ar      1 <0>         0.1115
     18 C12         6.1915   -2.3041    3.6240 C.ar      1 <0>        -0.0987
     19 C13         6.4988   -2.4370    4.9639 C.ar      1 <0>        -0.1100
     20 C14         5.8590   -3.3942    5.7299 C.ar      1 <0>        -0.1029
     21 C15         4.9060   -4.2176    5.1587 C.ar      1 <0>        -0.1080
     22 C16         4.5900   -4.0860    3.8208 C.ar      1 <0>        -0.0794
     23 H1         -1.1486    0.2868   -0.8622 H         1 <0>         0.0852
     24 H2         -0.6838   -0.5315    0.6486 H         1 <0>         0.0963
     25 H3         -1.2500    1.1556    0.6880 H         1 <0>         0.0998
     26 H4          1.8814    2.3130    1.8270 H         1 <0>         0.1270
     27 H5          2.3670    4.7234    1.7213 H         1 <0>         0.1310
     28 H6          1.7138    6.0269   -0.2614 H         1 <0>         0.1291
     29 H7          0.5824    4.9230   -2.1477 H         1 <0>         0.1313
     30 H8          0.1009    2.5112   -2.0562 H         1 <0>         0.1256
     31 H9          6.5013   -2.4561    0.4315 H         1 <0>         0.0901
     32 H10         6.5544   -4.1252    1.0474 H         1 <0>         0.0993
     33 H11         5.3931   -3.6834   -0.2271 H         1 <0>         0.0892
     34 H12         6.6947   -1.5593    3.0253 H         1 <0>         0.1266
     35 H13         7.2428   -1.7957    5.4129 H         1 <0>         0.1313
     36 H14         6.1043   -3.4991    6.7764 H         1 <0>         0.1292
     37 H15         4.4081   -4.9641    5.7597 H         1 <0>         0.1314
     38 H16         3.8456   -4.7293    3.3753 H         1 <0>         0.1248
@<TRIPOS>BOND
     1    1    2 1
     2    1   23 1
     3    1   24 1
     4    1   25 1
     5    2    3 1
     6    2    9 1
     7    3    8 ar
     8    3    4 ar
     9    4    5 ar
    10    4   26 1
    11    5    6 ar
    12    5   27 1
    13    6    7 ar
    14    6   28 1
    15    7    8 ar
    16    7   29 1
    17    8   30 1
    18    9   10 2
    19    9   11 1
    20   11   12 1
    21   12   13 1
    22   13   14 2
    23   13   15 1
    24   15   16 1
    25   15   17 1
    26   16   31 1
    27   16   32 1
    28   16   33 1
    29   17   22 ar
    30   17   18 ar
    31   18   19 ar
    32   18   34 1
    33   19   20 ar
    34   19   35 1
    35   20   21 ar
    36   20   36 1
    37   21   22 ar
    38   21   37 1
    39   22   38 1
@<TRIPOS>MOLECULE
ZINC00592819
   43    45     0     0     0
SMALL
USER_CHARGES
benzyl [4-(5-methoxy-2-oxo-1,3,4-oxadiazol-3-yl)-2-methyl-phenyl]aminoformate
@<TRIPOS>ATOM
      1 C1         -1.2814   -0.7754    0.0159 C.3       1 <0>        -0.1125
      2 C2          0.0103    0.0008    0.0170 C.ar      1 <0>        -0.0884
      3 C3          1.2178   -0.6684    0.0140 C.ar      1 <0>        -0.0992
      4 C4          2.4081    0.0469    0.0150 C.ar      1 <0>         0.1637
      5 C5          2.3836    1.4359    0.0191 C.ar      1 <0>        -0.1200
      6 C6          1.1764    2.1047    0.0226 C.ar      1 <0>        -0.0966
      7 C7         -0.0140    1.3891    0.0215 C.ar      1 <0>         0.1526
      8 N1         -1.2395    2.0681    0.0192 N.am      1 <0>        -0.6450
      9 C8         -1.3147    3.3210   -0.4720 C.2       1 <0>         0.6496
     10 O1         -0.3455    3.8237   -1.0053 O.2       1 <0>        -0.5484
     11 O2         -2.4640    4.0155   -0.3718 O.3       1 <0>        -0.3596
     12 C9         -2.4725    5.3589   -0.9228 C.3       1 <0>         0.1298
     13 C10        -3.8322    5.9763   -0.7201 C.ar      1 <0>        -0.1040
     14 C11        -4.8095    5.8286   -1.6865 C.ar      1 <0>        -0.0925
     15 C12        -6.0582    6.3909   -1.4984 C.ar      1 <0>        -0.1234
     16 C13        -6.3265    7.1094   -0.3483 C.ar      1 <0>        -0.1056
     17 C14        -5.3474    7.2620    0.6155 C.ar      1 <0>        -0.1233
     18 C15        -4.1003    6.6953    0.4297 C.ar      1 <0>        -0.0923
     19 N2          3.6336   -0.6321    0.0115 N.am      1 <0>        -0.3849
     20 C16         4.8632   -0.0744    0.0065 C.2       1 <0>         0.6200
     21 O3          5.1146    1.1165    0.0042 O.2       1 <0>        -0.4528
     22 O4          5.7583   -1.0770    0.0072 O.3       1 <0>        -0.2529
     23 C17         5.0972   -2.2518    0.0039 C.2       1 <0>         0.4428
     24 N3          3.8196   -2.0225    0.0063 N.2       1 <0>        -0.3079
     25 O5          5.6747   -3.4776   -0.0016 O.3       1 <0>        -0.2578
     26 C18         4.7994   -4.6071   -0.0050 C.3       1 <0>         0.0351
     27 H1         -1.5939   -0.9593   -1.0120 H         1 <0>         0.0779
     28 H2         -1.1338   -1.7271    0.5265 H         1 <0>         0.0769
     29 H3         -2.0507   -0.2014    0.5324 H         1 <0>         0.0643
     30 H4          1.2367   -1.7483    0.0112 H         1 <0>         0.1444
     31 H5          3.3092    1.9924    0.0202 H         1 <0>         0.1554
     32 H6          1.1573    3.1845    0.0258 H         1 <0>         0.1588
     33 H7         -2.0337    1.6366    0.3711 H         1 <0>         0.4181
     34 H8         -1.7197    5.9637   -0.4173 H         1 <0>         0.0844
     35 H9         -2.2483    5.3159   -1.9886 H         1 <0>         0.0842
     36 H10        -4.5985    5.2706   -2.5869 H         1 <0>         0.1254
     37 H11        -6.8230    6.2720   -2.2516 H         1 <0>         0.1269
     38 H12        -7.3009    7.5519   -0.2030 H         1 <0>         0.1258
     39 H13        -5.5569    7.8237    1.5139 H         1 <0>         0.1269
     40 H14        -3.3354    6.8145    1.1828 H         1 <0>         0.1256
     41 H15         4.1717   -4.5831    0.8859 H         1 <0>         0.0759
     42 H16         4.1696   -4.5761   -0.8941 H         1 <0>         0.0759
     43 H17         5.3891   -5.5238   -0.0093 H         1 <0>         0.1263
@<TRIPOS>BOND
     1    1    2 1
     2    1   27 1
     3    1   28 1
     4    1   29 1
     5    2    7 ar
     6    2    3 ar
     7    3    4 ar
     8    3   30 1
     9    4    5 ar
    10    4   19 1
    11    5    6 ar
    12    5   31 1
    13    6    7 ar
    14    6   32 1
    15    7    8 1
    16    8    9 am
    17    8   33 1
    18    9   10 2
    19    9   11 1
    20   11   12 1
    21   12   13 1
    22   12   34 1
    23   12   35 1
    24   13   18 ar
    25   13   14 ar
    26   14   15 ar
    27   14   36 1
    28   15   16 ar
    29   15   37 1
    30   16   17 ar
    31   16   38 1
    32   17   18 ar
    33   17   39 1
    34   18   40 1
    35   19   24 1
    36   19   20 am
    37   20   21 2
    38   20   22 1
    39   22   23 1
    40   23   24 2
    41   23   25 1
    42   25   26 1
    43   26   41 1
    44   26   42 1
    45   26   43 1
@<TRIPOS>MOLECULE
ZINC24718135
   43    44     0     0     0
SMALL
USER_CHARGES
(4-methylpiperazine-1-carbothioyl)sulfanyl 4-methylpiperazine-1-carbodithioate
@<TRIPOS>ATOM
      1 C1          0.7459   -1.9455    1.2430 C.3       1 <0>        -0.0458
      2 N1          0.8373   -0.4854    1.1105 N.4       1 <0>        -0.4036
      3 C2          0.0021   -0.0041    0.0020 C.3       1 <0>        -0.0158
      4 C3         -0.0187    1.5282    0.0104 C.3       1 <0>         0.0652
      5 N2          1.3694    2.0143   -0.0002 N.pl3     1 <0>        -0.5378
      6 C4          2.3042    1.4723    0.9976 C.3       1 <0>         0.0705
      7 C5          2.2335   -0.0577    0.9504 C.3       1 <0>        -0.0156
      8 C6          1.7739    2.9324   -0.9002 C.2       1 <0>         0.2586
      9 S1          0.6666    3.5485   -2.0514 S.2       1 <0>        -0.4671
     10 S2          3.3951    3.4825   -0.8922 S.3       1 <0>         0.1076
     11 S3          3.3278    4.8168   -2.4602 S.3       1 <0>         0.1221
     12 C7          2.7537    6.2072   -1.6430 C.2       1 <0>         0.2637
     13 S4          2.4281    6.1397    0.0364 S.2       1 <0>        -0.5342
     14 N3          2.5580    7.3551   -2.3217 N.pl3     1 <0>        -0.4844
     15 C8          2.8372    7.4365   -3.7634 C.3       1 <0>         0.0901
     16 C9          1.6003    8.0241   -4.4614 C.3       1 <0>         0.0410
     17 N4          1.2451    9.2995   -3.8251 N.3       1 <0>        -0.5432
     18 C10         0.8645    9.1060   -2.4195 C.3       1 <0>         0.0408
     19 C11         2.0654    8.5611   -1.6390 C.3       1 <0>         0.0850
     20 C12         0.1779    9.9805   -4.5704 C.3       1 <0>         0.0214
     21 H1         -0.3080   -2.2377    1.3612 H         1 <0>         0.1290
     22 H2          1.3176   -2.2701    2.1249 H         1 <0>         0.1285
     23 H3          1.1597   -2.4220    0.3420 H         1 <0>         0.1208
     24 H4          0.4175   -0.3611   -0.9519 H         1 <0>         0.1349
     25 H5         -1.0223   -0.3866    0.1218 H         1 <0>         0.1538
     26 H6         -0.5507    1.8925   -0.8808 H         1 <0>         0.1641
     27 H7         -0.5336    1.8830    0.9154 H         1 <0>         0.1134
     28 H8          3.3253    1.8081    0.7638 H         1 <0>         0.1352
     29 H9          2.0206    1.8303    1.9983 H         1 <0>         0.1215
     30 H10         2.8417   -0.4793    1.7642 H         1 <0>         0.1554
     31 H11         2.6175   -0.4140   -0.0168 H         1 <0>         0.1364
     32 H12         3.7095    8.0852   -3.9319 H         1 <0>         0.1120
     33 H13         3.0481    6.4298   -4.1535 H         1 <0>         0.0991
     34 H14         1.8250    8.1927   -5.5249 H         1 <0>         0.1056
     35 H15         0.7596    7.3205   -4.3713 H         1 <0>         0.0501
     36 H16         0.5517   10.0685   -1.9885 H         1 <0>         0.1049
     37 H17         0.0317    8.3898   -2.3604 H         1 <0>         0.0468
     38 H18         1.7611    8.3036   -0.6138 H         1 <0>         0.1334
     39 H19         2.8649    9.3159   -1.6055 H         1 <0>         0.1034
     40 H20        -0.0679   10.9305   -4.0732 H         1 <0>         0.0779
     41 H21        -0.7157    9.3397   -4.5990 H         1 <0>         0.0313
     42 H22         0.5182   10.1812   -5.5970 H         1 <0>         0.0775
     43 H23         0.4539   -0.0354    2.0381 H         1 <0>         0.4465
@<TRIPOS>BOND
     1    1    2 1
     2    1   21 1
     3    1   22 1
     4    1   23 1
     5    2    7 1
     6    2    3 1
     7    2   43 1
     8    3    4 1
     9    3   24 1
    10    3   25 1
    11    4    5 1
    12    4   26 1
    13    4   27 1
    14    5    6 1
    15    5    8 1
    16    6    7 1
    17    6   28 1
    18    6   29 1
    19    7   30 1
    20    7   31 1
    21    8    9 2
    22    8   10 1
    23   10   11 1
    24   11   12 1
    25   12   13 2
    26   12   14 1
    27   14   19 1
    28   14   15 1
    29   15   16 1
    30   15   32 1
    31   15   33 1
    32   16   17 1
    33   16   34 1
    34   16   35 1
    35   17   18 1
    36   17   20 1
    37   18   19 1
    38   18   36 1
    39   18   37 1
    40   19   38 1
    41   19   39 1
    42   20   40 1
    43   20   41 1
    44   20   42 1
@<TRIPOS>MOLECULE
ZINC24718135
   42    43     0     0     0
SMALL
USER_CHARGES
(4-methylpiperazine-1-carbothioyl)sulfanyl 4-methylpiperazine-1-carbodithioate
@<TRIPOS>ATOM
      1 C1          0.7459   -1.9455    1.2430 C.3       1 <0>         0.0223
      2 N1          0.8373   -0.4854    1.1105 N.3       1 <0>        -0.5438
      3 C2          0.0021   -0.0041    0.0020 C.3       1 <0>         0.0402
      4 C3         -0.0187    1.5282    0.0104 C.3       1 <0>         0.0879
      5 N2          1.3694    2.0143   -0.0002 N.pl3     1 <0>        -0.4952
      6 C4          2.3042    1.4723    0.9976 C.3       1 <0>         0.0943
      7 C5          2.2335   -0.0577    0.9504 C.3       1 <0>         0.0406
      8 C6          1.7739    2.9324   -0.9002 C.2       1 <0>         0.2732
      9 S1          0.6666    3.5485   -2.0514 S.2       1 <0>        -0.5353
     10 S2          3.3951    3.4825   -0.8922 S.3       1 <0>         0.1003
     11 S3          3.3278    4.8168   -2.4602 S.3       1 <0>         0.0992
     12 C7          2.7537    6.2072   -1.6430 C.2       1 <0>         0.2717
     13 S4          2.4281    6.1397    0.0364 S.2       1 <0>        -0.5319
     14 N3          2.5580    7.3551   -2.3217 N.pl3     1 <0>        -0.4960
     15 C8          2.8372    7.4365   -3.7634 C.3       1 <0>         0.0932
     16 C9          1.6003    8.0241   -4.4614 C.3       1 <0>         0.0408
     17 N4          1.2451    9.2995   -3.8251 N.3       1 <0>        -0.5434
     18 C10         0.8645    9.1060   -2.4195 C.3       1 <0>         0.0407
     19 C11         2.0654    8.5611   -1.6390 C.3       1 <0>         0.0883
     20 C12         0.1779    9.9805   -4.5704 C.3       1 <0>         0.0222
     21 H1         -0.3080   -2.2377    1.3612 H         1 <0>         0.0756
     22 H2          1.3176   -2.2701    2.1249 H         1 <0>         0.0753
     23 H3          1.1597   -2.4220    0.3420 H         1 <0>         0.0299
     24 H4          0.4175   -0.3611   -0.9519 H         1 <0>         0.0456
     25 H5         -1.0223   -0.3866    0.1218 H         1 <0>         0.1016
     26 H6         -0.5507    1.8925   -0.8808 H         1 <0>         0.1318
     27 H7         -0.5336    1.8830    0.9154 H         1 <0>         0.0984
     28 H8          3.3253    1.8081    0.7638 H         1 <0>         0.0991
     29 H9          2.0206    1.8303    1.9983 H         1 <0>         0.1077
     30 H10         2.8417   -0.4793    1.7642 H         1 <0>         0.1032
     31 H11         2.6175   -0.4140   -0.0168 H         1 <0>         0.0469
     32 H12         3.7095    8.0852   -3.9319 H         1 <0>         0.1053
     33 H13         3.0481    6.4298   -4.1535 H         1 <0>         0.1001
     34 H14         1.8250    8.1927   -5.5249 H         1 <0>         0.1015
     35 H15         0.7596    7.3205   -4.3713 H         1 <0>         0.0509
     36 H16         0.5517   10.0685   -1.9885 H         1 <0>         0.1009
     37 H17         0.0317    8.3898   -2.3604 H         1 <0>         0.0475
     38 H18         1.7611    8.3036   -0.6138 H         1 <0>         0.1320
     39 H19         2.8649    9.3159   -1.6055 H         1 <0>         0.0972
     40 H20        -0.0679   10.9305   -4.0732 H         1 <0>         0.0752
     41 H21        -0.7157    9.3397   -4.5990 H         1 <0>         0.0304
     42 H22         0.5182   10.1812   -5.5970 H         1 <0>         0.0748
@<TRIPOS>BOND
     1    1    2 1
     2    1   21 1
     3    1   22 1
     4    1   23 1
     5    2    7 1
     6    2    3 1
     7    3    4 1
     8    3   24 1
     9    3   25 1
    10    4    5 1
    11    4   26 1
    12    4   27 1
    13    5    6 1
    14    5    8 1
    15    6    7 1
    16    6   28 1
    17    6   29 1
    18    7   30 1
    19    7   31 1
    20    8    9 2
    21    8   10 1
    22   10   11 1
    23   11   12 1
    24   12   13 2
    25   12   14 1
    26   14   19 1
    27   14   15 1
    28   15   16 1
    29   15   32 1
    30   15   33 1
    31   16   17 1
    32   16   34 1
    33   16   35 1
    34   17   18 1
    35   17   20 1
    36   18   19 1
    37   18   36 1
    38   18   37 1
    39   19   38 1
    40   19   39 1
    41   20   40 1
    42   20   41 1
    43   20   42 1
@<TRIPOS>MOLECULE
ZINC00096890
   28    30     0     0     0
SMALL
USER_CHARGES
1-[3-(2,5-dioxopyrrol-1-yl)phenyl]pyrrole-2,5-dione
@<TRIPOS>ATOM
      1 C1         -3.5193   -1.0743    0.0326 C.ar      1 <0>        -0.0736
      2 C2         -3.3794   -2.4488    0.0234 C.ar      1 <0>        -0.1455
      3 C3         -2.1132   -3.0191    0.0073 C.ar      1 <0>         0.1513
      4 C4         -0.9884   -2.2073    0.0000 C.ar      1 <0>        -0.1675
      5 C5         -1.1321   -0.8276    0.0088 C.ar      1 <0>         0.1513
      6 C6         -2.4008   -0.2631    0.0303 C.ar      1 <0>        -0.1455
      7 N1          0.0021   -0.0041    0.0020 N.am      1 <0>        -0.5332
      8 C7         -0.0162    1.3410    0.0094 C.2       1 <0>         0.5409
      9 O1         -1.0104    2.0375    0.0181 O.2       1 <0>        -0.4398
     10 C8          1.3811    1.8274   -0.0013 C.2       1 <0>        -0.1345
     11 C9          2.1704    0.7402   -0.0147 C.2       1 <0>        -0.1305
     12 C10         1.2753   -0.4379   -0.0125 C.2       1 <0>         0.5320
     13 O2          1.6297   -1.5989   -0.0224 O.2       1 <0>        -0.4255
     14 N2         -1.9720   -4.4136   -0.0011 N.am      1 <0>        -0.5331
     15 C11        -0.8004   -5.0742   -0.0221 C.2       1 <0>         0.5319
     16 O3          0.3016   -4.5652   -0.0364 O.2       1 <0>        -0.4255
     17 C12        -1.0828   -6.5266   -0.0215 C.2       1 <0>        -0.1305
     18 C13        -2.4194   -6.6621   -0.0084 C.2       1 <0>        -0.1345
     19 C14        -2.9873   -5.2959    0.0047 C.2       1 <0>         0.5409
     20 O4         -4.1691   -5.0183    0.0180 O.2       1 <0>        -0.4399
     21 H1         -4.5050   -0.6330    0.0455 H         1 <0>         0.1435
     22 H2         -4.2555   -3.0803    0.0291 H         1 <0>         0.1582
     23 H3         -0.0027   -2.6485   -0.0121 H         1 <0>         0.1862
     24 H4         -2.5133    0.8109    0.0413 H         1 <0>         0.1582
     25 H5          1.7043    2.8579    0.0006 H         1 <0>         0.1912
     26 H6          3.2503    0.7285   -0.0256 H         1 <0>         0.1911
     27 H7         -0.3547   -7.3242   -0.0327 H         1 <0>         0.1911
     28 H8         -2.9728   -7.5896   -0.0081 H         1 <0>         0.1913
@<TRIPOS>BOND
     1    1    6 ar
     2    1    2 ar
     3    1   21 1
     4    2    3 ar
     5    2   22 1
     6    3    4 ar
     7    3   14 1
     8    4    5 ar
     9    4   23 1
    10    5    6 ar
    11    5    7 1
    12    6   24 1
    13    7   12 am
    14    7    8 am
    15    8    9 2
    16    8   10 1
    17   10   11 2
    18   10   25 1
    19   11   12 1
    20   11   26 1
    21   12   13 2
    22   14   19 am
    23   14   15 am
    24   15   16 2
    25   15   17 1
    26   17   18 2
    27   17   27 1
    28   18   19 1
    29   18   28 1
    30   19   20 2
@<TRIPOS>MOLECULE
ZINC00501435
   34    35     0     0     0
SMALL
USER_CHARGES
1-(1-piperidyldisulfanyl)piperidine
@<TRIPOS>ATOM
      1 C1         -2.2790    9.7894   -1.9216 C.3       1 <0>        -0.1255
      2 C2         -2.9945    9.4991   -0.5993 C.3       1 <0>        -0.1106
      3 C3         -3.0934    7.9850   -0.4002 C.3       1 <0>         0.0405
      4 N1         -1.7460    7.4013   -0.3881 N.3       1 <0>        -0.4875
      5 C4         -1.0583    7.6264   -1.6659 C.3       1 <0>         0.0637
      6 C5         -0.8973    9.1298   -1.9021 C.3       1 <0>        -0.1104
      7 S1         -1.8052    5.6814    0.0039 S.3       1 <0>         0.0300
      8 S2         -2.5973    5.6305    1.8940 S.3       1 <0>         0.0299
      9 N2         -1.1996    5.8522    2.9488 N.3       1 <0>        -0.4875
     10 C6         -0.2377    4.7547    2.7854 C.3       1 <0>         0.0405
     11 C7          1.0217    5.0525    3.6024 C.3       1 <0>        -0.1105
     12 C8          0.6422    5.2081    5.0776 C.3       1 <0>        -0.1255
     13 C9         -0.3966    6.3247    5.2143 C.3       1 <0>        -0.1105
     14 C10        -1.6148    5.9900    4.3506 C.3       1 <0>         0.0636
     15 H1         -2.1668   10.8664   -2.0463 H         1 <0>         0.0702
     16 H2         -2.8636    9.3859   -2.7483 H         1 <0>         0.0619
     17 H3         -2.4301    9.9374    0.2237 H         1 <0>         0.0735
     18 H4         -3.9954    9.9299   -0.6250 H         1 <0>         0.0747
     19 H5         -3.6706    7.5493   -1.2157 H         1 <0>         0.0473
     20 H6         -3.5886    7.7751    0.5479 H         1 <0>         0.0873
     21 H7         -1.6451    7.1924   -2.4755 H         1 <0>         0.0461
     22 H8         -0.0755    7.1559   -1.6373 H         1 <0>         0.0872
     23 H9         -0.4008    9.2969   -2.8580 H         1 <0>         0.0765
     24 H10        -0.2986    9.5626   -1.1006 H         1 <0>         0.0750
     25 H11        -0.6855    3.8243    3.1346 H         1 <0>         0.0474
     26 H12         0.0270    4.6575    1.7325 H         1 <0>         0.0873
     27 H13         1.4777    5.9757    3.2446 H         1 <0>         0.0736
     28 H14         1.7296    4.2309    3.4934 H         1 <0>         0.0746
     29 H15         1.5295    5.4631    5.6570 H         1 <0>         0.0702
     30 H16         0.2222    4.2727    5.4473 H         1 <0>         0.0619
     31 H17         0.0371    7.2679    4.8819 H         1 <0>         0.0750
     32 H18        -0.7024    6.4116    6.2569 H         1 <0>         0.0765
     33 H19        -2.3503    6.7901    4.4345 H         1 <0>         0.0872
     34 H20        -2.0560    5.0538    4.6925 H         1 <0>         0.0461
@<TRIPOS>BOND
     1    1    6 1
     2    1    2 1
     3    1   15 1
     4    1   16 1
     5    2    3 1
     6    2   17 1
     7    2   18 1
     8    3    4 1
     9    3   19 1
    10    3   20 1
    11    4    5 1
    12    4    7 1
    13    5    6 1
    14    5   21 1
    15    5   22 1
    16    6   23 1
    17    6   24 1
    18    7    8 1
    19    8    9 1
    20    9   14 1
    21    9   10 1
    22   10   11 1
    23   10   25 1
    24   10   26 1
    25   11   12 1
    26   11   27 1
    27   11   28 1
    28   12   13 1
    29   12   29 1
    30   12   30 1
    31   13   14 1
    32   13   31 1
    33   13   32 1
    34   14   33 1
    35   14   34 1
@<TRIPOS>MOLECULE
ZINC00089409
   26    27     0     0     0
SMALL
USER_CHARGES
1-(2-ethylphenyl)pyrrole-2,5-dione
@<TRIPOS>ATOM
      1 C1         -0.0127    1.0858    0.0080 C.3       1 <0>        -0.1521
      2 C2         -0.7288    1.5792    1.2668 C.3       1 <0>        -0.0876
      3 C3          0.0000    1.0800    2.4877 C.ar      1 <0>        -0.0605
      4 C4         -0.4097   -0.0832    3.1101 C.ar      1 <0>        -0.1100
      5 C5          0.2584   -0.5418    4.2303 C.ar      1 <0>        -0.0989
      6 C6          1.3385    0.1620    4.7310 C.ar      1 <0>        -0.1145
      7 C7          1.7525    1.3257    4.1134 C.ar      1 <0>        -0.0956
      8 C8          1.0873    1.7855    2.9846 C.ar      1 <0>         0.1163
      9 N1          1.5093    2.9628    2.3516 N.am      1 <0>        -0.5433
     10 C9          1.0651    4.1996    2.6386 C.2       1 <0>         0.5381
     11 O1          0.2379    4.4790    3.4822 O.2       1 <0>        -0.4435
     12 C10         1.7576    5.1620    1.7536 C.2       1 <0>        -0.1364
     13 C11         2.5807    4.4455    0.9698 C.2       1 <0>        -0.1372
     14 C12         2.4161    3.0279    1.3602 C.2       1 <0>         0.5393
     15 O2          2.9999    2.0837    0.8687 O.2       1 <0>        -0.4415
     16 H1          0.0021   -0.0041    0.0020 H         1 <0>         0.0609
     17 H2          1.0099    1.4631    0.0003 H         1 <0>         0.0582
     18 H3         -0.5399    1.4469   -0.8751 H         1 <0>         0.0618
     19 H4         -0.7436    2.6691    1.2728 H         1 <0>         0.0649
     20 H5         -1.7514    1.2020    1.2746 H         1 <0>         0.0809
     21 H6         -1.2526   -0.6351    2.7211 H         1 <0>         0.1329
     22 H7         -0.0639   -1.4513    4.7154 H         1 <0>         0.1320
     23 H8          1.8585   -0.1987    5.6062 H         1 <0>         0.1334
     24 H9          2.5958    1.8751    4.5051 H         1 <0>         0.1271
     25 H10         1.6237    6.2336    1.7373 H         1 <0>         0.1876
     26 H11         3.2359    4.8302    0.2022 H         1 <0>         0.1876
@<TRIPOS>BOND
     1    1    2 1
     2    1   16 1
     3    1   17 1
     4    1   18 1
     5    2    3 1
     6    2   19 1
     7    2   20 1
     8    3    8 ar
     9    3    4 ar
    10    4    5 ar
    11    4   21 1
    12    5    6 ar
    13    5   22 1
    14    6    7 ar
    15    6   23 1
    16    7    8 ar
    17    7   24 1
    18    8    9 1
    19    9   14 am
    20    9   10 am
    21   10   11 2
    22   10   12 1
    23   12   13 2
    24   12   25 1
    25   13   14 1
    26   13   26 1
    27   14   15 2
@<TRIPOS>MOLECULE
ZINC00098404
   20    21     0     0     0
SMALL
USER_CHARGES
1-(3-fluorophenyl)pyrrole-2,5-dione
@<TRIPOS>ATOM
      1 C1         -0.0507    3.8460    0.0222 C.ar      1 <0>        -0.0665
      2 C2          1.1569    3.1752    0.0076 C.ar      1 <0>        -0.1507
      3 C3          1.1794    1.7871    0.0004 C.ar      1 <0>         0.1594
      4 C4         -0.0126    1.0758    0.0080 C.ar      1 <0>        -0.1789
      5 C5         -1.2192    1.7520    0.0173 C.ar      1 <0>         0.1235
      6 C6         -1.2372    3.1371    0.0298 C.ar      1 <0>        -0.1599
      7 F1         -2.3804    1.0615    0.0191 F         1 <0>        -0.1307
      8 N1          2.4038    1.1050   -0.0140 N.am      1 <0>        -0.5343
      9 C7          2.5463   -0.2326   -0.0157 C.2       1 <0>         0.5385
     10 O1          1.6424   -1.0430   -0.0050 O.2       1 <0>        -0.4368
     11 C8          3.9916   -0.5486   -0.0355 C.2       1 <0>        -0.1313
     12 C9          4.6455    0.6251   -0.0362 C.2       1 <0>        -0.1320
     13 C10         3.6162    1.6878   -0.0224 C.2       1 <0>         0.5411
     14 O2          3.8295    2.8829   -0.0185 O.2       1 <0>        -0.4372
     15 H1         -0.0676    4.9259    0.0275 H         1 <0>         0.1447
     16 H2          2.0833    3.7304    0.0021 H         1 <0>         0.1595
     17 H3          0.0021   -0.0041    0.0020 H         1 <0>         0.1647
     18 H4         -2.1799    3.6640    0.0409 H         1 <0>         0.1425
     19 H5          4.4355   -1.5332   -0.0440 H         1 <0>         0.1920
     20 H6          5.7163    0.7658   -0.0449 H         1 <0>         0.1922
@<TRIPOS>BOND
     1    1    6 ar
     2    1    2 ar
     3    1   15 1
     4    2    3 ar
     5    2   16 1
     6    3    4 ar
     7    3    8 1
     8    4    5 ar
     9    4   17 1
    10    5    6 ar
    11    5    7 1
    12    6   18 1
    13    8   13 am
    14    8    9 am
    15    9   10 2
    16    9   11 1
    17   11   12 2
    18   11   19 1
    19   12   13 1
    20   12   20 1
    21   13   14 2
@<TRIPOS>MOLECULE
ZINC02572930
   38    39     0     0     0
SMALL
USER_CHARGES
1-[2-[2-[2-(2,5-dioxopyrrol-1-yl)ethoxy]ethoxy]ethyl]pyrrole-2,5-dione
@<TRIPOS>ATOM
      1 C1         -0.0161    1.3390    0.0094 C.2       1 <0>        -0.1381
      2 C2          0.0021   -0.0041    0.0020 C.2       1 <0>        -0.1464
      3 C3          1.4242   -0.4123   -0.0138 C.2       1 <0>         0.5401
      4 O1          1.8350   -1.5546   -0.0242 O.2       1 <0>        -0.4615
      5 N1          2.1847    0.6973   -0.0151 N.am      1 <0>        -0.5856
      6 C4          1.3944    1.7858   -0.0017 C.2       1 <0>         0.5390
      7 O2          1.7740    2.9389    0.0005 O.2       1 <0>        -0.4346
      8 C5          3.6495    0.7173   -0.0289 C.3       1 <0>         0.1186
      9 C6          4.1457    0.7319   -1.4762 C.3       1 <0>         0.0431
     10 O3          3.7450    1.9511   -2.1047 O.3       1 <0>        -0.3685
     11 C7          4.1605    2.0665   -3.4671 C.3       1 <0>         0.0664
     12 C8          3.6794    3.4030   -4.0356 C.3       1 <0>         0.0664
     13 O4          4.3304    4.4744   -3.3498 O.3       1 <0>        -0.3686
     14 C9          3.9495    5.7737   -3.8068 C.3       1 <0>         0.0433
     15 C10         4.7041    6.8373   -3.0067 C.3       1 <0>         0.1186
     16 N2          6.1383    6.7329   -3.2868 N.am      1 <0>        -0.5856
     17 C11         7.0101    5.9754   -2.5972 C.2       1 <0>         0.5390
     18 O5          6.7408    5.2704   -1.6462 O.2       1 <0>        -0.4349
     19 C12         8.3524    6.1449   -3.1962 C.2       1 <0>        -0.1380
     20 C13         8.2161    7.0087   -4.2159 C.2       1 <0>        -0.1464
     21 C14         6.7860    7.3845   -4.2695 C.2       1 <0>         0.5401
     22 O6          6.2825    8.1505   -5.0654 O.2       1 <0>        -0.4614
     23 H1         -0.8918    1.9711    0.0172 H         1 <0>         0.1821
     24 H2         -0.8561   -0.6598    0.0070 H         1 <0>         0.1823
     25 H3          4.0057    1.6093    0.4863 H         1 <0>         0.1062
     26 H4          4.0298   -0.1704    0.4765 H         1 <0>         0.1106
     27 H5          5.2331    0.6572   -1.4883 H         1 <0>         0.0710
     28 H6          3.7174   -0.1128   -2.0157 H         1 <0>         0.0542
     29 H7          5.2482    2.0195   -3.5205 H         1 <0>         0.0583
     30 H8          3.7325    1.2495   -4.0479 H         1 <0>         0.0628
     31 H9          3.9184    3.4532   -5.0979 H         1 <0>         0.0628
     32 H10         2.6010    3.4878   -3.9014 H         1 <0>         0.0583
     33 H11         4.1941    5.8730   -4.8643 H         1 <0>         0.0542
     34 H12         2.8767    5.9077   -3.6678 H         1 <0>         0.0710
     35 H13         4.3491    7.8273   -3.2930 H         1 <0>         0.1106
     36 H14         4.5297    6.6827   -1.9419 H         1 <0>         0.1062
     37 H15         9.2665    5.6691   -2.8732 H         1 <0>         0.1821
     38 H16         8.9994    7.3608   -4.8707 H         1 <0>         0.1823
@<TRIPOS>BOND
     1    1    6 1
     2    1    2 2
     3    1   23 1
     4    2    3 1
     5    2   24 1
     6    3    4 2
     7    3    5 am
     8    5    6 am
     9    5    8 1
    10    6    7 2
    11    8    9 1
    12    8   25 1
    13    8   26 1
    14    9   10 1
    15    9   27 1
    16    9   28 1
    17   10   11 1
    18   11   12 1
    19   11   29 1
    20   11   30 1
    21   12   13 1
    22   12   31 1
    23   12   32 1
    24   13   14 1
    25   14   15 1
    26   14   33 1
    27   14   34 1
    28   15   16 1
    29   15   35 1
    30   15   36 1
    31   16   21 am
    32   16   17 am
    33   17   18 2
    34   17   19 1
    35   19   20 2
    36   19   37 1
    37   20   21 1
    38   20   38 1
    39   21   22 2
@<TRIPOS>MOLECULE
ZINC00156949
   28    30     0     0     0
SMALL
USER_CHARGES
1-[4-(2,5-dioxopyrrol-1-yl)phenyl]pyrrole-2,5-dione
@<TRIPOS>ATOM
      1 C1         -2.4258    1.5350    0.0166 C.ar      1 <0>        -0.1155
      2 C2         -3.5646    2.3154    0.0314 C.ar      1 <0>        -0.1155
      3 C3         -3.4575    3.6995    0.0384 C.ar      1 <0>         0.1226
      4 C4         -2.2053    4.2988    0.0359 C.ar      1 <0>        -0.1155
      5 C5         -1.0665    3.5183    0.0264 C.ar      1 <0>        -0.1155
      6 C6         -1.1736    2.1342    0.0194 C.ar      1 <0>         0.1226
      7 N1         -0.0162    1.3410    0.0094 N.am      1 <0>        -0.5326
      8 C7          1.2448    1.8093   -0.0001 C.2       1 <0>         0.5391
      9 O1          1.5677    2.9796    0.0027 O.2       1 <0>        -0.4387
     10 C8          2.1716    0.6559   -0.0152 C.2       1 <0>        -0.1326
     11 C9          1.4121   -0.4523   -0.0139 C.2       1 <0>        -0.1327
     12 C10         0.0021   -0.0041    0.0020 C.2       1 <0>         0.5391
     13 O2         -0.9729   -0.7274    0.0078 O.2       1 <0>        -0.4387
     14 N2         -4.6149    4.4928    0.0475 N.am      1 <0>        -0.5326
     15 C11        -4.6332    5.8378    0.0603 C.2       1 <0>         0.5391
     16 O3         -3.6581    6.5610    0.0660 O.2       1 <0>        -0.4387
     17 C12        -6.0433    6.2861    0.0629 C.2       1 <0>        -0.1326
     18 C13        -6.8028    5.1779    0.0607 C.2       1 <0>        -0.1326
     19 C14        -5.8760    4.0245    0.0508 C.2       1 <0>         0.5391
     20 O4         -6.1988    2.8542    0.0459 O.2       1 <0>        -0.4387
     21 H1         -2.5092    0.4582    0.0067 H         1 <0>         0.1617
     22 H2         -4.5388    1.8492    0.0330 H         1 <0>         0.1617
     23 H3         -2.1219    5.3756    0.0410 H         1 <0>         0.1617
     24 H4         -0.0923    3.9845    0.0241 H         1 <0>         0.1617
     25 H5          3.2508    0.6970   -0.0252 H         1 <0>         0.1911
     26 H6          1.7631   -1.4736   -0.0230 H         1 <0>         0.1911
     27 H7         -6.3943    7.3074    0.0694 H         1 <0>         0.1911
     28 H8         -7.8820    5.1368    0.0656 H         1 <0>         0.1911
@<TRIPOS>BOND
     1    1    6 ar
     2    1    2 ar
     3    1   21 1
     4    2    3 ar
     5    2   22 1
     6    3    4 ar
     7    3   14 1
     8    4    5 ar
     9    4   23 1
    10    5    6 ar
    11    5   24 1
    12    6    7 1
    13    7   12 am
    14    7    8 am
    15    8    9 2
    16    8   10 1
    17   10   11 2
    18   10   25 1
    19   11   12 1
    20   11   26 1
    21   12   13 2
    22   14   19 am
    23   14   15 am
    24   15   16 2
    25   15   17 1
    26   17   18 2
    27   17   27 1
    28   18   19 1
    29   18   28 1
    30   19   20 2
@<TRIPOS>MOLECULE
ZINC00097254
   29    30     0     0     0
SMALL
USER_CHARGES
1-(4-isopropylphenyl)pyrrole-2,5-dione
@<TRIPOS>ATOM
      1 C1          1.4227    1.6154   -0.0028 C.3       1 <0>        -0.1457
      2 C2         -0.0127    1.0858    0.0080 C.3       1 <0>        -0.0576
      3 C3         -0.7527    1.5927   -1.2315 C.3       1 <0>        -0.1457
      4 C4         -0.7181    1.5718    1.2479 C.ar      1 <0>        -0.0811
      5 C5         -0.8549    2.9286    1.4768 C.ar      1 <0>        -0.0937
      6 C6         -1.5052    3.3771    2.6099 C.ar      1 <0>        -0.1352
      7 C7         -2.0119    2.4641    3.5249 C.ar      1 <0>         0.1212
      8 C8         -1.8683    1.1025    3.2949 C.ar      1 <0>        -0.1350
      9 C9         -1.2221    0.6601    2.1572 C.ar      1 <0>        -0.0968
     10 N1         -2.6668    2.9161    4.6788 N.am      1 <0>        -0.5319
     11 C10        -3.2001    2.1258    5.6277 C.2       1 <0>         0.5388
     12 O1         -3.1941    0.9118    5.6265 O.2       1 <0>        -0.4406
     13 C11        -3.7930    2.9872    6.6745 C.2       1 <0>        -0.1340
     14 C12        -3.5899    4.2589    6.2915 C.2       1 <0>        -0.1341
     15 C13        -2.8632    4.2066    5.0038 C.2       1 <0>         0.5389
     16 O2         -2.5043    5.1656    4.3515 O.2       1 <0>        -0.4406
     17 H1          1.9329    1.2639   -0.8996 H         1 <0>         0.0600
     18 H2          1.4079    2.7053    0.0031 H         1 <0>         0.0574
     19 H3          1.9499    1.2543    0.8802 H         1 <0>         0.0564
     20 H4          0.0021   -0.0041    0.0020 H         1 <0>         0.0795
     21 H5         -0.2425    1.2411   -2.1283 H         1 <0>         0.0600
     22 H6         -1.7753    1.2154   -1.2238 H         1 <0>         0.0564
     23 H7         -0.7675    2.6825   -1.2255 H         1 <0>         0.0573
     24 H8         -0.4566    3.6384    0.7669 H         1 <0>         0.1306
     25 H9         -1.6151    4.4369    2.7864 H         1 <0>         0.1519
     26 H10        -2.2611    0.3900    4.0051 H         1 <0>         0.1520
     27 H11        -1.1101   -0.3990    1.9777 H         1 <0>         0.1310
     28 H12        -4.2953    2.6572    7.5718 H         1 <0>         0.1903
     29 H13        -3.8981    5.1481    6.8214 H         1 <0>         0.1903
@<TRIPOS>BOND
     1    1    2 1
     2    1   17 1
     3    1   18 1
     4    1   19 1
     5    2    3 1
     6    2    4 1
     7    2   20 1
     8    3   21 1
     9    3   22 1
    10    3   23 1
    11    4    9 ar
    12    4    5 ar
    13    5    6 ar
    14    5   24 1
    15    6    7 ar
    16    6   25 1
    17    7    8 ar
    18    7   10 1
    19    8    9 ar
    20    8   26 1
    21    9   27 1
    22   10   15 am
    23   10   11 am
    24   11   12 2
    25   11   13 1
    26   13   14 2
    27   13   28 1
    28   14   15 1
    29   14   29 1
    30   15   16 2
@<TRIPOS>MOLECULE
ZINC45298641
   29    30     0     0     0
SMALL
USER_CHARGES

@<TRIPOS>ATOM
      1 C1         -0.0187    1.5258    0.0104 C.3       1 <0>        -0.1474
      2 C2          0.0021   -0.0041    0.0020 C.3       1 <0>        -0.0887
      3 C3          0.7074   -0.4901   -1.2379 C.ar      1 <0>        -0.0690
      4 C4         -0.0105   -0.7185   -2.3969 C.ar      1 <0>        -0.1216
      5 C5          0.6365   -1.1643   -3.5342 C.ar      1 <0>        -0.0917
      6 C6          2.0016   -1.3812   -3.5126 C.ar      1 <0>        -0.1295
      7 C7          2.7197   -1.1520   -2.3539 C.ar      1 <0>        -0.0917
      8 C8          2.0733   -0.7021   -1.2178 C.ar      1 <0>        -0.1216
      9 C9          2.7068   -1.8682   -4.7522 C.3       1 <0>         0.1572
     10 N1          3.1492   -0.7189   -5.5457 N.am      1 <0>        -0.5853
     11 C10         2.4249   -0.1127   -6.5035 C.2       1 <0>         0.5405
     12 O1          1.3043   -0.4249   -6.8508 O.2       1 <0>        -0.4530
     13 C11         3.2256    0.9995   -7.0615 C.2       1 <0>        -0.1409
     14 C12         4.3970    1.0022   -6.4043 C.2       1 <0>        -0.1409
     15 C13         4.3398   -0.1046   -5.4240 C.2       1 <0>         0.5405
     16 O2          5.2190   -0.4083   -4.6438 O.2       1 <0>        -0.4531
     17 H1          1.0039    1.9031    0.0027 H         1 <0>         0.0556
     18 H2         -0.5459    1.8868   -0.8726 H         1 <0>         0.0556
     19 H3         -0.5289    1.8773    0.9072 H         1 <0>         0.0602
     20 H4          0.5293   -0.3651    0.8851 H         1 <0>         0.0736
     21 H5         -1.0205   -0.3814    0.0098 H         1 <0>         0.0736
     22 H6         -1.0770   -0.5490   -2.4137 H         1 <0>         0.1243
     23 H7          0.0755   -1.3434   -4.4395 H         1 <0>         0.1264
     24 H8          3.7861   -1.3218   -2.3370 H         1 <0>         0.1264
     25 H9          2.6349   -0.5194   -0.3136 H         1 <0>         0.1243
     26 H10         3.5716   -2.4671   -4.4667 H         1 <0>         0.1042
     27 H11         2.0229   -2.4766   -5.3440 H         1 <0>         0.1041
     28 H12         2.9259    1.6781   -7.8464 H         1 <0>         0.1840
     29 H13         5.2205    1.6836   -6.5588 H         1 <0>         0.1840
@<TRIPOS>BOND
     1    1    2 1
     2    1   17 1
     3    1   18 1
     4    1   19 1
     5    2    3 1
     6    2   20 1
     7    2   21 1
     8    3    8 ar
     9    3    4 ar
    10    4    5 ar
    11    4   22 1
    12    5    6 ar
    13    5   23 1
    14    6    7 ar
    15    6    9 1
    16    7    8 ar
    17    7   24 1
    18    8   25 1
    19    9   10 1
    20    9   26 1
    21    9   27 1
    22   10   15 am
    23   10   11 am
    24   11   12 2
    25   11   13 1
    26   13   14 2
    27   13   28 1
    28   14   15 1
    29   14   29 1
    30   15   16 2
@<TRIPOS>MOLECULE
ZINC43202741
   62    67     0     0     0
SMALL
USER_CHARGES

@<TRIPOS>ATOM
      1 C1          7.5670   10.7707    3.8481 C.ar      1 <0>        -0.0372
      2 C2          7.6272    9.4738    3.3759 C.ar      1 <0>        -0.1194
      3 C3          8.5176    9.1459    2.3639 C.ar      1 <0>         0.1620
      4 C4          9.3456   10.1218    1.8286 C.ar      1 <0>        -0.1154
      5 C5          9.2816   11.4172    2.3042 C.ar      1 <0>        -0.0380
      6 C6          8.3933   11.7415    3.3129 C.ar      1 <0>        -0.0483
      7 N1          8.3268   13.1303    3.8206 N.pl3     1 <0>         0.0323
      8 O1          7.5504   13.4150    4.7026 O.2       1 <0>        -0.1524
      9 O2          9.0488   13.9800    3.3533 O.3       1 <0>        -0.1520
     10 O3          8.5790    7.8704    1.8979 O.3       1 <0>        -0.3064
     11 C7          7.6147    7.4591    1.0525 C.2       1 <0>         0.6524
     12 O4          6.7564    8.2368    0.6851 O.2       1 <0>        -0.5499
     13 N2          7.6018    6.1847    0.6138 N.am      1 <0>        -0.5848
     14 C8          8.6292    5.2311    1.0539 C.3       1 <0>         0.1075
     15 C9          9.2785    4.6007   -0.1821 C.3       1 <0>        -0.1267
     16 C10         8.1913    3.9887   -1.0685 C.3       1 <0>        -0.1069
     17 C11         7.2322    5.0867   -1.5338 C.3       1 <0>        -0.1373
     18 C12         6.5564    5.7212   -0.3087 C.3       1 <0>         0.1290
     19 C13         8.8391    3.3279   -2.2869 C.3       1 <0>         0.2392
     20 C14         9.8018    2.2630   -1.8283 C.ar      1 <0>        -0.0618
     21 C15         9.3995    1.3246   -0.8961 C.ar      1 <0>        -0.1020
     22 C16        10.2788    0.3455   -0.4727 C.ar      1 <0>        -0.0983
     23 C17        11.5666    0.3030   -0.9818 C.ar      1 <0>         0.0355
     24 C18        11.9719    1.2483   -1.9207 C.ar      1 <0>         0.0319
     25 C19        11.0835    2.2232   -2.3448 C.ar      1 <0>        -0.0713
     26 O5         13.2690    0.9954   -2.2626 O.3       1 <0>        -0.3073
     27 C20        13.7803    0.1390   -1.2241 C.3       1 <0>         0.2127
     28 O6         12.6097   -0.5423   -0.7355 O.3       1 <0>        -0.3082
     29 C21         7.7709    2.7027   -3.1466 C.ar      1 <0>        -0.1022
     30 C22         6.8326    1.8614   -2.5780 C.ar      1 <0>        -0.0985
     31 C23         5.8505    1.2859   -3.3624 C.ar      1 <0>        -0.0964
     32 C24         5.8046    1.5511   -4.7215 C.ar      1 <0>         0.0360
     33 C25         6.7498    2.3986   -5.2942 C.ar      1 <0>         0.0368
     34 C26         7.7278    2.9763   -4.5009 C.ar      1 <0>        -0.0879
     35 O7          6.4932    2.4980   -6.6312 O.3       1 <0>        -0.3071
     36 C27         5.6342    1.3849   -6.9417 C.3       1 <0>         0.2128
     37 O8          4.9559    1.1196   -5.6996 O.3       1 <0>        -0.3076
     38 O9          9.5442    4.3131   -3.0446 O.3       1 <0>        -0.5432
     39 H1          6.8708   11.0274    4.6328 H         1 <0>         0.1630
     40 H2          6.9818    8.7158    3.7945 H         1 <0>         0.1533
     41 H3         10.0399    9.8689    1.0409 H         1 <0>         0.1568
     42 H4          9.9260   12.1773    1.8877 H         1 <0>         0.1642
     43 H5          9.3866    5.7537    1.6381 H         1 <0>         0.0949
     44 H6          8.1686    4.4525    1.6619 H         1 <0>         0.0777
     45 H7          9.8156    5.3666   -0.7416 H         1 <0>         0.0796
     46 H8          9.9746    3.8220    0.1298 H         1 <0>         0.0853
     47 H9          7.6385    3.2403   -0.5007 H         1 <0>         0.0910
     48 H10         7.7885    5.8481   -2.0805 H         1 <0>         0.0744
     49 H11         6.4717    4.6541   -2.1839 H         1 <0>         0.0888
     50 H12         5.9302    4.9817    0.1905 H         1 <0>         0.0807
     51 H13         5.9457    6.5673   -0.6238 H         1 <0>         0.1013
     52 H14         8.3962    1.3567   -0.4977 H         1 <0>         0.1383
     53 H15         9.9618   -0.3863    0.2555 H         1 <0>         0.1391
     54 H16        11.3936    2.9549   -3.0761 H         1 <0>         0.1458
     55 H17        14.4957   -0.5743   -1.6335 H         1 <0>         0.1332
     56 H18        14.2384    0.7302   -0.4312 H         1 <0>         0.0863
     57 H19         6.8673    1.6530   -1.5189 H         1 <0>         0.1388
     58 H20         5.1188    0.6291   -2.9156 H         1 <0>         0.1389
     59 H21         8.4593    3.6374   -4.9416 H         1 <0>         0.1426
     60 H22         4.9192    1.6578   -7.7179 H         1 <0>         0.1344
     61 H23         6.2231    0.5206   -7.2487 H         1 <0>         0.0866
     62 H24         8.9856    5.0311   -3.3726 H         1 <0>         0.3833
@<TRIPOS>BOND
     1    1    6 ar
     2    1    2 ar
     3    1   39 1
     4    2    3 ar
     5    2   40 1
     6    3    4 ar
     7    3   10 1
     8    4    5 ar
     9    4   41 1
    10    5    6 ar
    11    5   42 1
    12    6    7 1
    13    7    8 2
    14    7    9 1
    15   10   11 1
    16   11   12 2
    17   11   13 am
    18   13   18 1
    19   13   14 1
    20   14   15 1
    21   14   43 1
    22   14   44 1
    23   15   16 1
    24   15   45 1
    25   15   46 1
    26   16   17 1
    27   16   19 1
    28   16   47 1
    29   17   18 1
    30   17   48 1
    31   17   49 1
    32   18   50 1
    33   18   51 1
    34   19   20 1
    35   19   29 1
    36   19   38 1
    37   20   25 ar
    38   20   21 ar
    39   21   22 ar
    40   21   52 1
    41   22   23 ar
    42   22   53 1
    43   23   28 1
    44   23   24 ar
    45   24   25 ar
    46   24   26 1
    47   25   54 1
    48   26   27 1
    49   27   28 1
    50   27   55 1
    51   27   56 1
    52   29   34 ar
    53   29   30 ar
    54   30   31 ar
    55   30   57 1
    56   31   32 ar
    57   31   58 1
    58   32   37 1
    59   32   33 ar
    60   33   34 ar
    61   33   35 1
    62   34   59 1
    63   35   36 1
    64   36   37 1
    65   36   60 1
    66   36   61 1
    67   38   62 1
@<TRIPOS>MOLECULE
ZINC00097762
   26    27     0     0     0
SMALL
USER_CHARGES
1-(4-ethylphenyl)pyrrole-2,5-dione
@<TRIPOS>ATOM
      1 C1         -3.0128    4.1227   -1.3895 C.3       1 <0>        -0.1481
      2 C2         -2.5535    3.8668    0.0474 C.3       1 <0>        -0.0861
      3 C3         -1.2371    3.1334    0.0308 C.ar      1 <0>        -0.0870
      4 C4         -1.2176    1.7508    0.0173 C.ar      1 <0>        -0.0968
      5 C5         -0.0126    1.0758    0.0080 C.ar      1 <0>        -0.1348
      6 C6          1.1797    1.7870    0.0004 C.ar      1 <0>         0.1209
      7 C7          1.1569    3.1751    0.0081 C.ar      1 <0>        -0.1348
      8 C8         -0.0512    3.8444    0.0233 C.ar      1 <0>        -0.0968
      9 N1          2.4042    1.1048   -0.0155 N.am      1 <0>        -0.5321
     10 C9          2.5467   -0.2328   -0.0187 C.2       1 <0>         0.5389
     11 O1          1.6428   -1.0431   -0.0084 O.2       1 <0>        -0.4406
     12 C10         3.9920   -0.5487   -0.0405 C.2       1 <0>        -0.1340
     13 C11         4.6459    0.6250   -0.0401 C.2       1 <0>        -0.1339
     14 C12         3.6165    1.6877   -0.0240 C.2       1 <0>         0.5389
     15 O2          3.8298    2.8828   -0.0196 O.2       1 <0>        -0.4406
     16 H1         -3.9650    4.6532   -1.3775 H         1 <0>         0.0598
     17 H2         -2.2672    4.7262   -1.9072 H         1 <0>         0.0561
     18 H3         -3.1335    3.1712   -1.9073 H         1 <0>         0.0561
     19 H4         -3.2991    3.2633    0.5651 H         1 <0>         0.0738
     20 H5         -2.4328    4.8183    0.5652 H         1 <0>         0.0738
     21 H6         -2.1455    1.1981    0.0187 H         1 <0>         0.1311
     22 H7          0.0021   -0.0041    0.0020 H         1 <0>         0.1522
     23 H8          2.0829    3.7309    0.0019 H         1 <0>         0.1522
     24 H9         -0.0696    4.9243    0.0289 H         1 <0>         0.1311
     25 H10         4.4359   -1.5332   -0.0505 H         1 <0>         0.1904
     26 H11         5.7166    0.7657   -0.0495 H         1 <0>         0.1904
@<TRIPOS>BOND
     1    1    2 1
     2    1   16 1
     3    1   17 1
     4    1   18 1
     5    2    3 1
     6    2   19 1
     7    2   20 1
     8    3    8 ar
     9    3    4 ar
    10    4    5 ar
    11    4   21 1
    12    5    6 ar
    13    5   22 1
    14    6    7 ar
    15    6    9 1
    16    7    8 ar
    17    7   23 1
    18    8   24 1
    19    9   14 am
    20    9   10 am
    21   10   11 2
    22   10   12 1
    23   12   13 2
    24   12   25 1
    25   13   14 1
    26   13   26 1
    27   14   15 2
@<TRIPOS>MOLECULE
ZINC00114942
   23    24     0     0     0
SMALL
USER_CHARGES
1-(o-tolyl)pyrrole-2,5-dione
@<TRIPOS>ATOM
      1 C1          3.6839    2.1701   -0.0210 C.3       1 <0>        -0.1175
      2 C2          2.3861    1.4042   -0.0132 C.ar      1 <0>        -0.0645
      3 C3          2.3984    0.0228   -0.0212 C.ar      1 <0>        -0.1121
      4 C4          1.2082   -0.6806   -0.0136 C.ar      1 <0>        -0.0982
      5 C5          0.0021   -0.0041    0.0020 C.ar      1 <0>        -0.1154
      6 C6         -0.0167    1.3768    0.0096 C.ar      1 <0>        -0.0945
      7 C7          1.1771    2.0860    0.0020 C.ar      1 <0>         0.1130
      8 N1          1.1613    3.4875    0.0092 N.am      1 <0>        -0.5444
      9 C8          1.1481    4.2686   -1.0859 C.2       1 <0>         0.5391
     10 O1          1.1485    3.8791   -2.2358 O.2       1 <0>        -0.4437
     11 C9          1.1303    5.6827   -0.6512 C.2       1 <0>        -0.1359
     12 C10         1.1429    5.6760    0.6923 C.2       1 <0>        -0.1364
     13 C11         1.1629    4.2574    1.1123 C.2       1 <0>         0.5383
     14 O2          1.1787    3.8563    2.2581 O.2       1 <0>        -0.4435
     15 H1          3.9872    2.3606   -1.0504 H         1 <0>         0.0771
     16 H2          3.5493    3.1183    0.4996 H         1 <0>         0.0592
     17 H3          4.4539    1.5854    0.4824 H         1 <0>         0.0773
     18 H4          3.3388   -0.5082   -0.0330 H         1 <0>         0.1335
     19 H5          1.2204   -1.7605   -0.0195 H         1 <0>         0.1322
     20 H6         -0.9261   -0.5562    0.0079 H         1 <0>         0.1336
     21 H7         -0.9589    1.9046    0.0169 H         1 <0>         0.1272
     22 H8          1.1145    6.5529   -1.2908 H         1 <0>         0.1877
     23 H9          1.1395    6.5396    1.3407 H         1 <0>         0.1877
@<TRIPOS>BOND
     1    1    2 1
     2    1   15 1
     3    1   16 1
     4    1   17 1
     5    2    7 ar
     6    2    3 ar
     7    3    4 ar
     8    3   18 1
     9    4    5 ar
    10    4   19 1
    11    5    6 ar
    12    5   20 1
    13    6    7 ar
    14    6   21 1
    15    7    8 1
    16    8   13 am
    17    8    9 am
    18    9   10 2
    19    9   11 1
    20   11   12 2
    21   11   22 1
    22   12   13 1
    23   12   23 1
    24   13   14 2
@<TRIPOS>MOLECULE
ZINC00096691
   20    21     0     0     0
SMALL
USER_CHARGES
1-(3-chlorophenyl)pyrrole-2,5-dione
@<TRIPOS>ATOM
      1 C1         -0.0509    3.8453    0.0233 C.ar      1 <0>        -0.0833
      2 C2          1.1570    3.1751    0.0081 C.ar      1 <0>        -0.1356
      3 C3          1.1797    1.7871    0.0004 C.ar      1 <0>         0.1422
      4 C4         -0.0126    1.0758    0.0080 C.ar      1 <0>        -0.1339
      5 C5         -1.2183    1.7514    0.0173 C.ar      1 <0>        -0.0149
      6 C6         -1.2371    3.1354    0.0303 C.ar      1 <0>        -0.1164
      7 Cl1        -2.7101    0.8636    0.0190 Cl        1 <0>        -0.0554
      8 N1          2.4041    1.1050   -0.0145 N.am      1 <0>        -0.5336
      9 C7          2.5466   -0.2326   -0.0168 C.2       1 <0>         0.5382
     10 O1          1.6427   -1.0430   -0.0058 O.2       1 <0>        -0.4365
     11 C8          3.9919   -0.5486   -0.0378 C.2       1 <0>        -0.1313
     12 C9          4.6458    0.6251   -0.0380 C.2       1 <0>        -0.1324
     13 C10         3.6164    1.6878   -0.0229 C.2       1 <0>         0.5408
     14 O2          3.8297    2.8829   -0.0183 O.2       1 <0>        -0.4383
     15 H1         -0.0686    4.9251    0.0293 H         1 <0>         0.1438
     16 H2          2.0831    3.7306    0.0026 H         1 <0>         0.1590
     17 H3          0.0021   -0.0041    0.0020 H         1 <0>         0.1635
     18 H4         -2.1801    3.6616    0.0415 H         1 <0>         0.1404
     19 H5          4.4358   -1.5331   -0.0470 H         1 <0>         0.1919
     20 H6          5.7165    0.7658   -0.0473 H         1 <0>         0.1919
@<TRIPOS>BOND
     1    1    6 ar
     2    1    2 ar
     3    1   15 1
     4    2    3 ar
     5    2   16 1
     6    3    4 ar
     7    3    8 1
     8    4    5 ar
     9    4   17 1
    10    5    6 ar
    11    5    7 1
    12    6   18 1
    13    8   13 am
    14    8    9 am
    15    9   10 2
    16    9   11 1
    17   11   12 2
    18   11   19 1
    19   12   13 1
    20   12   20 1
    21   13   14 2
@<TRIPOS>MOLECULE
ZINC00098654
   20    21     0     0     0
SMALL
USER_CHARGES
1-(2-bromophenyl)pyrrole-2,5-dione
@<TRIPOS>ATOM
      1 C1          2.3796    1.4156   -0.0130 C.ar      1 <0>        -0.0933
      2 C2          1.1704    2.0866    0.0021 C.ar      1 <0>        -0.0967
      3 C3         -0.0167    1.3780    0.0096 C.ar      1 <0>        -0.0827
      4 C4          0.0021   -0.0041    0.0020 C.ar      1 <0>        -0.0774
      5 C5          1.2151   -0.6803   -0.0132 C.ar      1 <0>         0.1455
      6 C6          2.4050    0.0347   -0.0207 C.ar      1 <0>        -0.0926
      7 N1          1.2379   -2.0821   -0.0214 N.am      1 <0>        -0.5503
      8 C7          1.2343   -2.8513   -1.1250 C.2       1 <0>         0.5414
      9 O1          1.2117   -2.4496   -2.2703 O.2       1 <0>        -0.4397
     10 C8          1.2658   -4.2700   -0.7060 C.2       1 <0>        -0.1336
     11 C9          1.2788   -4.2776    0.6375 C.2       1 <0>        -0.1336
     12 C10         1.2607   -2.8638    1.0732 C.2       1 <0>         0.5413
     13 O2          1.2653   -2.4750    2.2233 O.2       1 <0>        -0.4398
     14 Br1        -1.6218   -0.9729    0.0117 Br        1 <0>        -0.0333
     15 H1          3.3051    1.9721   -0.0192 H         1 <0>         0.1422
     16 H2          1.1534    3.1665    0.0080 H         1 <0>         0.1425
     17 H3         -0.9595    1.9047    0.0169 H         1 <0>         0.1442
     18 H4          3.3498   -0.4884   -0.0321 H         1 <0>         0.1375
     19 H5          1.2731   -5.1332   -1.3550 H         1 <0>         0.1892
     20 H6          1.2987   -5.1482    1.2764 H         1 <0>         0.1892
@<TRIPOS>BOND
     1    1    6 ar
     2    1    2 ar
     3    1   15 1
     4    2    3 ar
     5    2   16 1
     6    3    4 ar
     7    3   17 1
     8    4    5 ar
     9    4   14 1
    10    5    6 ar
    11    5    7 1
    12    6   18 1
    13    7   12 am
    14    7    8 am
    15    8    9 2
    16    8   10 1
    17   10   11 2
    18   10   19 1
    19   11   12 1
    20   11   20 1
    21   12   13 2
@<TRIPOS>MOLECULE
ZINC03885905
   20    21     0     0     0
SMALL
USER_CHARGES
1-(2-fluorophenyl)pyrrole-2,5-dione
@<TRIPOS>ATOM
      1 C1          2.3796    1.4163   -0.0131 C.ar      1 <0>        -0.1189
      2 C2          1.1707    2.0873    0.0021 C.ar      1 <0>        -0.0725
      3 C3         -0.0167    1.3790    0.0096 C.ar      1 <0>        -0.1451
      4 C4          0.0021   -0.0041    0.0020 C.ar      1 <0>         0.1188
      5 C5          1.2165   -0.6804   -0.0133 C.ar      1 <0>         0.0825
      6 C6          2.4055    0.0351   -0.0208 C.ar      1 <0>        -0.0703
      7 N1          1.2399   -2.0830   -0.0215 N.am      1 <0>        -0.5470
      8 C7          1.2367   -2.8522   -1.1251 C.2       1 <0>         0.5405
      9 O1          1.2138   -2.4505   -2.2704 O.2       1 <0>        -0.4421
     10 C8          1.2688   -4.2709   -0.7060 C.2       1 <0>        -0.1330
     11 C9          1.2820   -4.2786    0.6374 C.2       1 <0>        -0.1330
     12 C10         1.2632   -2.8647    1.0731 C.2       1 <0>         0.5405
     13 O2          1.2680   -2.4759    2.2232 O.2       1 <0>        -0.4422
     14 F1         -1.1580   -0.6965    0.0090 F         1 <0>        -0.1296
     15 H1          3.3051    1.9729   -0.0190 H         1 <0>         0.1426
     16 H2          1.1539    3.1672    0.0077 H         1 <0>         0.1438
     17 H3         -0.9594    1.9059    0.0170 H         1 <0>         0.1475
     18 H4          3.3505   -0.4876   -0.0323 H         1 <0>         0.1385
     19 H5          1.2766   -5.1341   -1.3551 H         1 <0>         0.1896
     20 H6          1.3020   -5.1491    1.2763 H         1 <0>         0.1896
@<TRIPOS>BOND
     1    1    6 ar
     2    1    2 ar
     3    1   15 1
     4    2    3 ar
     5    2   16 1
     6    3    4 ar
     7    3   17 1
     8    4    5 ar
     9    4   14 1
    10    5    6 ar
    11    5    7 1
    12    6   18 1
    13    7   12 am
    14    7    8 am
    15    8    9 2
    16    8   10 1
    17   10   11 2
    18   10   19 1
    19   11   12 1
    20   11   20 1
    21   12   13 2
@<TRIPOS>MOLECULE
ZINC00014362
   20    21     0     0     0
SMALL
USER_CHARGES
1-(4-iodophenyl)pyrrole-2,5-dione
@<TRIPOS>ATOM
      1 C1         -0.0126    1.0758    0.0080 C.ar      1 <0>        -0.1354
      2 C2         -1.2176    1.7507    0.0173 C.ar      1 <0>        -0.0619
      3 C3         -1.2370    3.1338    0.0308 C.ar      1 <0>        -0.1103
      4 C4         -0.0504    3.8448    0.0233 C.ar      1 <0>        -0.0619
      5 C5          1.1573    3.1750    0.0081 C.ar      1 <0>        -0.1354
      6 C6          1.1798    1.7869    0.0004 C.ar      1 <0>         0.1486
      7 N1          2.4043    1.1045   -0.0155 N.am      1 <0>        -0.5351
      8 C7          2.5465   -0.2332   -0.0187 C.2       1 <0>         0.5398
      9 O1          1.6425   -1.0434   -0.0090 O.2       1 <0>        -0.4372
     10 C8          3.9918   -0.5494   -0.0391 C.2       1 <0>        -0.1321
     11 C9          4.6459    0.6242   -0.0392 C.2       1 <0>        -0.1321
     12 C10         3.6167    1.6871   -0.0240 C.2       1 <0>         0.5398
     13 O2          3.8302    2.8822   -0.0202 O.2       1 <0>        -0.4373
     14 I1         -3.0669    4.1536    0.0531 I         1 <0>        -0.0335
     15 H1          0.0021   -0.0041    0.0020 H         1 <0>         0.1607
     16 H2         -2.1455    1.1981    0.0187 H         1 <0>         0.1394
     17 H3         -0.0685    4.9246    0.0289 H         1 <0>         0.1394
     18 H4          2.0835    3.7306    0.0019 H         1 <0>         0.1607
     19 H5          4.4355   -1.5340   -0.0484 H         1 <0>         0.1919
     20 H6          5.7167    0.7647   -0.0487 H         1 <0>         0.1919
@<TRIPOS>BOND
     1    1    6 ar
     2    1    2 ar
     3    1   15 1
     4    2    3 ar
     5    2   16 1
     6    3    4 ar
     7    3   14 1
     8    4    5 ar
     9    4   17 1
    10    5    6 ar
    11    5   18 1
    12    6    7 1
    13    7   12 am
    14    7    8 am
    15    8    9 2
    16    8   10 1
    17   10   11 2
    18   10   19 1
    19   11   12 1
    20   11   20 1
    21   12   13 2
@<TRIPOS>MOLECULE
ZINC00067093
   20    21     0     0     0
SMALL
USER_CHARGES
1-(4-fluorophenyl)pyrrole-2,5-dione
@<TRIPOS>ATOM
      1 C1         -0.0126    1.0758    0.0080 C.ar      1 <0>        -0.1095
      2 C2         -1.2177    1.7505    0.0173 C.ar      1 <0>        -0.1309
      3 C3         -1.2370    3.1350    0.0308 C.ar      1 <0>         0.0942
      4 C4         -0.0486    3.8458    0.0233 C.ar      1 <0>        -0.1309
      5 C5          1.1584    3.1745    0.0081 C.ar      1 <0>        -0.1095
      6 C6          1.1797    1.7866    0.0004 C.ar      1 <0>         0.1174
      7 N1          2.4046    1.1031   -0.0155 N.am      1 <0>        -0.5328
      8 C7          2.5462   -0.2346   -0.0187 C.2       1 <0>         0.5399
      9 O1          1.6418   -1.0443   -0.0085 O.2       1 <0>        -0.4392
     10 C8          3.9914   -0.5515   -0.0405 C.2       1 <0>        -0.1324
     11 C9          4.6460    0.6218   -0.0401 C.2       1 <0>        -0.1324
     12 C10         3.6173    1.6852   -0.0240 C.2       1 <0>         0.5399
     13 O2          3.8314    2.8801   -0.0192 O.2       1 <0>        -0.4392
     14 F1         -2.4167    3.7933    0.0452 F         1 <0>        -0.1346
     15 H1          0.0021   -0.0041    0.0020 H         1 <0>         0.1624
     16 H2         -2.1456    1.1979    0.0183 H         1 <0>         0.1463
     17 H3         -0.0655    4.9256    0.0289 H         1 <0>         0.1463
     18 H4          2.0851    3.7292    0.0019 H         1 <0>         0.1624
     19 H5          4.4346   -1.5363   -0.0510 H         1 <0>         0.1915
     20 H6          5.7169    0.7617   -0.0493 H         1 <0>         0.1915
@<TRIPOS>BOND
     1    1    6 ar
     2    1    2 ar
     3    1   15 1
     4    2    3 ar
     5    2   16 1
     6    3    4 ar
     7    3   14 1
     8    4    5 ar
     9    4   17 1
    10    5    6 ar
    11    5   18 1
    12    6    7 1
    13    7   12 am
    14    7    8 am
    15    8    9 2
    16    8   10 1
    17   10   11 2
    18   10   19 1
    19   11   12 1
    20   11   20 1
    21   12   13 2
@<TRIPOS>MOLECULE
ZINC00097995
   20    21     0     0     0
SMALL
USER_CHARGES
1-(3-bromophenyl)pyrrole-2,5-dione
@<TRIPOS>ATOM
      1 C1         -0.0510    3.8451    0.0233 C.ar      1 <0>        -0.0899
      2 C2          1.1570    3.1750    0.0081 C.ar      1 <0>        -0.1247
      3 C3          1.1797    1.7871    0.0004 C.ar      1 <0>         0.1355
      4 C4         -0.0126    1.0758    0.0080 C.ar      1 <0>        -0.1136
      5 C5         -1.2181    1.7512    0.0173 C.ar      1 <0>        -0.0717
      6 C6         -1.2370    3.1350    0.0308 C.ar      1 <0>        -0.0970
      7 Br1        -2.8430    0.7840    0.0197 Br        1 <0>        -0.0348
      8 N1          2.4041    1.1050   -0.0145 N.am      1 <0>        -0.5337
      9 C7          2.5466   -0.2327   -0.0168 C.2       1 <0>         0.5380
     10 O1          1.6428   -1.0430   -0.0058 O.2       1 <0>        -0.4363
     11 C8          3.9919   -0.5486   -0.0378 C.2       1 <0>        -0.1312
     12 C9          4.6458    0.6251   -0.0380 C.2       1 <0>        -0.1325
     13 C10         3.6165    1.6878   -0.0229 C.2       1 <0>         0.5408
     14 O2          3.8298    2.8829   -0.0183 O.2       1 <0>        -0.4387
     15 H1         -0.0688    4.9249    0.0289 H         1 <0>         0.1436
     16 H2          2.0831    3.7307    0.0026 H         1 <0>         0.1593
     17 H3          0.0021   -0.0041    0.0020 H         1 <0>         0.1632
     18 H4         -2.1802    3.6610    0.0423 H         1 <0>         0.1399
     19 H5          4.4358   -1.5331   -0.0476 H         1 <0>         0.1919
     20 H6          5.7166    0.7658   -0.0468 H         1 <0>         0.1920
@<TRIPOS>BOND
     1    1    6 ar
     2    1    2 ar
     3    1   15 1
     4    2    3 ar
     5    2   16 1
     6    3    4 ar
     7    3    8 1
     8    4    5 ar
     9    4   17 1
    10    5    6 ar
    11    5    7 1
    12    6   18 1
    13    8   13 am
    14    8    9 am
    15    9   10 2
    16    9   11 1
    17   11   12 2
    18   11   19 1
    19   12   13 1
    20   12   20 1
    21   13   14 2
@<TRIPOS>MOLECULE
ZINC32136784
   32    33     0     0     0
SMALL
USER_CHARGES
pyrrolidine-1-carbothioylsulfanyl pyrrolidine-1-carbodithioate
@<TRIPOS>ATOM
      1 C1         -0.0190    1.5473    0.0105 C.3       1 <0>        -0.1353
      2 C2          0.0021   -0.0041    0.0020 C.3       1 <0>        -0.1318
      3 C3          1.2227   -0.3283   -0.8849 C.3       1 <0>         0.0968
      4 N1          2.0982    0.8527   -0.8713 N.pl3     1 <0>        -0.4953
      5 C4          1.4942    1.8790   -0.0021 C.3       1 <0>         0.0608
      6 C5          3.2600    0.9771   -1.5430 C.2       1 <0>         0.2830
      7 S1          3.8281   -0.3116   -2.5164 S.2       1 <0>        -0.5330
      8 S2          4.1677    2.4236   -1.4228 S.3       1 <0>         0.1097
      9 S3          5.7557    1.9523   -2.6474 S.3       1 <0>         0.1075
     10 C6          5.0964    2.3821   -4.1678 C.2       1 <0>         0.2836
     11 S4          3.5056    3.0071   -4.2652 S.2       1 <0>        -0.5357
     12 N2          5.8298    2.2284   -5.2881 N.pl3     1 <0>        -0.5013
     13 C7          7.2049    1.7117   -5.3478 C.3       1 <0>         0.0635
     14 C8          7.6407    1.7384   -6.8279 C.3       1 <0>        -0.1318
     15 C9          6.6973    2.8037   -7.4465 C.3       1 <0>        -0.1298
     16 C10         5.3883    2.5566   -6.6558 C.3       1 <0>         0.0929
     17 H1         -0.4796    1.9705    0.9153 H         1 <0>         0.0960
     18 H2         -0.4967    1.9801   -0.8808 H         1 <0>         0.0840
     19 H3          0.1164   -0.3749    1.0313 H         1 <0>         0.0853
     20 H4         -0.9406   -0.3813   -0.4210 H         1 <0>         0.0953
     21 H5          1.7492   -1.2042   -0.4780 H         1 <0>         0.0958
     22 H6          0.8845   -0.5467   -1.9086 H         1 <0>         0.0965
     23 H7          1.6441    2.8922   -0.4032 H         1 <0>         0.0987
     24 H8          1.8892    1.8284    1.0233 H         1 <0>         0.0952
     25 H9          7.8631    2.3498   -4.7398 H         1 <0>         0.0890
     26 H10         7.2277    0.6837   -4.9569 H         1 <0>         0.0950
     27 H11         8.7014    2.0226   -6.8927 H         1 <0>         0.0937
     28 H12         7.5008    0.7407   -7.2694 H         1 <0>         0.0858
     29 H13         7.1200    3.8062   -7.2844 H         1 <0>         0.0847
     30 H14         6.5941    2.6195   -8.5260 H         1 <0>         0.0990
     31 H15         4.8160    1.7128   -7.0687 H         1 <0>         0.0946
     32 H16         4.7521    3.4536   -6.6304 H         1 <0>         0.1074
@<TRIPOS>BOND
     1    1    5 1
     2    1    2 1
     3    1   17 1
     4    1   18 1
     5    2    3 1
     6    2   19 1
     7    2   20 1
     8    3    4 1
     9    3   21 1
    10    3   22 1
    11    4    5 1
    12    4    6 1
    13    5   23 1
    14    5   24 1
    15    6    7 2
    16    6    8 1
    17    8    9 1
    18    9   10 1
    19   10   11 2
    20   10   12 1
    21   12   16 1
    22   12   13 1
    23   13   14 1
    24   13   25 1
    25   13   26 1
    26   14   15 1
    27   14   27 1
    28   14   28 1
    29   15   16 1
    30   15   29 1
    31   15   30 1
    32   16   31 1
    33   16   32 1
@<TRIPOS>MOLECULE
ZINC13520725
   43    45     0     0     0
SMALL
USER_CHARGES
cyclohexyl N-(3-phenylphenyl)carbamate
@<TRIPOS>ATOM
      1 C1          0.6155    1.1878   -3.0006 C.ar      1 <0>        -0.1175
      2 C2         -0.4340    0.6998   -2.2431 C.ar      1 <0>        -0.1173
      3 C3         -0.2790   -0.4595   -1.5105 C.ar      1 <0>        -0.1085
      4 C4          0.9375   -1.1386   -1.5348 C.ar      1 <0>        -0.0464
      5 C5          1.9913   -0.6425   -2.2996 C.ar      1 <0>        -0.1104
      6 C6          1.8252    0.5177   -3.0284 C.ar      1 <0>        -0.1176
      7 C7          1.1102   -2.3853   -0.7487 C.ar      1 <0>        -0.0243
      8 C8          0.0575   -2.8776    0.0210 C.ar      1 <0>        -0.1221
      9 C9          0.2180   -4.0404    0.7475 C.ar      1 <0>        -0.0943
     10 C10         1.4245   -4.7143    0.7231 C.ar      1 <0>        -0.1182
     11 C11         2.4809   -4.2278   -0.0367 C.ar      1 <0>         0.1631
     12 C12         2.3258   -3.0632   -0.7735 C.ar      1 <0>        -0.1336
     13 N1          3.7014   -4.9125   -0.0582 N.am      1 <0>        -0.6522
     14 C13         3.7217   -6.2568    0.0365 C.2       1 <0>         0.6492
     15 O1          2.6793   -6.8812    0.0432 O.2       1 <0>        -0.5503
     16 O2          4.8971   -6.9079    0.1237 O.3       1 <0>        -0.3616
     17 C14         4.8430   -8.3555    0.2230 C.3       1 <0>         0.1089
     18 C15         4.7730   -8.7634    1.6960 C.3       1 <0>        -0.1366
     19 C16         4.7160  -10.2887    1.8006 C.3       1 <0>        -0.1163
     20 C17         5.9700  -10.8909    1.1637 C.3       1 <0>        -0.1253
     21 C18         6.0400  -10.4830   -0.3093 C.3       1 <0>        -0.1164
     22 C19         6.0970   -8.9576   -0.4139 C.3       1 <0>        -0.1168
     23 H1          0.4899    2.0953   -3.5725 H         1 <0>         0.1235
     24 H2         -1.3778    1.2246   -2.2285 H         1 <0>         0.1254
     25 H3         -1.0989   -0.8394   -0.9191 H         1 <0>         0.1268
     26 H4          2.9363   -1.1648   -2.3217 H         1 <0>         0.1243
     27 H5          2.6413    0.9029   -3.6218 H         1 <0>         0.1248
     28 H6         -0.8853   -2.3514    0.0457 H         1 <0>         0.1289
     29 H7         -0.6001   -4.4222    1.3403 H         1 <0>         0.1311
     30 H8          1.5464   -5.6214    1.2965 H         1 <0>         0.1368
     31 H9          3.1459   -2.6831   -1.3646 H         1 <0>         0.1310
     32 H10         4.5327   -4.4196   -0.1413 H         1 <0>         0.4178
     33 H11         3.9588   -8.7226   -0.2981 H         1 <0>         0.0902
     34 H12         5.6572   -8.3963    2.2170 H         1 <0>         0.0730
     35 H13         3.8795   -8.3344    2.1497 H         1 <0>         0.0696
     36 H14         3.8318  -10.6559    1.2795 H         1 <0>         0.0667
     37 H15         4.6661  -10.5793    2.8500 H         1 <0>         0.0708
     38 H16         5.9294  -11.9776    1.2383 H         1 <0>         0.0681
     39 H17         6.8542  -10.5237    1.6848 H         1 <0>         0.0658
     40 H18         5.1558  -10.8501   -0.8303 H         1 <0>         0.0669
     41 H19         6.9334  -10.9119   -0.7630 H         1 <0>         0.0742
     42 H20         6.1469   -8.6670   -1.4633 H         1 <0>         0.0727
     43 H21         6.9812   -8.5905    0.1072 H         1 <0>         0.0760
@<TRIPOS>BOND
     1    1    6 ar
     2    1    2 ar
     3    1   23 1
     4    2    3 ar
     5    2   24 1
     6    3    4 ar
     7    3   25 1
     8    4    5 ar
     9    4    7 1
    10    5    6 ar
    11    5   26 1
    12    6   27 1
    13    7   12 ar
    14    7    8 ar
    15    8    9 ar
    16    8   28 1
    17    9   10 ar
    18    9   29 1
    19   10   11 ar
    20   10   30 1
    21   11   12 ar
    22   11   13 1
    23   12   31 1
    24   13   14 am
    25   13   32 1
    26   14   15 2
    27   14   16 1
    28   16   17 1
    29   17   22 1
    30   17   18 1
    31   17   33 1
    32   18   19 1
    33   18   34 1
    34   18   35 1
    35   19   20 1
    36   19   36 1
    37   19   37 1
    38   20   21 1
    39   20   38 1
    40   20   39 1
    41   21   22 1
    42   21   40 1
    43   21   41 1
    44   22   42 1
    45   22   43 1
@<TRIPOS>MOLECULE
ZINC01529266
   36    35     0     0     0
SMALL
USER_CHARGES

@<TRIPOS>ATOM
      1 C1         -0.0187    1.5258    0.0104 C.3       1 <0>        -0.1639
      2 C2          0.0021   -0.0041    0.0020 C.3       1 <0>         0.0903
      3 N1          0.6878   -0.4765   -1.2033 N.pl3     1 <0>        -0.4935
      4 C3          2.1353   -0.7012   -1.1821 C.3       1 <0>         0.0777
      5 C4          2.4212   -2.1448   -0.7635 C.3       1 <0>        -0.1720
      6 C5         -0.0130   -0.7045   -2.3317 C.2       1 <0>         0.2405
      7 S1         -1.7046   -0.4419   -2.3566 S.2       1 <0>        -0.5437
      8 S2          0.7639   -1.2398   -3.6975 S.3       1 <0>         0.1422
      9 S3         -0.7358   -1.4179   -5.0837 S.3       1 <0>         0.1353
     10 C6         -0.8805    0.1096   -5.7172 C.2       1 <0>         0.2417
     11 S4          0.1306    1.3702   -5.1518 S.2       1 <0>        -0.5433
     12 N2         -1.7939    0.3575   -6.6768 N.pl3     1 <0>        -0.4949
     13 C7         -2.6591   -0.7212   -7.1607 C.3       1 <0>         0.0835
     14 C8         -3.9346   -0.7692   -6.3170 C.3       1 <0>        -0.1739
     15 C9         -1.9216    1.7055   -7.2359 C.3       1 <0>         0.0895
     16 C10        -0.9917    1.8473   -8.4426 C.3       1 <0>        -0.1639
     17 H1          1.0039    1.9031    0.0027 H         1 <0>         0.0560
     18 H2         -0.5459    1.8868   -0.8726 H         1 <0>         0.0711
     19 H3         -0.5289    1.8773    0.9072 H         1 <0>         0.0768
     20 H4          0.5293   -0.3651    0.8851 H         1 <0>         0.0897
     21 H5         -1.0205   -0.3814    0.0098 H         1 <0>         0.1138
     22 H6          2.5453   -0.5232   -2.1762 H         1 <0>         0.0981
     23 H7          2.5986   -0.0180   -0.4703 H         1 <0>         0.1037
     24 H8          3.4982   -2.3119   -0.7477 H         1 <0>         0.0839
     25 H9          2.0113   -2.3228    0.2307 H         1 <0>         0.0670
     26 H10         1.9579   -2.8280   -1.4752 H         1 <0>         0.0654
     27 H11        -2.9196   -0.5381   -8.2031 H         1 <0>         0.1026
     28 H12        -2.1336   -1.6727   -7.0792 H         1 <0>         0.0914
     29 H13        -4.5783   -1.5718   -6.6771 H         1 <0>         0.0813
     30 H14        -3.6741   -0.9524   -5.2746 H         1 <0>         0.0753
     31 H15        -4.4601    0.1822   -6.3985 H         1 <0>         0.0649
     32 H16        -2.9520    1.8727   -7.5496 H         1 <0>         0.0902
     33 H17        -1.6486    2.4404   -6.4786 H         1 <0>         0.1136
     34 H18         0.0387    1.6802   -8.1289 H         1 <0>         0.0695
     35 H19        -1.2647    1.1125   -9.2000 H         1 <0>         0.0561
     36 H20        -1.0867    2.8503   -8.8587 H         1 <0>         0.0779
@<TRIPOS>BOND
     1    1    2 1
     2    1   17 1
     3    1   18 1
     4    1   19 1
     5    2    3 1
     6    2   20 1
     7    2   21 1
     8    3    4 1
     9    3    6 1
    10    4    5 1
    11    4   22 1
    12    4   23 1
    13    5   24 1
    14    5   25 1
    15    5   26 1
    16    6    7 2
    17    6    8 1
    18    8    9 1
    19    9   10 1
    20   10   11 2
    21   10   12 1
    22   12   13 1
    23   12   15 1
    24   13   14 1
    25   13   27 1
    26   13   28 1
    27   14   29 1
    28   14   30 1
    29   14   31 1
    30   15   16 1
    31   15   32 1
    32   15   33 1
    33   16   34 1
    34   16   35 1
    35   16   36 1
