@<TRIPOS>MOLECULE
ZINC03815700
   43    46     0     0     0
SMALL
USER_CHARGES

@<TRIPOS>ATOM
      1 C1         -0.4417    2.5108    0.1274 C.3       1 <0>        -0.4980
      2 S1         -0.2285    0.7138    0.0013 S.o       1 <0>         1.3317
      3 O1          0.3381    0.2184    1.2066 O.2       1 <0>        -0.8500
      4 C2         -1.8753    0.0872    0.0153 C.ar      1 <0>        -0.4539
      5 C3         -2.4807   -0.2316    1.2179 C.ar      1 <0>        -0.0505
      6 C4         -3.7698   -0.7226    1.2359 C.ar      1 <0>        -0.0905
      7 C5         -4.4635   -0.8973    0.0374 C.ar      1 <0>         0.0183
      8 C6         -3.8471   -0.5733   -1.1722 C.ar      1 <0>        -0.1282
      9 C7         -2.5593   -0.0786   -1.1759 C.ar      1 <0>        -0.0372
     10 C8         -5.8450   -1.4235    0.0492 C.2       1 <0>         0.2539
     11 N1         -6.6187   -1.6414   -1.0552 N.pl3     1 <0>        -0.5494
     12 H1         -6.3641   -1.4808   -1.9773 H         1 <0>         0.4258
     13 C9         -7.8254   -2.1307   -0.6157 C.2       1 <0>         0.0559
     14 C10        -7.7421   -2.1946    0.7659 C.2       1 <0>         0.0600
     15 N2         -6.5217   -1.7612    1.1224 N.2       1 <0>        -0.4460
     16 C11        -8.8052   -2.6624    1.6841 C.ar      1 <0>         0.0397
     17 C12        -9.5683   -3.7960    1.3824 C.ar      1 <0>        -0.1547
     18 C13       -10.5481   -4.1969    2.2660 C.ar      1 <0>         0.1020
     19 N3        -10.7699   -3.5273    3.3814 N.ar      1 <0>        -0.4829
     20 C14       -10.0734   -2.4536    3.7038 C.ar      1 <0>         0.1009
     21 C15        -9.0708   -1.9865    2.8804 C.ar      1 <0>        -0.1469
     22 C16        -8.9814   -2.5126   -1.4503 C.ar      1 <0>        -0.0400
     23 C17       -10.2631   -2.0665   -1.1192 C.ar      1 <0>        -0.0563
     24 C18       -11.3392   -2.4265   -1.9026 C.ar      1 <0>        -0.1471
     25 C19       -11.1511   -3.2299   -3.0163 C.ar      1 <0>         0.1129
     26 C20        -9.8817   -3.6756   -3.3498 C.ar      1 <0>        -0.1491
     27 C21        -8.7972   -3.3169   -2.5775 C.ar      1 <0>        -0.0765
     28 F1        -12.2093   -3.5802   -3.7797 F         1 <0>        -0.1335
     29 H2          0.5355    2.9936    0.1264 H         1 <0>         0.1086
     30 H3         -1.0243    2.8681   -0.7218 H         1 <0>         0.1118
     31 H4         -0.9645    2.7506    1.0533 H         1 <0>         0.0820
     32 H5         -1.9427   -0.0960    2.1446 H         1 <0>         0.1340
     33 H6         -4.2409   -0.9717    2.1752 H         1 <0>         0.1409
     34 H7         -4.3783   -0.7065   -2.1030 H         1 <0>         0.1252
     35 H8         -2.0825    0.1760   -2.1109 H         1 <0>         0.1447
     36 H9         -9.3927   -4.3483    0.4711 H         1 <0>         0.1333
     37 H10       -11.1422   -5.0705    2.0420 H         1 <0>         0.1579
     38 H11       -10.2890   -1.9361    4.6268 H         1 <0>         0.1588
     39 H12        -8.5017   -1.1100    3.1527 H         1 <0>         0.1379
     40 H13       -10.4110   -1.4411   -0.2513 H         1 <0>         0.1357
     41 H14       -12.3306   -2.0822   -1.6477 H         1 <0>         0.1434
     42 H15        -9.7412   -4.3013   -4.2187 H         1 <0>         0.1424
     43 H16        -7.8079   -3.6609   -2.8410 H         1 <0>         0.1331
@<TRIPOS>BOND
     1    1    2 1
     2    1   29 1
     3    1   30 1
     4    1   31 1
     5    2    3 2
     6    2    4 1
     7    4    9 ar
     8    4    5 ar
     9    5    6 ar
    10    5   32 1
    11    6    7 ar
    12    6   33 1
    13    7    8 ar
    14    7   10 1
    15    8    9 ar
    16    8   34 1
    17    9   35 1
    18   10   15 2
    19   10   11 1
    20   11   12 1
    21   11   13 1
    22   13   14 2
    23   13   22 1
    24   14   15 1
    25   14   16 1
    26   16   21 ar
    27   16   17 ar
    28   17   18 ar
    29   17   36 1
    30   18   19 ar
    31   18   37 1
    32   19   20 ar
    33   20   21 ar
    34   20   38 1
    35   21   39 1
    36   22   27 ar
    37   22   23 ar
    38   23   24 ar
    39   23   40 1
    40   24   25 ar
    41   24   41 1
    42   25   26 ar
    43   25   28 1
    44   26   27 ar
    45   26   42 1
    46   27   43 1
@<TRIPOS>MOLECULE
ZINC18274812
   43    46     0     0     0
SMALL
USER_CHARGES

@<TRIPOS>ATOM
      1 C1          0.0458    2.4645   -0.3714 C.3       1 <0>        -0.4977
      2 S1          0.1034    0.6635   -0.1624 S.o       1 <0>         1.3328
      3 O1          0.9995    0.3374    0.8912 O.2       1 <0>        -0.8522
      4 C2          0.9248    0.0922   -1.6127 C.ar      1 <0>        -0.4531
      5 C3          0.1894   -0.2245   -2.7411 C.ar      1 <0>        -0.0385
      6 C4          0.8263   -0.6720   -3.8801 C.ar      1 <0>        -0.0921
      7 C5          2.2157   -0.8050   -3.8925 C.ar      1 <0>         0.0171
      8 C6          2.9515   -0.4838   -2.7508 C.ar      1 <0>        -0.1253
      9 C7          2.3027   -0.0324   -1.6200 C.ar      1 <0>        -0.0497
     10 C8          2.9049   -1.2844   -5.1094 C.2       1 <0>         0.2582
     11 N1          4.2515   -1.4590   -5.2384 N.pl3     1 <0>        -0.5486
     12 H1          4.9216   -1.2936   -4.5568 H         1 <0>         0.4252
     13 C9          4.4814   -1.9147   -6.5171 C.2       1 <0>         0.0337
     14 C10         3.2416   -2.0017   -7.1294 C.2       1 <0>         0.0807
     15 N2          2.3171   -1.6154   -6.2370 N.2       1 <0>        -0.4488
     16 C11         2.9826   -2.4473   -8.5186 C.ar      1 <0>        -0.0206
     17 C12         3.6496   -3.5590   -9.0325 C.ar      1 <0>        -0.0694
     18 C13         3.4051   -3.9700  -10.3265 C.ar      1 <0>        -0.1511
     19 C14         2.4988   -3.2799  -11.1154 C.ar      1 <0>         0.1060
     20 C15         1.8337   -2.1747  -10.6093 C.ar      1 <0>        -0.1526
     21 C16         2.0668   -1.7598   -9.3145 C.ar      1 <0>        -0.0599
     22 F1          2.2634   -3.6856  -12.3824 F         1 <0>        -0.1371
     23 C17         5.7881   -2.2443   -7.1163 C.ar      1 <0>         0.0226
     24 C18         6.1399   -1.7662   -8.3862 C.ar      1 <0>        -0.1423
     25 C19         7.3716   -2.0992   -8.9074 C.ar      1 <0>         0.1081
     26 N3          8.2131   -2.8565   -8.2286 N.ar      1 <0>        -0.4784
     27 C20         7.9224   -3.3278   -7.0303 C.ar      1 <0>         0.1071
     28 C21         6.7158   -3.0398   -6.4296 C.ar      1 <0>        -0.1652
     29 H2          1.0609    2.8540   -0.4489 H         1 <0>         0.0810
     30 H3         -0.5069    2.7075   -1.2790 H         1 <0>         0.1130
     31 H4         -0.4514    2.9143    0.4881 H         1 <0>         0.1088
     32 H5         -0.8856   -0.1215   -2.7301 H         1 <0>         0.1470
     33 H6          0.2512   -0.9192   -4.7602 H         1 <0>         0.1462
     34 H7          4.0268   -0.5845   -2.7539 H         1 <0>         0.1202
     35 H8          2.8713    0.2203   -0.7373 H         1 <0>         0.1322
     36 H9          4.3566   -4.0971   -8.4186 H         1 <0>         0.1287
     37 H10         3.9211   -4.8308  -10.7253 H         1 <0>         0.1387
     38 H11         1.1282   -1.6400  -11.2280 H         1 <0>         0.1401
     39 H12         1.5446   -0.9009   -8.9194 H         1 <0>         0.1377
     40 H13         5.4562   -1.1467   -8.9476 H         1 <0>         0.1400
     41 H14         7.6520   -1.7358   -9.8850 H         1 <0>         0.1626
     42 H15         8.6418   -3.9441   -6.5116 H         1 <0>         0.1610
     43 H16         6.4868   -3.4248   -5.4469 H         1 <0>         0.1340
@<TRIPOS>BOND
     1    1    2 1
     2    1   29 1
     3    1   30 1
     4    1   31 1
     5    2    3 2
     6    2    4 1
     7    4    9 ar
     8    4    5 ar
     9    5    6 ar
    10    5   32 1
    11    6    7 ar
    12    6   33 1
    13    7    8 ar
    14    7   10 1
    15    8    9 ar
    16    8   34 1
    17    9   35 1
    18   10   15 2
    19   10   11 1
    20   11   12 1
    21   11   13 1
    22   13   14 2
    23   13   23 1
    24   14   15 1
    25   14   16 1
    26   16   21 ar
    27   16   17 ar
    28   17   18 ar
    29   17   36 1
    30   18   19 ar
    31   18   37 1
    32   19   20 ar
    33   19   22 1
    34   20   21 ar
    35   20   38 1
    36   21   39 1
    37   23   28 ar
    38   23   24 ar
    39   24   25 ar
    40   24   40 1
    41   25   26 ar
    42   25   41 1
    43   26   27 ar
    44   27   28 ar
    45   27   42 1
    46   28   43 1
@<TRIPOS>MOLECULE
ZINC18274812
   43    46     0     0     0
SMALL
USER_CHARGES

@<TRIPOS>ATOM
      1 C1          0.0761    2.5207   -0.3946 C.3       1 <0>        -0.4977
      2 S1          0.1067    0.7194   -0.1829 S.o       1 <0>         1.3328
      3 O1          0.9925    0.3819    0.8757 O.2       1 <0>        -0.8523
      4 C2          0.9273    0.1342   -1.6283 C.ar      1 <0>        -0.4535
      5 C3          0.1933   -0.1734   -2.7600 C.ar      1 <0>        -0.0382
      6 C4          0.8295   -0.6320   -3.8950 C.ar      1 <0>        -0.0929
      7 C5          2.2169   -0.7850   -3.8999 C.ar      1 <0>         0.0183
      8 C6          2.9514   -0.4724   -2.7550 C.ar      1 <0>        -0.1257
      9 C7          2.3033   -0.0102   -1.6282 C.ar      1 <0>        -0.0496
     10 C8          2.9053   -1.2765   -5.1125 C.2       1 <0>         0.2536
     11 N1          4.2517   -1.4710   -5.2346 N.pl3     1 <0>        -0.5504
     12 H1          4.9205   -1.3136   -4.5499 H         1 <0>         0.4255
     13 C9          4.4817   -1.9314   -6.5089 C.2       1 <0>         0.0556
     14 C10         3.2446   -2.0022   -7.1288 C.2       1 <0>         0.0602
     15 N2          2.3192   -1.6008   -6.2417 N.2       1 <0>        -0.4443
     16 C11         2.9879   -2.4463   -8.5176 C.ar      1 <0>         0.0401
     17 C12         3.6482   -3.5593   -9.0502 C.ar      1 <0>        -0.1549
     18 C13         3.3789   -3.9386  -10.3482 C.ar      1 <0>         0.1021
     19 N3          2.5133   -3.2676  -11.0845 N.ar      1 <0>        -0.4831
     20 C14         1.8693   -2.2129  -10.6212 C.ar      1 <0>         0.1008
     21 C15         2.0741   -1.7682   -9.3321 C.ar      1 <0>        -0.1466
     22 C16         5.7882   -2.2812   -7.1001 C.ar      1 <0>        -0.0406
     23 C17         6.1350   -1.8042   -8.3665 C.ar      1 <0>        -0.0561
     24 C18         7.3568   -2.1344   -8.9137 C.ar      1 <0>        -0.1471
     25 C19         8.2399   -2.9383   -8.2101 C.ar      1 <0>         0.1131
     26 C20         7.9012   -3.4146   -6.9533 C.ar      1 <0>        -0.1492
     27 C21         6.6848   -3.0860   -6.3932 C.ar      1 <0>        -0.0767
     28 F1          9.4352   -3.2593   -8.7516 F         1 <0>        -0.1334
     29 H2          1.0971    2.8954   -0.4674 H         1 <0>         0.0810
     30 H3         -0.4683    2.7703   -1.3054 H         1 <0>         0.1130
     31 H4         -0.4189    2.9788    0.4616 H         1 <0>         0.1087
     32 H5         -0.8802   -0.0546   -2.7549 H         1 <0>         0.1468
     33 H6          0.2554   -0.8725   -4.7775 H         1 <0>         0.1457
     34 H7          4.0251   -0.5889   -2.7522 H         1 <0>         0.1204
     35 H8          2.8708    0.2356   -0.7429 H         1 <0>         0.1321
     36 H9          4.3583   -4.1127   -8.4536 H         1 <0>         0.1329
     37 H10         3.8834   -4.7962  -10.7681 H         1 <0>         0.1577
     38 H11         1.1696   -1.6933  -11.2591 H         1 <0>         0.1590
     39 H12         1.5402   -0.9072   -8.9580 H         1 <0>         0.1385
     40 H13         5.4474   -1.1783   -8.9159 H         1 <0>         0.1360
     41 H14         7.6261   -1.7662   -9.8926 H         1 <0>         0.1436
     42 H15         8.5933   -4.0406   -6.4097 H         1 <0>         0.1423
     43 H16         6.4240   -3.4537   -5.4118 H         1 <0>         0.1327
@<TRIPOS>BOND
     1    1    2 1
     2    1   29 1
     3    1   30 1
     4    1   31 1
     5    2    3 2
     6    2    4 1
     7    4    9 ar
     8    4    5 ar
     9    5    6 ar
    10    5   32 1
    11    6    7 ar
    12    6   33 1
    13    7    8 ar
    14    7   10 1
    15    8    9 ar
    16    8   34 1
    17    9   35 1
    18   10   15 2
    19   10   11 1
    20   11   12 1
    21   11   13 1
    22   13   14 2
    23   13   22 1
    24   14   15 1
    25   14   16 1
    26   16   21 ar
    27   16   17 ar
    28   17   18 ar
    29   17   36 1
    30   18   19 ar
    31   18   37 1
    32   19   20 ar
    33   20   21 ar
    34   20   38 1
    35   21   39 1
    36   22   27 ar
    37   22   23 ar
    38   23   24 ar
    39   23   40 1
    40   24   25 ar
    41   24   41 1
    42   25   26 ar
    43   25   28 1
    44   26   27 ar
    45   26   42 1
    46   27   43 1
@<TRIPOS>MOLECULE
ZINC24044436
   76    80     0     0     0
SMALL
USER_CHARGES
1-[5-tert-butyl-2-(p-tolyl)pyrazol-3-yl]-3-[4-(2-morpholinoethoxy)-1-naphthyl]urea
@<TRIPOS>ATOM
      1 C1          3.3307    9.5387   -0.3298 C.3       1 <0>        -0.1193
      2 C2          2.0898    8.6848   -0.2813 C.ar      1 <0>        -0.0892
      3 C3          0.9612    9.0673   -0.9828 C.ar      1 <0>        -0.0934
      4 C4         -0.1775    8.2868   -0.9403 C.ar      1 <0>        -0.1062
      5 C5         -0.1884    7.1174   -0.1919 C.ar      1 <0>         0.1564
      6 C6          0.9444    6.7392    0.5163 C.ar      1 <0>        -0.1500
      7 C7          2.0821    7.5207    0.4649 C.ar      1 <0>        -0.0924
      8 N1         -1.3424    6.3233   -0.1469 N.pl3     1 <0>        -0.3448
      9 C8         -1.3788    4.9645   -0.0790 C.2       1 <0>         0.3309
     10 C9         -2.6878    4.5925   -0.0483 C.2       1 <0>        -0.2629
     11 C10        -3.4651    5.7529   -0.1047 C.2       1 <0>         0.1115
     12 N2         -2.6643    6.7861   -0.1672 N.2       1 <0>        -0.2779
     13 C11        -4.9712    5.8052   -0.0954 C.3       1 <0>         0.0134
     14 C12        -5.4824    5.5257    1.3193 C.3       1 <0>        -0.1388
     15 C13        -5.4360    7.1933   -0.5406 C.3       1 <0>        -0.1390
     16 C14        -5.5242    4.7499   -1.0553 C.3       1 <0>        -0.1399
     17 N3         -0.2771    4.1104   -0.0417 N.am      1 <0>        -0.6731
     18 C15        -0.4603    2.7771    0.0314 C.2       1 <0>         0.7165
     19 O1         -1.5862    2.3190    0.0649 O.2       1 <0>        -0.5445
     20 N4          0.6045    1.9516    0.0675 N.am      1 <0>        -0.6819
     21 C16         0.4162    0.5655    0.0407 C.ar      1 <0>         0.1254
     22 C17        -0.6813    0.0024    0.6542 C.ar      1 <0>        -0.0743
     23 C18        -0.8835   -1.3742    0.6299 C.ar      1 <0>        -0.2061
     24 C19         0.0048   -2.2051    0.0082 C.ar      1 <0>         0.1395
     25 C20         1.1426   -1.6672   -0.6254 C.ar      1 <0>        -0.0565
     26 C21         1.3517   -0.2661   -0.6096 C.ar      1 <0>        -0.0251
     27 C22         2.4862    0.2686   -1.2409 C.ar      1 <0>        -0.1232
     28 C23         3.3687   -0.5639   -1.8588 C.ar      1 <0>        -0.0971
     29 C24         3.1636   -1.9422   -1.8742 C.ar      1 <0>        -0.1313
     30 C25         2.0750   -2.4951   -1.2724 C.ar      1 <0>        -0.0739
     31 O2         -0.2080   -3.5475    0.0012 O.3       1 <0>        -0.2916
     32 C26        -1.3823   -4.0216    0.6634 C.3       1 <0>         0.0605
     33 C27        -1.4510   -5.5459    0.5508 C.3       1 <0>         0.0539
     34 N5         -0.3065   -6.1409    1.2538 N.3       1 <0>        -0.5287
     35 C28        -0.1978   -7.5776    0.9617 C.3       1 <0>         0.0167
     36 C29         1.0390   -8.1436    1.6645 C.3       1 <0>         0.0615
     37 O3          0.9456   -7.8818    3.0674 O.3       1 <0>        -0.3849
     38 C30         0.8389   -6.4921    3.3879 C.3       1 <0>         0.0625
     39 C31        -0.3999   -5.9094    2.7026 C.3       1 <0>         0.0120
     40 H1          3.1476   10.4156   -0.9682 H         1 <0>         0.0687
     41 H2          4.1639    8.9515   -0.7434 H         1 <0>         0.0732
     42 H3          3.5863    9.8722    0.6868 H         1 <0>         0.0734
     43 H4          0.9703    9.9770   -1.5648 H         1 <0>         0.1335
     44 H5         -1.0587    8.5861   -1.4884 H         1 <0>         0.1355
     45 H6          0.9374    5.8324    1.1029 H         1 <0>         0.1262
     46 H7          2.9651    7.2245    1.0118 H         1 <0>         0.1343
     47 H8         -3.0598    3.5802    0.0092 H         1 <0>         0.1784
     48 H9         -6.5817    5.5639    1.3261 H         1 <0>         0.0656
     49 H10        -5.0849    6.2845    2.0094 H         1 <0>         0.0565
     50 H11        -5.1481    4.5278    1.6395 H         1 <0>         0.0614
     51 H12        -6.5353    7.2315   -0.5338 H         1 <0>         0.0604
     52 H13        -5.0684    7.3943   -1.5577 H         1 <0>         0.0568
     53 H14        -5.0385    7.9519    0.1496 H         1 <0>         0.0614
     54 H15        -6.6235    4.7882   -1.0484 H         1 <0>         0.0647
     55 H16        -5.1900    3.7520   -0.7351 H         1 <0>         0.0637
     56 H17        -5.1566    4.9509   -2.0724 H         1 <0>         0.0570
     57 H18         0.7414    4.5248   -0.0719 H         1 <0>         0.4294
     58 H19         1.6215    2.3677    0.1180 H         1 <0>         0.4280
     59 H20        -1.3959    0.6376    1.1566 H         1 <0>         0.1450
     60 H21        -1.7537   -1.7925    1.1139 H         1 <0>         0.1296
     61 H22         2.6580    1.3348   -1.2361 H         1 <0>         0.1222
     62 H23         4.2405   -0.1501   -2.3437 H         1 <0>         0.1243
     63 H24         3.8790   -2.5810   -2.3706 H         1 <0>         0.1250
     64 H25         1.9286   -3.5650   -1.2926 H         1 <0>         0.1353
     65 H26        -1.3465   -3.7335    1.7244 H         1 <0>         0.0659
     66 H27        -2.2726   -3.5787    0.1931 H         1 <0>         0.0716
     67 H28        -2.3868   -5.9052    1.0039 H         1 <0>         0.0605
     68 H29        -1.4216   -5.8370   -0.5096 H         1 <0>         0.0912
     69 H30        -1.0977   -8.0949    1.3258 H         1 <0>         0.0437
     70 H31        -0.1044   -7.7249   -0.1244 H         1 <0>         0.0891
     71 H32         1.0925   -9.2291    1.4949 H         1 <0>         0.1001
     72 H33         1.9424   -7.6643    1.2595 H         1 <0>         0.0618
     73 H34         0.7475   -6.3731    4.4776 H         1 <0>         0.0994
     74 H35         1.7375   -5.9645    3.0355 H         1 <0>         0.0616
     75 H36        -0.4553   -4.8284    2.8983 H         1 <0>         0.0869
     76 H37        -1.3031   -6.3997    3.0948 H         1 <0>         0.0443
@<TRIPOS>BOND
     1    1    2 1
     2    1   40 1
     3    1   41 1
     4    1   42 1
     5    2    7 ar
     6    2    3 ar
     7    3    4 ar
     8    3   43 1
     9    4    5 ar
    10    4   44 1
    11    5    6 ar
    12    5    8 1
    13    6    7 ar
    14    6   45 1
    15    7   46 1
    16    8   12 1
    17    8    9 1
    18    9   10 2
    19    9   17 1
    20   10   11 1
    21   10   47 1
    22   11   12 2
    23   11   13 1
    24   13   14 1
    25   13   15 1
    26   13   16 1
    27   14   48 1
    28   14   49 1
    29   14   50 1
    30   15   51 1
    31   15   52 1
    32   15   53 1
    33   16   54 1
    34   16   55 1
    35   16   56 1
    36   17   18 am
    37   17   57 1
    38   18   19 2
    39   18   20 am
    40   20   21 1
    41   20   58 1
    42   21   26 ar
    43   21   22 ar
    44   22   23 ar
    45   22   59 1
    46   23   24 ar
    47   23   60 1
    48   24   25 ar
    49   24   31 1
    50   25   30 ar
    51   25   26 ar
    52   26   27 ar
    53   27   28 ar
    54   27   61 1
    55   28   29 ar
    56   28   62 1
    57   29   30 ar
    58   29   63 1
    59   30   64 1
    60   31   32 1
    61   32   33 1
    62   32   65 1
    63   32   66 1
    64   33   34 1
    65   33   67 1
    66   33   68 1
    67   34   39 1
    68   34   35 1
    69   35   36 1
    70   35   69 1
    71   35   70 1
    72   36   37 1
    73   36   71 1
    74   36   72 1
    75   37   38 1
    76   38   39 1
    77   38   73 1
    78   38   74 1
    79   39   75 1
    80   39   76 1
@<TRIPOS>MOLECULE
ZINC12365474
   45    48     0     0     0
SMALL
USER_CHARGES
(4-benzylpiperazin-1-yl)-(1H-indol-4-yl)methanone
@<TRIPOS>ATOM
      1 C1        -10.4211    2.8446   -2.5220 C.ar      1 <0>        -0.1178
      2 C2         -9.2829    2.7511   -3.3009 C.ar      1 <0>        -0.1204
      3 C3         -8.4757    1.6323   -3.2137 C.ar      1 <0>        -0.1150
      4 C4         -8.8069    0.6068   -2.3479 C.ar      1 <0>        -0.0869
      5 C5         -9.9482    0.6979   -1.5731 C.ar      1 <0>        -0.0981
      6 C6        -10.7525    1.8190   -1.6565 C.ar      1 <0>        -0.1201
      7 C7         -7.9272   -0.6131   -2.2531 C.3       1 <0>         0.0927
      8 N1         -6.9051   -0.4006   -1.2196 N.3       1 <0>        -0.5299
      9 C8         -5.8887   -1.4604   -1.2587 C.3       1 <0>         0.0389
     10 C9         -4.9480   -1.3060   -0.0589 C.3       1 <0>         0.1022
     11 N2         -4.4167    0.0655   -0.0553 N.am      1 <0>        -0.6083
     12 C10        -5.3704    1.1815   -0.1468 C.3       1 <0>         0.1159
     13 C11        -6.2940    0.9289   -1.3491 C.3       1 <0>         0.0367
     14 C12        -3.0915    0.2937    0.0350 C.2       1 <0>         0.5656
     15 O1         -2.6744    1.4337    0.1092 O.2       1 <0>        -0.5304
     16 C13        -2.1478   -0.8382    0.0438 C.ar      1 <0>        -0.0828
     17 C14        -2.3153   -1.8872    0.9452 C.ar      1 <0>        -0.1153
     18 C15        -1.4283   -2.9480    0.9506 C.ar      1 <0>        -0.1069
     19 C16        -0.3666   -2.9884    0.0691 C.ar      1 <0>        -0.1073
     20 C17        -0.1723   -1.9566   -0.8415 C.ar      1 <0>         0.0838
     21 C18        -1.0622   -0.8672   -0.8547 C.ar      1 <0>        -0.0684
     22 C19        -0.5940    0.0263   -1.9100 C.2       1 <0>        -0.2059
     23 C20         0.5044   -0.5377   -2.4447 C.2       1 <0>         0.0718
     24 N3          0.7704   -1.7217   -1.8187 N.pl3     1 <0>        -0.6057
     25 H1          1.5793   -2.4475   -1.9884 H         1 <0>         0.4445
     26 H2        -11.0515    3.7189   -2.5899 H         1 <0>         0.1219
     27 H3         -9.0241    3.5523   -3.9773 H         1 <0>         0.1221
     28 H4         -7.5865    1.5592   -3.8223 H         1 <0>         0.1176
     29 H5        -10.2093   -0.1053   -0.8999 H         1 <0>         0.1240
     30 H6        -11.6420    1.8919   -1.0482 H         1 <0>         0.1229
     31 H7         -8.5400   -1.4874   -1.9885 H         1 <0>         0.0882
     32 H8         -7.4376   -0.7884   -3.2224 H         1 <0>         0.0441
     33 H9         -6.3816   -2.4429   -1.2156 H         1 <0>         0.0906
     34 H10        -5.3113   -1.3804   -2.1915 H         1 <0>         0.0403
     35 H11        -5.5051   -1.4950    0.8705 H         1 <0>         0.0803
     36 H12        -4.1225   -2.0280   -0.1448 H         1 <0>         0.1008
     37 H13        -5.9621    1.2350    0.7790 H         1 <0>         0.0768
     38 H14        -4.8200    2.1238   -0.2851 H         1 <0>         0.0971
     39 H15        -5.7088    0.9744   -2.2794 H         1 <0>         0.0379
     40 H16        -7.0835    1.6944   -1.3747 H         1 <0>         0.0969
     41 H17        -3.1406   -1.8720    1.6416 H         1 <0>         0.1294
     42 H18        -1.5682   -3.7559    1.6535 H         1 <0>         0.1327
     43 H19         0.3160   -3.8252    0.0873 H         1 <0>         0.1244
     44 H20        -1.0417    0.9645   -2.2029 H         1 <0>         0.1467
     45 H21         1.0891   -0.1162   -3.2489 H         1 <0>         0.1723
@<TRIPOS>BOND
     1    1    6 ar
     2    1    2 ar
     3    1   26 1
     4    2    3 ar
     5    2   27 1
     6    3    4 ar
     7    3   28 1
     8    4    5 ar
     9    4    7 1
    10    5    6 ar
    11    5   29 1
    12    6   30 1
    13    7    8 1
    14    7   31 1
    15    7   32 1
    16    8   13 1
    17    8    9 1
    18    9   10 1
    19    9   33 1
    20    9   34 1
    21   10   11 1
    22   10   35 1
    23   10   36 1
    24   11   12 1
    25   11   14 am
    26   12   13 1
    27   12   37 1
    28   12   38 1
    29   13   39 1
    30   13   40 1
    31   14   15 2
    32   14   16 1
    33   16   21 ar
    34   16   17 ar
    35   17   18 ar
    36   17   41 1
    37   18   19 ar
    38   18   42 1
    39   19   20 ar
    40   19   43 1
    41   20   24 1
    42   20   21 ar
    43   21   22 1
    44   22   23 2
    45   22   44 1
    46   23   24 1
    47   23   45 1
    48   24   25 1
@<TRIPOS>MOLECULE
ZINC44679143
   46    50     0     0     0
SMALL
USER_CHARGES

@<TRIPOS>ATOM
      1 C1          0.2119    1.4847   -1.4107 C.ar      1 <0>        -0.0486
      2 C2          0.2325    0.4736   -0.4679 C.ar      1 <0>        -0.1450
      3 C3          1.4035   -0.2203   -0.2205 C.ar      1 <0>         0.1309
      4 C4          2.5603    0.1000   -0.9217 C.ar      1 <0>         0.0703
      5 C5          2.5353    1.1169   -1.8691 C.ar      1 <0>         0.1487
      6 C6          1.3604    1.8064   -2.1102 C.ar      1 <0>        -0.1486
      7 F1          3.6571    1.4322   -2.5527 F         1 <0>        -0.1125
      8 N1          3.7490   -0.6004   -0.6737 N.pl3     1 <0>        -0.3251
      9 C7          3.8863   -1.9595   -0.6345 C.ar      1 <0>         0.1478
     10 C8          3.0340   -3.0509   -0.7993 C.ar      1 <0>         0.0236
     11 N2          3.5156   -4.2706   -0.6917 N.ar      1 <0>        -0.1646
     12 N3          4.7477   -4.5180   -0.4390 N.ar      1 <0>        -0.3224
     13 C9          5.6488   -3.5649   -0.2632 C.ar      1 <0>         0.4134
     14 C10         5.2456   -2.2195   -0.3559 C.ar      1 <0>        -0.2305
     15 C11         5.8869   -0.9701   -0.2358 C.2       1 <0>         0.1057
     16 N4          5.0050   -0.0290   -0.4286 N.2       1 <0>        -0.2272
     17 N5          6.9707   -3.8869    0.0083 N.pl3     1 <0>        -0.6329
     18 C12         7.3875   -5.2213   -0.0301 C.ar      1 <0>         0.1662
     19 C13         6.6343   -6.1633   -0.7129 C.ar      1 <0>        -0.0684
     20 C14         7.0543   -7.4932   -0.7482 C.ar      1 <0>        -0.1033
     21 C15         8.2308   -7.8671   -0.0954 C.ar      1 <0>        -0.0998
     22 C16         8.9742   -6.9227    0.5818 C.ar      1 <0>        -0.0891
     23 C17         8.5612   -5.6024    0.6124 C.ar      1 <0>        -0.0535
     24 Cl1         9.5067   -4.4194    1.4610 Cl        1 <0>        -0.0573
     25 C18         6.2562   -8.5036   -1.4739 C.2       1 <0>         0.5631
     26 O1          5.2321   -8.1762   -2.0412 O.2       1 <0>        -0.5165
     27 N6          6.6638   -9.7878   -1.5067 N.am      1 <0>        -0.6992
     28 C19         5.8727  -10.7892   -2.2260 C.3       1 <0>         0.0788
     29 C20         5.6528  -12.1401   -1.5422 C.3       1 <0>        -0.1919
     30 C21         6.6031  -12.0330   -2.7365 C.3       1 <0>        -0.1885
     31 F2          1.4228   -1.2076    0.7015 F         1 <0>        -0.1165
     32 H1         -0.7049    2.0218   -1.6045 H         1 <0>         0.1569
     33 H2         -0.6667    0.2253    0.0764 H         1 <0>         0.1585
     34 H3          1.3402    2.5966   -2.8460 H         1 <0>         0.1572
     35 H4          1.9868   -2.8961   -1.0133 H         1 <0>         0.1734
     36 H5          6.9348   -0.8177   -0.0236 H         1 <0>         0.2077
     37 H6          7.6059   -3.1864    0.2248 H         1 <0>         0.4246
     38 H7          5.7250   -5.8689   -1.2157 H         1 <0>         0.1861
     39 H8          8.5586   -8.8958   -0.1204 H         1 <0>         0.1359
     40 H9          9.8836   -7.2140    1.0863 H         1 <0>         0.1461
     41 H10         7.4810  -10.0490   -1.0540 H         1 <0>         0.4009
     42 H11         5.0605  -10.3961   -2.8375 H         1 <0>         0.1406
     43 H12         6.0967  -12.2838   -0.5571 H         1 <0>         0.0977
     44 H13         4.6956  -12.6360   -1.7036 H         1 <0>         0.1042
     45 H14         6.2711  -12.4583   -3.6836 H         1 <0>         0.1052
     46 H15         7.6722  -12.1061   -2.5371 H         1 <0>         0.0978
@<TRIPOS>BOND
     1    1    6 ar
     2    1    2 ar
     3    1   32 1
     4    2    3 ar
     5    2   33 1
     6    3    4 ar
     7    3   31 1
     8    4    5 ar
     9    4    8 1
    10    5    6 ar
    11    5    7 1
    12    6   34 1
    13    8   16 1
    14    8    9 1
    15    9   14 ar
    16    9   10 ar
    17   10   11 ar
    18   10   35 1
    19   11   12 ar
    20   12   13 ar
    21   13   14 ar
    22   13   17 1
    23   14   15 1
    24   15   16 2
    25   15   36 1
    26   17   18 1
    27   17   37 1
    28   18   23 ar
    29   18   19 ar
    30   19   20 ar
    31   19   38 1
    32   20   21 ar
    33   20   25 1
    34   21   22 ar
    35   21   39 1
    36   22   23 ar
    37   22   40 1
    38   23   24 1
    39   25   26 2
    40   25   27 am
    41   27   28 1
    42   27   41 1
    43   28   30 1
    44   28   29 1
    45   28   42 1
    46   29   30 1
    47   29   43 1
    48   29   44 1
    49   30   45 1
    50   30   46 1
@<TRIPOS>MOLECULE
ZINC13980453
   49    51     0     0     0
SMALL
USER_CHARGES
3-[3-bromo-4-[(2,4-difluorophenyl)methoxy]-6-methyl-2-oxo-1-pyridyl]-N,4-dimethyl-benzamide
@<TRIPOS>ATOM
      1 C1         -1.3336    2.1139    0.2181 C.3       1 <0>        -0.1258
      2 C2         -0.0186    1.3860    0.1090 C.ar      1 <0>        -0.0334
      3 C3          1.1655    2.0997    0.1036 C.ar      1 <0>        -0.1173
      4 C4          2.3732    1.4406   -0.0019 C.ar      1 <0>        -0.0640
      5 C5          2.4020    0.0484   -0.1035 C.ar      1 <0>        -0.1321
      6 C6          1.2075   -0.6713   -0.0979 C.ar      1 <0>        -0.0305
      7 C7         -0.0005    0.0003    0.0084 C.ar      1 <0>         0.0914
      8 N1         -1.2030   -0.7181    0.0148 N.am      1 <0>        -0.4502
      9 C8         -1.8378   -0.9717   -1.1619 C.2       1 <0>         0.2063
     10 C9         -2.9958   -1.6657   -1.1887 C.2       1 <0>        -0.2619
     11 C10        -3.5644   -2.1265    0.0155 C.2       1 <0>         0.2482
     12 C11        -2.9163   -1.8605    1.2079 C.2       1 <0>        -0.2541
     13 C12        -1.7151   -1.1417    1.1853 C.2       1 <0>         0.5426
     14 O1         -1.1308   -0.8983    2.2298 O.2       1 <0>        -0.5053
     15 Br1        -3.6435   -2.4591    2.8477 Br        1 <0>         0.0071
     16 O2         -4.7287   -2.8194    0.0053 O.3       1 <0>        -0.3150
     17 C13        -5.8976   -2.1175   -0.4227 C.3       1 <0>         0.1181
     18 C14        -7.1057   -3.0018   -0.2505 C.ar      1 <0>        -0.1382
     19 C15        -6.9601   -4.2792    0.2571 C.ar      1 <0>        -0.0361
     20 C16        -8.0672   -5.0909    0.4163 C.ar      1 <0>        -0.1607
     21 C17        -9.3238   -4.6252    0.0669 C.ar      1 <0>         0.1349
     22 C18        -9.4707   -3.3466   -0.4418 C.ar      1 <0>        -0.1897
     23 C19        -8.3616   -2.5323   -0.5955 C.ar      1 <0>         0.1395
     24 F1         -8.5042   -1.2819   -1.0868 F         1 <0>        -0.1272
     25 F2        -10.4059   -5.4191    0.2223 F         1 <0>        -0.1281
     26 C20        -1.2376   -0.4766   -2.4525 C.3       1 <0>        -0.1332
     27 C21         3.6946   -0.6605   -0.2160 C.2       1 <0>         0.5587
     28 O3          3.7174   -1.8727   -0.3040 O.2       1 <0>        -0.5294
     29 N2          4.8477    0.0372   -0.2212 N.am      1 <0>        -0.7297
     30 C22         6.1285   -0.6652   -0.3327 C.3       1 <0>         0.0860
     31 H1         -1.6065    2.2157    1.2685 H         1 <0>         0.0845
     32 H2         -1.2397    3.1030   -0.2303 H         1 <0>         0.0814
     33 H3         -2.1057    1.5497   -0.3049 H         1 <0>         0.0660
     34 H4          1.1452    3.1766    0.1821 H         1 <0>         0.1428
     35 H5          3.2960    2.0016   -0.0054 H         1 <0>         0.1356
     36 H6          1.2236   -1.7484   -0.1759 H         1 <0>         0.1428
     37 H7         -3.4871   -1.8632   -2.1300 H         1 <0>         0.1630
     38 H8         -6.0194   -1.2152    0.1766 H         1 <0>         0.0825
     39 H9         -5.7935   -1.8449   -1.4729 H         1 <0>         0.0835
     40 H10        -5.9806   -4.6432    0.5297 H         1 <0>         0.1551
     41 H11        -7.9524   -6.0885    0.8136 H         1 <0>         0.1471
     42 H12       -10.4503   -2.9826   -0.7145 H         1 <0>         0.1528
     43 H13        -0.5686   -1.2362   -2.8570 H         1 <0>         0.0991
     44 H14        -2.0334   -0.2744   -3.1693 H         1 <0>         0.0998
     45 H15        -0.6765    0.4388   -2.2646 H         1 <0>         0.0845
     46 H16         4.8295    1.0045   -0.1510 H         1 <0>         0.4020
     47 H17         6.1555   -1.2253   -1.2674 H         1 <0>         0.0633
     48 H18         6.9426    0.0595   -0.3197 H         1 <0>         0.0794
     49 H19         6.2402   -1.3523    0.5060 H         1 <0>         0.0634
@<TRIPOS>BOND
     1    1    2 1
     2    1   31 1
     3    1   32 1
     4    1   33 1
     5    2    7 ar
     6    2    3 ar
     7    3    4 ar
     8    3   34 1
     9    4    5 ar
    10    4   35 1
    11    5    6 ar
    12    5   27 1
    13    6    7 ar
    14    6   36 1
    15    7    8 1
    16    8   13 am
    17    8    9 1
    18    9   10 2
    19    9   26 1
    20   10   11 1
    21   10   37 1
    22   11   12 2
    23   11   16 1
    24   12   13 1
    25   12   15 1
    26   13   14 2
    27   16   17 1
    28   17   18 1
    29   17   38 1
    30   17   39 1
    31   18   23 ar
    32   18   19 ar
    33   19   20 ar
    34   19   40 1
    35   20   21 ar
    36   20   41 1
    37   21   22 ar
    38   21   25 1
    39   22   23 ar
    40   22   42 1
    41   23   24 1
    42   26   43 1
    43   26   44 1
    44   26   45 1
    45   27   28 2
    46   27   29 am
    47   29   30 1
    48   29   46 1
    49   30   47 1
    50   30   48 1
    51   30   49 1
@<TRIPOS>MOLECULE
ZINC35793138
   54    56     0     0     0
SMALL
USER_CHARGES

@<TRIPOS>ATOM
      1 C1         -1.7173    0.9018   -0.3269 C.3       1 <0>        -0.1137
      2 C2         -0.8145   -0.2932   -0.1603 C.ar      1 <0>        -0.0518
      3 C3         -0.0696   -0.7595   -1.2439 C.ar      1 <0>        -0.0334
      4 C4          0.7643   -1.8627   -1.0894 C.ar      1 <0>        -0.0395
      5 C5          0.8510   -2.4967    0.1488 C.ar      1 <0>        -0.1142
      6 C6          0.1015   -2.0222    1.2268 C.ar      1 <0>        -0.1056
      7 C7         -0.7216   -0.9220    1.0681 C.ar      1 <0>         0.0924
      8 F1         -1.4408   -0.4628    2.1155 F         1 <0>        -0.1283
      9 C8          1.7347   -3.6699    0.3202 C.2       1 <0>         0.5677
     10 O1          2.3864   -4.0822   -0.6193 O.2       1 <0>        -0.5251
     11 N1          1.8175   -4.2819    1.5181 N.am      1 <0>        -0.6975
     12 C9          2.6930   -5.4442    1.6879 C.3       1 <0>         0.0761
     13 C10         2.1404   -6.6363    2.4717 C.3       1 <0>        -0.1909
     14 C11         3.2102   -5.7391    3.0973 C.3       1 <0>        -0.1872
     15 C12        -0.1668   -0.0809   -2.5583 C.ar      1 <0>         0.1889
     16 C13        -0.3615   -0.8401   -3.7123 C.ar      1 <0>        -0.1564
     17 C14        -0.4510   -0.2006   -4.9325 C.ar      1 <0>        -0.0106
     18 C15        -0.3416    1.1967   -4.9621 C.ar      1 <0>        -0.1845
     19 C16        -0.1473    1.8878   -3.7645 C.ar      1 <0>         0.1387
     20 N2         -0.0728    1.2419   -2.6212 N.ar      1 <0>        -0.4679
     21 C17        -0.4301    1.9277   -6.2426 C.2       1 <0>         0.5627
     22 O2         -0.5990    1.3175   -7.2804 O.2       1 <0>        -0.5295
     23 N3         -0.3237    3.2711   -6.2603 N.am      1 <0>        -0.7220
     24 C18        -0.4116    3.9962   -7.5303 C.3       1 <0>         0.1285
     25 C19        -0.2607    5.4967   -7.2724 C.3       1 <0>        -0.0824
     26 C20         1.0976    5.7685   -6.6229 C.3       1 <0>        -0.1450
     27 C21        -0.3524    6.2539   -8.5988 C.3       1 <0>        -0.1411
     28 C22        -1.3765    5.9682   -6.3378 C.3       1 <0>        -0.1448
     29 H1         -1.1372    1.8159   -0.2008 H         1 <0>         0.0912
     30 H2         -2.1598    0.8868   -1.3230 H         1 <0>         0.0718
     31 H3         -2.5081    0.8671    0.4224 H         1 <0>         0.0716
     32 H4          1.3421   -2.2267   -1.9261 H         1 <0>         0.1496
     33 H5          0.1672   -2.5125    2.1868 H         1 <0>         0.1418
     34 H6          1.2974   -3.9528    2.2678 H         1 <0>         0.4019
     35 H7          3.3600   -5.6563    0.8524 H         1 <0>         0.1414
     36 H8          1.1255   -6.5559    2.8609 H         1 <0>         0.0982
     37 H9          2.4438   -7.6332    2.1517 H         1 <0>         0.1053
     38 H10         4.2173   -6.1457    3.1890 H         1 <0>         0.1066
     39 H11         2.8990   -5.0684    3.8982 H         1 <0>         0.0985
     40 H12        -0.4410   -1.9155   -3.6519 H         1 <0>         0.1490
     41 H13        -0.6012   -0.7631   -5.8421 H         1 <0>         0.1540
     42 H14        -0.0614    2.9643   -3.7767 H         1 <0>         0.1604
     43 H15        -0.1890    3.7580   -5.4323 H         1 <0>         0.3993
     44 H16         0.3833    3.6602   -8.1962 H         1 <0>         0.0723
     45 H17        -1.3793    3.8025   -7.9931 H         1 <0>         0.0723
     46 H18         1.8925    5.4326   -7.2888 H         1 <0>         0.0598
     47 H19         1.2051    6.8375   -6.4391 H         1 <0>         0.0618
     48 H20         1.1630    5.2291   -5.6780 H         1 <0>         0.0530
     49 H21        -1.3201    6.0602   -9.0615 H         1 <0>         0.0596
     50 H22        -0.2449    7.3229   -8.4150 H         1 <0>         0.0628
     51 H23         0.4425    5.9179   -9.2646 H         1 <0>         0.0597
     52 H24        -1.3111    5.4288   -5.3929 H         1 <0>         0.0529
     53 H25        -1.2690    7.0373   -6.1540 H         1 <0>         0.0618
     54 H26        -2.3442    5.7746   -6.8005 H         1 <0>         0.0597
@<TRIPOS>BOND
     1    1    2 1
     2    1   29 1
     3    1   30 1
     4    1   31 1
     5    2    7 ar
     6    2    3 ar
     7    3    4 ar
     8    3   15 1
     9    4    5 ar
    10    4   32 1
    11    5    6 ar
    12    5    9 1
    13    6    7 ar
    14    6   33 1
    15    7    8 1
    16    9   10 2
    17    9   11 am
    18   11   12 1
    19   11   34 1
    20   12   14 1
    21   12   13 1
    22   12   35 1
    23   13   14 1
    24   13   36 1
    25   13   37 1
    26   14   38 1
    27   14   39 1
    28   15   20 ar
    29   15   16 ar
    30   16   17 ar
    31   16   40 1
    32   17   18 ar
    33   17   41 1
    34   18   19 ar
    35   18   21 1
    36   19   20 ar
    37   19   42 1
    38   21   22 2
    39   21   23 am
    40   23   24 1
    41   23   43 1
    42   24   25 1
    43   24   44 1
    44   24   45 1
    45   25   26 1
    46   25   27 1
    47   25   28 1
    48   26   46 1
    49   26   47 1
    50   26   48 1
    51   27   49 1
    52   27   50 1
    53   27   51 1
    54   28   52 1
    55   28   53 1
    56   28   54 1
@<TRIPOS>MOLECULE
ZINC30691792
   49    51     0     0     0
SMALL
USER_CHARGES
6-(2,4-difluorophenoxy)-2-[[3-hydroxy-1-(2-hydroxyethyl)propyl]amino]-8-methyl-pyrido[2,3-d]pyrimidin-7-one
@<TRIPOS>ATOM
      1 C1          4.8540   -2.9986    0.3688 C.3       1 <0>         0.0683
      2 N1          3.5707   -2.2985    0.2736 N.am      1 <0>        -0.4995
      3 C2          2.4049   -3.0209    0.2849 C.ar      1 <0>         0.4522
      4 C3          1.1663   -2.3495    0.1933 C.ar      1 <0>        -0.2637
      5 C4          1.1502   -0.8930    0.0880 C.2       1 <0>        -0.0905
      6 C5          2.3412   -0.2332    0.0821 C.2       1 <0>         0.0088
      7 C6          3.5538   -0.9577    0.1711 C.2       1 <0>         0.5622
      8 O1          4.6102   -0.3501    0.1597 O.2       1 <0>        -0.4932
      9 O2          2.3658    1.1229   -0.0150 O.3       1 <0>        -0.2185
     10 C7          1.1794    1.7863    0.0107 C.ar      1 <0>         0.0320
     11 C8          0.5956    2.2109   -1.1735 C.ar      1 <0>        -0.0597
     12 C9         -0.6071    2.8905   -1.1457 C.ar      1 <0>        -0.1491
     13 C10        -1.2361    3.1387    0.0626 C.ar      1 <0>         0.1407
     14 C11        -0.6563    2.7158    1.2465 C.ar      1 <0>        -0.1818
     15 C12         0.5505    2.0402    1.2232 C.ar      1 <0>         0.1250
     16 F1          1.1168    1.6272    2.3782 F         1 <0>        -0.1160
     17 F2         -2.4144    3.7992    0.0867 F         1 <0>        -0.1226
     18 C13        -0.0117   -3.1039    0.2059 C.ar      1 <0>         0.2539
     19 N2          0.0838   -4.4183    0.3034 N.ar      1 <0>        -0.5757
     20 C14         1.2660   -5.0175    0.3878 C.ar      1 <0>         0.6098
     21 N3          2.4068   -4.3447    0.3802 N.ar      1 <0>        -0.5977
     22 N4          1.3073   -6.3949    0.4880 N.pl3     1 <0>        -0.6963
     23 C15         0.0619   -7.1662    0.4994 C.3       1 <0>         0.1696
     24 C16         0.3365   -8.5858   -0.0008 C.3       1 <0>        -0.1274
     25 C17         0.7677   -8.5351   -1.4679 C.3       1 <0>         0.0867
     26 O3          1.0243   -9.8610   -1.9351 O.3       1 <0>        -0.6043
     27 C18        -0.4881   -7.2256    1.9259 C.3       1 <0>        -0.1310
     28 C19        -0.8795   -5.8181    2.3806 C.3       1 <0>         0.0963
     29 O4         -1.3932   -5.8736    3.7130 O.3       1 <0>        -0.6094
     30 H1          4.6761   -4.0814    0.4453 H         1 <0>         0.1086
     31 H2          5.3954   -2.6520    1.2614 H         1 <0>         0.0815
     32 H3          5.4540   -2.7881   -0.5288 H         1 <0>         0.0815
     33 H4          0.2175   -0.3531    0.0162 H         1 <0>         0.1480
     34 H5          1.0832    2.0143   -2.1169 H         1 <0>         0.1573
     35 H6         -1.0591    3.2249   -2.0678 H         1 <0>         0.1555
     36 H7         -1.1461    2.9137    2.1885 H         1 <0>         0.1592
     37 H8         -0.9764   -2.6234    0.1372 H         1 <0>         0.1809
     38 H9          2.2754   -6.9124    0.5592 H         1 <0>         0.4394
     39 H10        -0.6449   -6.6505   -0.1673 H         1 <0>         0.1005
     40 H11         1.1381   -9.0381    0.6016 H         1 <0>         0.0800
     41 H12        -0.5777   -9.1905    0.0920 H         1 <0>         0.0921
     42 H13        -0.0339   -8.0828   -2.0702 H         1 <0>         0.0420
     43 H14         1.6818   -7.9303   -1.5607 H         1 <0>         0.0426
     44 H15         1.3473  -10.0253   -2.9737 H         1 <0>         0.4126
     45 H16        -1.3731   -7.8783    1.9507 H         1 <0>         0.0829
     46 H17         0.2829   -7.6275    2.5997 H         1 <0>         0.0722
     47 H18         0.0056   -5.1654    2.3557 H         1 <0>         0.0338
     48 H19        -1.6505   -5.4162    1.7068 H         1 <0>         0.0533
     49 H20        -1.7283   -4.9524    4.2121 H         1 <0>         0.4072
@<TRIPOS>BOND
     1    1    2 1
     2    1   30 1
     3    1   31 1
     4    1   32 1
     5    2    7 am
     6    2    3 1
     7    3   21 ar
     8    3    4 ar
     9    4    5 1
    10    4   18 ar
    11    5    6 2
    12    5   33 1
    13    6    7 1
    14    6    9 1
    15    7    8 2
    16    9   10 1
    17   10   15 ar
    18   10   11 ar
    19   11   12 ar
    20   11   34 1
    21   12   13 ar
    22   12   35 1
    23   13   14 ar
    24   13   17 1
    25   14   15 ar
    26   14   36 1
    27   15   16 1
    28   18   19 ar
    29   18   37 1
    30   19   20 ar
    31   20   21 ar
    32   20   22 1
    33   22   23 1
    34   22   38 1
    35   23   24 1
    36   23   27 1
    37   23   39 1
    38   24   25 1
    39   24   40 1
    40   24   41 1
    41   25   26 1
    42   25   42 1
    43   25   43 1
    44   26   44 1
    45   27   28 1
    46   27   45 1
    47   27   46 1
    48   28   29 1
    49   28   47 1
    50   28   48 1
    51   29   49 1
@<TRIPOS>MOLECULE
ZINC36377992
   41    43     0     0     0
SMALL
USER_CHARGES

@<TRIPOS>ATOM
      1 C1         -0.4515    0.6754    0.2601 C.ar      1 <0>        -0.0384
      2 C2          0.6760    0.9916   -0.4750 C.ar      1 <0>        -0.1566
      3 C3          1.7918    0.1756   -0.4188 C.ar      1 <0>         0.1477
      4 C4          1.7785   -0.9629    0.3780 C.ar      1 <0>         0.0226
      5 C5          0.6435   -1.2771    1.1157 C.ar      1 <0>         0.1464
      6 C6         -0.4686   -0.4565    1.0540 C.ar      1 <0>        -0.1570
      7 F1          0.6257   -2.3831    1.8915 F         1 <0>        -0.1144
      8 N1          2.9080   -1.7932    0.4373 N.am      1 <0>        -0.5048
      9 C7          3.8916   -1.5617    1.3921 C.ar      1 <0>         0.4090
     10 C8          3.6937   -0.5728    2.3546 C.ar      1 <0>        -0.2052
     11 C9          4.6693   -0.3428    3.3021 C.ar      1 <0>        -0.0088
     12 C10         5.8358   -1.1196    3.2623 C.ar      1 <0>        -0.2080
     13 C11         5.9664   -2.1000    2.2617 C.ar      1 <0>         0.2617
     14 N2          4.9981   -2.2874    1.3759 N.ar      1 <0>        -0.4541
     15 C12         7.1899   -2.9309    2.2011 C.ar      1 <0>        -0.0596
     16 C13         7.2993   -4.0749    2.9922 C.ar      1 <0>        -0.0259
     17 C14         8.4405   -4.8460    2.9321 C.ar      1 <0>        -0.1576
     18 C15         9.4800   -4.4874    2.0872 C.ar      1 <0>         0.1374
     19 C16         9.3790   -3.3530    1.2992 C.ar      1 <0>        -0.1885
     20 C17         8.2371   -2.5757    1.3471 C.ar      1 <0>         0.1638
     21 F2          8.1362   -1.4722    0.5743 F         1 <0>        -0.1281
     22 F3         10.5957   -5.2473    2.0329 F         1 <0>        -0.1310
     23 C18         6.9076   -0.9123    4.2518 C.2       1 <0>         0.5688
     24 O1          7.9558   -1.5203    4.1492 O.2       1 <0>        -0.5180
     25 N3          6.7262   -0.0488    5.2707 N.am      1 <0>        -0.8501
     26 C19         3.0394   -2.8152   -0.4315 C.2       1 <0>         0.7040
     27 O2          4.0180   -3.5346   -0.3802 O.2       1 <0>        -0.5065
     28 N4          2.0858   -3.0396   -1.3572 N.am      1 <0>        -0.8545
     29 F4          2.8928    0.4848   -1.1381 F         1 <0>        -0.1138
     30 H1         -1.3196    1.3165    0.2175 H         1 <0>         0.1561
     31 H2          0.6857    1.8765   -1.0940 H         1 <0>         0.1561
     32 H3         -1.3511   -0.7001    1.6270 H         1 <0>         0.1561
     33 H4          2.7838    0.0089    2.3580 H         1 <0>         0.1421
     34 H5          4.5379    0.4183    4.0570 H         1 <0>         0.1497
     35 H6          6.4911   -4.3559    3.6512 H         1 <0>         0.1382
     36 H7          8.5253   -5.7313    3.5447 H         1 <0>         0.1450
     37 H8         10.1916   -3.0779    0.6432 H         1 <0>         0.1500
     38 H9          5.8902    0.4361    5.3525 H         1 <0>         0.3988
     39 H10         7.4318    0.0877    5.9221 H         1 <0>         0.4086
     40 H11         1.3050   -2.4656   -1.3981 H         1 <0>         0.3955
     41 H12         2.1804   -3.7751   -1.9825 H         1 <0>         0.4233
@<TRIPOS>BOND
     1    1    6 ar
     2    1    2 ar
     3    1   30 1
     4    2    3 ar
     5    2   31 1
     6    3    4 ar
     7    3   29 1
     8    4    5 ar
     9    4    8 1
    10    5    6 ar
    11    5    7 1
    12    6   32 1
    13    8    9 1
    14    8   26 am
    15    9   14 ar
    16    9   10 ar
    17   10   11 ar
    18   10   33 1
    19   11   12 ar
    20   11   34 1
    21   12   13 ar
    22   12   23 1
    23   13   14 ar
    24   13   15 1
    25   15   20 ar
    26   15   16 ar
    27   16   17 ar
    28   16   35 1
    29   17   18 ar
    30   17   36 1
    31   18   19 ar
    32   18   22 1
    33   19   20 ar
    34   19   37 1
    35   20   21 1
    36   23   24 2
    37   23   25 am
    38   25   38 1
    39   25   39 1
    40   26   27 2
    41   26   28 am
    42   28   40 1
    43   28   41 1
@<TRIPOS>MOLECULE
ZINC06718469
   48    51     0     0     0
SMALL
USER_CHARGES

@<TRIPOS>ATOM
      1 C1         -0.0820    1.4325    0.2710 C.ar      1 <0>        -0.0859
      2 C2          1.0869    2.1638    0.3033 C.ar      1 <0>        -0.1059
      3 C3          2.3082    1.5299    0.1472 C.ar      1 <0>        -0.0198
      4 C4          2.3641    0.1593   -0.0426 C.ar      1 <0>        -0.1055
      5 C5          1.2021   -0.5829   -0.0773 C.ar      1 <0>        -0.0695
      6 C6         -0.0322    0.0503    0.0804 C.ar      1 <0>        -0.0434
      7 C7         -1.2806   -0.7391    0.0452 C.2       1 <0>         0.1612
      8 C8         -1.5300   -1.9231    0.7295 C.2       1 <0>        -0.1850
      9 C9         -2.8396   -2.3239    0.4054 C.2       1 <0>         0.1261
     10 N1         -3.3499   -1.4470   -0.4166 N.2       1 <0>        -0.2716
     11 N2         -2.4066   -0.4419   -0.6586 N.pl3     1 <0>        -0.4570
     12 H1         -2.5328    0.3314   -1.2304 H         1 <0>         0.4458
     13 C10        -3.5355   -3.5576    0.9198 C.3       1 <0>        -0.0054
     14 C11        -4.7974   -3.1501    1.6839 C.3       1 <0>        -0.1266
     15 C12        -5.4834   -4.4043    2.2346 C.3       1 <0>         0.1146
     16 N3         -5.7244   -5.3372    1.1254 N.am      1 <0>        -0.6135
     17 C13        -4.5945   -5.7247    0.2700 C.3       1 <0>         0.1070
     18 C14        -3.9185   -4.4558   -0.2587 C.3       1 <0>        -0.1231
     19 C15        -6.9586   -5.8285    0.8973 C.2       1 <0>         0.5139
     20 O1         -7.8830   -5.5012    1.6108 O.2       1 <0>        -0.5181
     21 C16        -7.1898   -6.7845   -0.2445 C.3       1 <0>         0.0601
     22 O2         -8.5680   -7.1603   -0.2795 O.3       1 <0>        -0.5485
     23 C17        -0.5928   -2.6306    1.6302 C.ar      1 <0>         0.2611
     24 C18         0.0992   -1.9336    2.6270 C.ar      1 <0>        -0.2142
     25 C19         0.9622   -2.6412    3.4419 C.ar      1 <0>         0.1521
     26 N4          1.1053   -3.9453    3.2547 N.ar      1 <0>        -0.5239
     27 C20         0.4393   -4.5739    2.3068 C.ar      1 <0>         0.2985
     28 N5         -0.3977   -3.9434    1.5094 N.ar      1 <0>        -0.5120
     29 Cl1         3.7752    2.4573    0.1892 Cl        1 <0>        -0.0571
     30 H2         -1.0336    1.9273    0.3973 H         1 <0>         0.1364
     31 H3          1.0497    3.2331    0.4503 H         1 <0>         0.1423
     32 H4          3.3195   -0.3295   -0.1641 H         1 <0>         0.1413
     33 H5          1.2469   -1.6517   -0.2258 H         1 <0>         0.1330
     34 H6         -2.8663   -4.1003    1.5875 H         1 <0>         0.0979
     35 H7         -4.5263   -2.4916    2.5091 H         1 <0>         0.0766
     36 H8         -5.4781   -2.6291    1.0106 H         1 <0>         0.0765
     37 H9         -4.8396   -4.8770    2.9764 H         1 <0>         0.0703
     38 H10        -6.4329   -4.1295    2.6939 H         1 <0>         0.0970
     39 H11        -3.8782   -6.3051    0.8515 H         1 <0>         0.0776
     40 H12        -4.9575   -6.3212   -0.5669 H         1 <0>         0.0869
     41 H13        -4.6074   -3.9224   -0.9137 H         1 <0>         0.0747
     42 H14        -3.0218   -4.7265   -0.8161 H         1 <0>         0.0839
     43 H15        -6.9212   -6.3006   -1.1836 H         1 <0>         0.0777
     44 H16        -6.5743   -7.6731   -0.1046 H         1 <0>         0.0778
     45 H17        -8.7899   -7.7760   -0.9914 H         1 <0>         0.3876
     46 H18        -0.0374   -0.8701    2.7558 H         1 <0>         0.1427
     47 H19         1.5137   -2.1373    4.2218 H         1 <0>         0.1681
     48 H20         0.5809   -5.6374    2.1833 H         1 <0>         0.1972
@<TRIPOS>BOND
     1    1    6 ar
     2    1    2 ar
     3    1   30 1
     4    2    3 ar
     5    2   31 1
     6    3    4 ar
     7    3   29 1
     8    4    5 ar
     9    4   32 1
    10    5    6 ar
    11    5   33 1
    12    6    7 1
    13    7   11 1
    14    7    8 2
    15    8    9 1
    16    8   23 1
    17    9   10 2
    18    9   13 1
    19   10   11 1
    20   11   12 1
    21   13   18 1
    22   13   14 1
    23   13   34 1
    24   14   15 1
    25   14   35 1
    26   14   36 1
    27   15   16 1
    28   15   37 1
    29   15   38 1
    30   16   17 1
    31   16   19 am
    32   17   18 1
    33   17   39 1
    34   17   40 1
    35   18   41 1
    36   18   42 1
    37   19   20 2
    38   19   21 1
    39   21   22 1
    40   21   43 1
    41   21   44 1
    42   22   45 1
    43   23   28 ar
    44   23   24 ar
    45   24   25 ar
    46   24   46 1
    47   25   26 ar
    48   25   47 1
    49   26   27 ar
    50   27   28 ar
    51   27   48 1
@<TRIPOS>MOLECULE
ZINC34008249
   46    49     0     0     0
SMALL
USER_CHARGES

@<TRIPOS>ATOM
      1 C1         -0.0593    1.4571    0.0320 C.3       1 <0>        -0.0471
      2 N1         -0.0290   -0.0110   -0.0087 N.4       1 <0>        -0.3857
      3 C2          0.7897   -0.4507   -1.1448 C.3       1 <0>        -0.0052
      4 C3          0.7585   -1.9777   -1.2401 C.3       1 <0>        -0.1368
      5 C4          1.3160   -2.5759    0.0547 C.3       1 <0>        -0.0132
      6 C5          0.5006   -2.0516    1.2402 C.3       1 <0>        -0.1421
      7 C6          0.5413   -0.5220    1.2435 C.3       1 <0>        -0.0046
      8 C7          1.2159   -4.0786   -0.0006 C.2       1 <0>         0.1099
      9 C8          2.2954   -4.9781    0.0809 C.2       1 <0>        -0.1834
     10 C9          1.7693   -6.2616   -0.0106 C.2       1 <0>         0.1787
     11 N2          0.4215   -6.1305   -0.1421 N.pl3     1 <0>        -0.4493
     12 N3          0.1127   -4.7656   -0.1264 N.2       1 <0>        -0.2751
     13 H1         -0.2154   -6.8571   -0.2280 H         1 <0>         0.4507
     14 C10         2.5297   -7.5279    0.0273 C.ar      1 <0>        -0.0584
     15 C11         3.6818   -7.6770   -0.7470 C.ar      1 <0>        -0.0673
     16 C12         4.3876   -8.8613   -0.7070 C.ar      1 <0>        -0.1056
     17 C13         3.9556   -9.9012    0.0991 C.ar      1 <0>        -0.0144
     18 C14         2.8136   -9.7593    0.8694 C.ar      1 <0>        -0.1053
     19 C15         2.1022   -8.5780    0.8420 C.ar      1 <0>        -0.0826
     20 Cl1         4.8490  -11.3890    0.1436 Cl        1 <0>        -0.0483
     21 C16         3.7239   -4.6237    0.2347 C.ar      1 <0>         0.2532
     22 C17         4.5188   -5.2697    1.1882 C.ar      1 <0>        -0.2112
     23 C18         5.8466   -4.9017    1.2916 C.ar      1 <0>         0.1567
     24 N4          6.3203   -3.9573    0.4915 N.ar      1 <0>        -0.5183
     25 C19         5.5463   -3.3669   -0.3971 C.ar      1 <0>         0.2978
     26 N5          4.2767   -3.6876   -0.5362 N.ar      1 <0>        -0.5197
     27 H2          0.9548    1.8383    0.1521 H         1 <0>         0.1219
     28 H3         -0.4827    1.8377   -0.8976 H         1 <0>         0.1243
     29 H4         -0.6724    1.7848    0.8715 H         1 <0>         0.1236
     30 H5          0.3936   -0.0216   -2.0652 H         1 <0>         0.1340
     31 H6          1.8175   -0.1170   -1.0023 H         1 <0>         0.1311
     32 H7         -0.2689   -2.3125   -1.3830 H         1 <0>         0.0939
     33 H8          1.3684   -2.3023   -2.0832 H         1 <0>         0.1180
     34 H9          2.3593   -2.2830    0.1719 H         1 <0>         0.1107
     35 H10        -0.5322   -2.3881    1.1488 H         1 <0>         0.0964
     36 H11         0.9261   -2.4291    2.1700 H         1 <0>         0.1120
     37 H12         1.5744   -0.1867    1.3352 H         1 <0>         0.1295
     38 H13        -0.0381   -0.1454    2.0865 H         1 <0>         0.1336
     39 H14         4.0195   -6.8669   -1.3763 H         1 <0>         0.1319
     40 H15         5.2788   -8.9781   -1.3058 H         1 <0>         0.1436
     41 H16         2.4816  -10.5738    1.4961 H         1 <0>         0.1452
     42 H17         1.2143   -8.4668    1.4466 H         1 <0>         0.1366
     43 H18         4.1050   -6.0359    1.8270 H         1 <0>         0.1449
     44 H19         6.4908   -5.3778    2.0160 H         1 <0>         0.1716
     45 H20         5.9664   -2.6011   -1.0322 H         1 <0>         0.1980
     46 H21        -0.9684   -0.3628   -0.1175 H         1 <0>         0.4254
@<TRIPOS>BOND
     1    1    2 1
     2    1   27 1
     3    1   28 1
     4    1   29 1
     5    2    7 1
     6    2    3 1
     7    2   46 1
     8    3    4 1
     9    3   30 1
    10    3   31 1
    11    4    5 1
    12    4   32 1
    13    4   33 1
    14    5    6 1
    15    5    8 1
    16    5   34 1
    17    6    7 1
    18    6   35 1
    19    6   36 1
    20    7   37 1
    21    7   38 1
    22    8    9 1
    23    8   12 2
    24    9   21 1
    25    9   10 2
    26   10   14 1
    27   10   11 1
    28   11   13 1
    29   11   12 1
    30   14   19 ar
    31   14   15 ar
    32   15   16 ar
    33   15   39 1
    34   16   17 ar
    35   16   40 1
    36   17   18 ar
    37   17   20 1
    38   18   19 ar
    39   18   41 1
    40   19   42 1
    41   21   26 ar
    42   21   22 ar
    43   22   23 ar
    44   22   43 1
    45   23   24 ar
    46   23   44 1
    47   24   25 ar
    48   25   26 ar
    49   25   45 1
@<TRIPOS>MOLECULE
ZINC26961992
   50    53     0     0     0
SMALL
USER_CHARGES

@<TRIPOS>ATOM
      1 C1          0.4682    0.9662    0.0061 C.3       1 <0>        -0.1654
      2 C2          0.3197   -0.5534    0.1039 C.3       1 <0>         0.1941
      3 H1          0.7517   -0.9010    1.0424 H         1 <0>         0.0884
      4 C3          1.0374   -1.2037   -1.0507 C.ar      1 <0>        -0.0949
      5 C4          0.4392   -1.2547   -2.2959 C.ar      1 <0>        -0.1110
      6 C5          1.0975   -1.8512   -3.3550 C.ar      1 <0>        -0.1148
      7 C6          2.3542   -2.3962   -3.1691 C.ar      1 <0>        -0.1161
      8 C7          2.9528   -2.3443   -1.9241 C.ar      1 <0>        -0.1153
      9 C8          2.2963   -1.7441   -0.8660 C.ar      1 <0>        -0.1079
     10 N1         -1.1007   -0.9093    0.0588 N.pl3     1 <0>        -0.7181
     11 C9         -1.8587   -0.8938    1.2246 C.ar      1 <0>         0.4128
     12 C10        -1.2634   -0.5348    2.4251 C.ar      1 <0>        -0.2331
     13 C11        -2.0404   -0.5245    3.5889 C.ar      1 <0>         0.0676
     14 C12        -3.3949   -0.8804    3.4854 C.ar      1 <0>        -0.2043
     15 C13        -3.9054   -1.2236    2.2545 C.ar      1 <0>         0.1588
     16 N2         -3.1431   -1.2170    1.1753 N.ar      1 <0>        -0.5393
     17 C14        -1.4529   -0.1507    4.8880 C.2       1 <0>         0.0343
     18 C15        -1.5860   -0.8303    6.0840 C.2       1 <0>         0.0852
     19 N3         -0.8938   -0.1528    7.0189 N.2       1 <0>        -0.4715
     20 C16        -0.3392    0.9060    6.4760 C.2       1 <0>         0.2102
     21 N4         -0.6532    0.9475    5.1521 N.pl3     1 <0>        -0.5393
     22 H2         -0.3713    1.6216    4.5141 H         1 <0>         0.4275
     23 S1          0.6596    2.0832    7.3252 S.3       1 <0>        -0.0251
     24 C17         0.7056    1.4701    9.0318 C.3       1 <0>        -0.1283
     25 C18        -2.3530   -2.0792    6.2988 C.ar      1 <0>        -0.0171
     26 C19        -2.2694   -3.1196    5.3735 C.ar      1 <0>        -0.0659
     27 C20        -2.9853   -4.2808    5.5783 C.ar      1 <0>        -0.1511
     28 C21        -3.7868   -4.4146    6.7007 C.ar      1 <0>         0.1044
     29 C22        -3.8736   -3.3837    7.6225 C.ar      1 <0>        -0.1535
     30 C23        -3.1567   -2.2210    7.4299 C.ar      1 <0>        -0.0613
     31 F1         -4.4864   -5.5536    6.8966 F         1 <0>        -0.1381
     32 H3          1.5250    1.2309    0.0397 H         1 <0>         0.0703
     33 H4          0.0362    1.3138   -0.9324 H         1 <0>         0.0646
     34 H5         -0.0509    1.4365    0.8412 H         1 <0>         0.0615
     35 H6         -0.5426   -0.8289   -2.4411 H         1 <0>         0.1211
     36 H7          0.6299   -1.8917   -4.3276 H         1 <0>         0.1250
     37 H8          2.8683   -2.8628   -3.9964 H         1 <0>         0.1243
     38 H9          3.9345   -2.7704   -1.7788 H         1 <0>         0.1255
     39 H10         2.7655   -1.7002    0.1058 H         1 <0>         0.1237
     40 H11        -1.5124   -1.1556   -0.7842 H         1 <0>         0.4061
     41 H12        -0.2174   -0.2681    2.4611 H         1 <0>         0.1301
     42 H13        -4.0276   -0.8851    4.3606 H         1 <0>         0.1354
     43 H14        -4.9463   -1.4985    2.1685 H         1 <0>         0.1611
     44 H15        -0.3081    1.4281    9.4302 H         1 <0>         0.0920
     45 H16         1.1438    0.4722    9.0476 H         1 <0>         0.0920
     46 H17         1.3087    2.1415    9.6430 H         1 <0>         0.1140
     47 H18        -1.6455   -3.0160    4.4981 H         1 <0>         0.1292
     48 H19        -2.9212   -5.0869    4.8624 H         1 <0>         0.1377
     49 H20        -4.5002   -3.4924    8.4954 H         1 <0>         0.1387
     50 H21        -3.2212   -1.4199    8.1515 H         1 <0>         0.1356
@<TRIPOS>BOND
     1    1    2 1
     2    1   32 1
     3    1   33 1
     4    1   34 1
     5    2    3 1
     6    2    4 1
     7    2   10 1
     8    4    9 ar
     9    4    5 ar
    10    5    6 ar
    11    5   35 1
    12    6    7 ar
    13    6   36 1
    14    7    8 ar
    15    7   37 1
    16    8    9 ar
    17    8   38 1
    18    9   39 1
    19   10   11 1
    20   10   40 1
    21   11   16 ar
    22   11   12 ar
    23   12   13 ar
    24   12   41 1
    25   13   14 ar
    26   13   17 1
    27   14   15 ar
    28   14   42 1
    29   15   16 ar
    30   15   43 1
    31   17   21 1
    32   17   18 2
    33   18   19 1
    34   18   25 1
    35   19   20 2
    36   20   21 1
    37   20   23 1
    38   21   22 1
    39   23   24 1
    40   24   44 1
    41   24   45 1
    42   24   46 1
    43   25   30 ar
    44   25   26 ar
    45   26   27 ar
    46   26   47 1
    47   27   28 ar
    48   27   48 1
    49   28   29 ar
    50   28   31 1
    51   29   30 ar
    52   29   49 1
    53   30   50 1
@<TRIPOS>MOLECULE
ZINC26961992
   51    54     0     0     0
SMALL
USER_CHARGES
4-[5-(4-fluorophenyl)-2-methylsulfanyl-3H-imidazol-4-yl]-N-[(1R)-1-phenylethyl]pyridin-2-amine
@<TRIPOS>ATOM
      1 C1         -0.0163    1.0983    0.0045 C.3       1 <0>        -0.1701
      2 C2         -0.7312    1.5882    1.2653 C.3       1 <0>         0.1891
      3 H1         -0.2051    1.2555    2.1722 H         1 <0>         0.1065
      4 C3         -2.1453    1.0675    1.2754 C.ar      1 <0>        -0.1093
      5 C4         -3.1199    1.6991    0.5256 C.ar      1 <0>        -0.1178
      6 C5         -4.4161    1.2188    0.5314 C.ar      1 <0>        -0.1110
      7 C6         -4.7398    0.1123    1.2942 C.ar      1 <0>        -0.1054
      8 C7         -3.7663   -0.5161    2.0482 C.ar      1 <0>        -0.1079
      9 C8         -2.4692   -0.0384    2.0389 C.ar      1 <0>        -0.1012
     10 N1         -0.7502    3.0531    1.2779 N.pl3     1 <0>        -0.7067
     11 C9          0.3374    3.7582    1.7817 C.ar      1 <0>         0.4634
     12 C10         1.4363    3.0667    2.2705 C.ar      1 <0>        -0.1784
     13 C11         2.5222    3.7916    2.7739 C.ar      1 <0>         0.1698
     14 C12         2.4476    5.1938    2.7603 C.ar      1 <0>        -0.1565
     15 C13         1.3193    5.7998    2.2570 C.ar      1 <0>         0.1735
     16 N2          0.3146    5.0834    1.7847 N.ar      1 <0>        -0.5315
     17 C14         3.7124    3.1019    3.3036 C.2       1 <0>         0.0038
     18 C15         5.0339    3.4094    3.0408 C.2       1 <0>         0.0682
     19 N3          5.8003    2.5361    3.7207 N.pl3     1 <0>        -0.5271
     20 C16         5.0349    1.7014    4.3846 C.2       1 <0>         0.2004
     21 N4          3.7294    2.0174    4.1632 N.2       1 <0>        -0.4299
     22 H2          6.8965    2.6020    3.6586 H         1 <0>         0.4587
     23 S1          5.6069    0.3852    5.4068 S.3       1 <0>         0.0435
     24 C17         7.3948    0.6006    5.2254 C.3       1 <0>        -0.1849
     25 C18         5.5197    4.5033    2.1680 C.ar      1 <0>        -0.0492
     26 C19         4.8145    4.8429    1.0135 C.ar      1 <0>        -0.0704
     27 C20         5.2681    5.8657    0.2068 C.ar      1 <0>        -0.1461
     28 C21         6.4283    6.5483    0.5359 C.ar      1 <0>         0.1201
     29 C22         7.1353    6.2110    1.6790 C.ar      1 <0>        -0.1408
     30 C23         6.6871    5.1932    2.4949 C.ar      1 <0>        -0.0760
     31 F1          6.8718    7.5453   -0.2606 F         1 <0>        -0.1276
     32 H3          1.0159    1.4784   -0.0029 H         1 <0>         0.0664
     33 H4         -0.5488    1.4658   -0.8852 H         1 <0>         0.0725
     34 H5         -0.0021   -0.0016   -0.0050 H         1 <0>         0.0878
     35 H6         -2.8679    2.5658   -0.0674 H         1 <0>         0.1174
     36 H7         -5.1765    1.7096   -0.0579 H         1 <0>         0.1292
     37 H8         -5.7530   -0.2614    1.3009 H         1 <0>         0.1303
     38 H9         -4.0192   -1.3806    2.6442 H         1 <0>         0.1318
     39 H10        -1.7087   -0.5294    2.6280 H         1 <0>         0.1289
     40 H11        -1.6247    3.5952    0.8889 H         1 <0>         0.4406
     41 H12         1.4610    2.0670    2.2669 H         1 <0>         0.1601
     42 H13         3.2008    5.7510    3.1099 H         1 <0>         0.1576
     43 H14         1.2523    6.7975    2.2414 H         1 <0>         0.1830
     44 H15         7.9182   -0.1642    5.8179 H         1 <0>         0.1312
     45 H16         7.6816    1.6008    5.5822 H         1 <0>         0.0906
     46 H17         7.6710    0.4962    4.1658 H         1 <0>         0.0907
     47 H18         3.9128    4.3084    0.7537 H         1 <0>         0.1291
     48 H19         4.7203    6.1324   -0.6849 H         1 <0>         0.1446
     49 H20         8.0391    6.7459    1.9312 H         1 <0>         0.1477
     50 H21         7.2392    4.9307    3.3852 H         1 <0>         0.1348
     51 H22        -0.5592    5.6193    1.3857 H         1 <0>         0.4765
@<TRIPOS>BOND
     1    1    2 1
     2    1   32 1
     3    1   33 1
     4    1   34 1
     5    2    3 1
     6    2    4 1
     7    2   10 1
     8    4    9 ar
     9    4    5 ar
    10    5    6 ar
    11    5   35 1
    12    6    7 ar
    13    6   36 1
    14    7    8 ar
    15    7   37 1
    16    8    9 ar
    17    8   38 1
    18    9   39 1
    19   10   11 1
    20   10   40 1
    21   11   16 ar
    22   11   12 ar
    23   12   13 ar
    24   12   41 1
    25   13   14 ar
    26   13   17 1
    27   14   15 ar
    28   14   42 1
    29   15   16 ar
    30   15   43 1
    31   16   51 1
    32   17   21 1
    33   17   18 2
    34   18   25 1
    35   18   19 1
    36   19   22 1
    37   19   20 1
    38   20   23 1
    39   20   21 2
    40   23   24 1
    41   24   44 1
    42   24   45 1
    43   24   46 1
    44   25   30 ar
    45   25   26 ar
    46   26   27 ar
    47   26   47 1
    48   27   28 ar
    49   27   48 1
    50   28   29 ar
    51   28   31 1
    52   29   30 ar
    53   29   49 1
    54   30   50 1
@<TRIPOS>MOLECULE
ZINC13524440
   50    53     0     0     0
SMALL
USER_CHARGES

@<TRIPOS>ATOM
      1 C1          0.2281    2.1476   -0.1663 C.3       1 <0>        -0.1660
      2 C2          0.0458    0.6303   -0.0915 C.3       1 <0>         0.1951
      3 H1          0.5097    0.2531    0.8198 H         1 <0>         0.0869
      4 C3         -1.4248    0.3010   -0.0800 C.ar      1 <0>        -0.0948
      5 C4         -2.1395    0.2887   -1.2632 C.ar      1 <0>        -0.1109
      6 C5         -3.4884   -0.0134   -1.2526 C.ar      1 <0>        -0.1146
      7 C6         -4.1225   -0.3035   -0.0590 C.ar      1 <0>        -0.1163
      8 C7         -3.4075   -0.2919    1.1240 C.ar      1 <0>        -0.1154
      9 C8         -2.0576    0.0059    1.1129 C.ar      1 <0>        -0.1085
     10 N1          0.6772    0.0047   -1.2561 N.pl3     1 <0>        -0.7183
     11 C9          2.0358   -0.2915   -1.2350 C.ar      1 <0>         0.4128
     12 C10         2.7847    0.0037   -0.1051 C.ar      1 <0>        -0.2331
     13 C11         4.1505   -0.3008   -0.1005 C.ar      1 <0>         0.0676
     14 C12         4.7018   -0.8947   -1.2474 C.ar      1 <0>        -0.2044
     15 C13         3.8867   -1.1537   -2.3255 C.ar      1 <0>         0.1589
     16 N2          2.5995   -0.8575   -2.2926 N.ar      1 <0>        -0.5393
     17 C14         4.9879   -0.0058    1.0761 C.2       1 <0>         0.0343
     18 C15         6.2179    0.6243    1.0810 C.2       1 <0>         0.0854
     19 N3          6.6369    0.6939    2.3584 N.2       1 <0>        -0.4716
     20 C16         5.7419    0.1454    3.1467 C.2       1 <0>         0.2104
     21 N4          4.6963   -0.2991    2.3969 N.pl3     1 <0>        -0.5395
     22 H2          3.8979   -0.7405    2.7263 H         1 <0>         0.4274
     23 S1          5.8704    0.0121    4.8989 S.3       1 <0>        -0.0253
     24 C17         7.4652    0.7870    5.2822 C.3       1 <0>        -0.1282
     25 C18         6.9449    1.1311   -0.1060 C.ar      1 <0>        -0.0171
     26 C19         6.2592    1.8254   -1.1026 C.ar      1 <0>        -0.0658
     27 C20         6.9408    2.2958   -2.2058 C.ar      1 <0>        -0.1511
     28 C21         8.3042    2.0791   -2.3251 C.ar      1 <0>         0.1044
     29 C22         8.9897    1.3894   -1.3380 C.ar      1 <0>        -0.1535
     30 C23         8.3183    0.9205   -0.2279 C.ar      1 <0>        -0.0613
     31 F1          8.9672    2.5413   -3.4077 F         1 <0>        -0.1381
     32 H3          1.2918    2.3857   -0.1746 H         1 <0>         0.0637
     33 H4         -0.2358    2.5248   -1.0776 H         1 <0>         0.0645
     34 H5         -0.2417    2.6131    0.7002 H         1 <0>         0.0699
     35 H6         -1.6442    0.5153   -2.1957 H         1 <0>         0.1214
     36 H7         -4.0470   -0.0224   -2.1769 H         1 <0>         0.1251
     37 H8         -5.1765   -0.5387   -0.0507 H         1 <0>         0.1244
     38 H9         -3.9029   -0.5183    2.0566 H         1 <0>         0.1254
     39 H10        -1.4982    0.0112    2.0368 H         1 <0>         0.1234
     40 H11         0.1477   -0.2030   -2.0418 H         1 <0>         0.4061
     41 H12         2.3214    0.4612    0.7565 H         1 <0>         0.1301
     42 H13         5.7519   -1.1445   -1.2831 H         1 <0>         0.1354
     43 H14         4.3048   -1.6100   -3.2106 H         1 <0>         0.1611
     44 H15         8.2629    0.2492    4.7699 H         1 <0>         0.0920
     45 H16         7.4543    1.8247    4.9490 H         1 <0>         0.0920
     46 H17         7.6366    0.7526    6.3581 H         1 <0>         0.1140
     47 H18         5.1965    1.9943   -1.0108 H         1 <0>         0.1293
     48 H19         6.4108    2.8336   -2.9780 H         1 <0>         0.1377
     49 H20        10.0522    1.2223   -1.4358 H         1 <0>         0.1387
     50 H21         8.8543    0.3872    0.5433 H         1 <0>         0.1356
@<TRIPOS>BOND
     1    1    2 1
     2    1   32 1
     3    1   33 1
     4    1   34 1
     5    2    3 1
     6    2    4 1
     7    2   10 1
     8    4    9 ar
     9    4    5 ar
    10    5    6 ar
    11    5   35 1
    12    6    7 ar
    13    6   36 1
    14    7    8 ar
    15    7   37 1
    16    8    9 ar
    17    8   38 1
    18    9   39 1
    19   10   11 1
    20   10   40 1
    21   11   16 ar
    22   11   12 ar
    23   12   13 ar
    24   12   41 1
    25   13   14 ar
    26   13   17 1
    27   14   15 ar
    28   14   42 1
    29   15   16 ar
    30   15   43 1
    31   17   21 1
    32   17   18 2
    33   18   19 1
    34   18   25 1
    35   19   20 2
    36   20   21 1
    37   20   23 1
    38   21   22 1
    39   23   24 1
    40   24   44 1
    41   24   45 1
    42   24   46 1
    43   25   30 ar
    44   25   26 ar
    45   26   27 ar
    46   26   47 1
    47   27   28 ar
    48   27   48 1
    49   28   29 ar
    50   28   31 1
    51   29   30 ar
    52   29   49 1
    53   30   50 1
@<TRIPOS>MOLECULE
ZINC13524440
   52    55     0     0     0
SMALL
USER_CHARGES
4-[5-(4-fluorophenyl)-2-methylsulfanyl-3H-imidazol-4-yl]-N-[(1S)-1-phenylethyl]pyridin-2-amine
@<TRIPOS>ATOM
      1 C1         -0.0187    1.5258    0.0104 C.3       1 <0>        -0.1730
      2 C2          0.0021   -0.0041    0.0020 C.3       1 <0>         0.1815
      3 H1          0.5123   -0.3556   -0.8948 H         1 <0>         0.1071
      4 C3          0.7309   -0.5033    1.2229 C.ar      1 <0>        -0.1248
      5 C4          0.0843   -0.5479    2.4439 C.ar      1 <0>        -0.1169
      6 C5          0.7515   -1.0099    3.5629 C.ar      1 <0>        -0.1073
      7 C6          2.0684   -1.4184    3.4629 C.ar      1 <0>        -0.0969
      8 C7          2.7165   -1.3693    2.2429 C.ar      1 <0>        -0.1065
      9 C8          2.0479   -0.9113    1.1230 C.ar      1 <0>        -0.1000
     10 N1         -1.3723   -0.5112    0.0124 N.pl3     1 <0>        -0.6770
     11 C9         -2.0724   -0.6469   -1.1814 C.ar      1 <0>         0.4713
     12 C10        -1.4619   -0.2998   -2.3779 C.ar      1 <0>        -0.1919
     13 C11        -2.1802   -0.4430   -3.5702 C.ar      1 <0>         0.1294
     14 C12        -3.4938   -0.9344   -3.4984 C.ar      1 <0>        -0.1627
     15 C13        -4.0231   -1.2549   -2.2693 C.ar      1 <0>         0.1840
     16 C14        -1.5748   -0.0871   -4.8661 C.2       1 <0>         0.0516
     17 C15        -1.6250   -0.8236   -6.0345 C.2       1 <0>         0.1735
     18 C16        -0.4795    0.9723   -6.4651 C.cat     1 <0>         0.3018
     19 N2         -0.8477    1.0540   -5.1572 N.pl3     1 <0>        -0.4963
     20 H2         -0.6331    1.7987   -4.5253 H         1 <0>         0.4778
     21 S1          0.4693    2.1755   -7.3351 S.3       1 <0>         0.1422
     22 C17         0.5418    1.3979   -8.9679 C.3       1 <0>        -0.2002
     23 C18        -2.3024   -2.1284   -6.2166 C.ar      1 <0>        -0.1029
     24 C19        -2.3209   -3.0582   -5.1771 C.ar      1 <0>        -0.0511
     25 C20        -2.9563   -4.2703   -5.3502 C.ar      1 <0>        -0.1479
     26 C21        -3.5676   -4.5684   -6.5575 C.ar      1 <0>         0.1561
     27 C22        -3.5477   -3.6500   -7.5949 C.ar      1 <0>        -0.1420
     28 C23        -2.9187   -2.4334   -7.4300 C.ar      1 <0>        -0.0522
     29 F1         -4.1845   -5.7588   -6.7239 F         1 <0>        -0.1133
     30 H3          1.0039    1.9031    0.0027 H         1 <0>         0.0938
     31 H4         -0.5459    1.8868   -0.8726 H         1 <0>         0.0631
     32 H5         -0.5289    1.8773    0.9072 H         1 <0>         0.0781
     33 H6         -0.9433   -0.2249    2.5228 H         1 <0>         0.1169
     34 H7          0.2450   -1.0486    4.5160 H         1 <0>         0.1332
     35 H8          2.5907   -1.7762    4.3378 H         1 <0>         0.1349
     36 H9          3.7453   -1.6884    2.1647 H         1 <0>         0.1350
     37 H10         2.5544   -0.8726    0.1699 H         1 <0>         0.1272
     38 H11        -1.7940   -0.7522    0.8520 H         1 <0>         0.4253
     39 H12        -0.4490    0.0749   -2.3888 H         1 <0>         0.1840
     40 H13        -4.0810   -1.0589   -4.3962 H         1 <0>         0.1895
     41 H14        -5.0327   -1.6333   -2.2076 H         1 <0>         0.2091
     42 H15         1.0273    0.4255   -8.8861 H         1 <0>         0.1122
     43 H16        -0.4694    1.2678   -9.3536 H         1 <0>         0.1121
     44 H17         1.1110    2.0322   -9.6475 H         1 <0>         0.1578
     45 H18        -1.8415   -2.8282   -4.2370 H         1 <0>         0.1352
     46 H19        -2.9744   -4.9894   -4.5447 H         1 <0>         0.1552
     47 H20        -4.0253   -3.8871   -8.5341 H         1 <0>         0.1588
     48 H21        -2.9032   -1.7184   -8.2394 H         1 <0>         0.1414
     49 N3         -3.3473   -1.1319   -1.0925 N.ar      1 <0>        -0.5350
     50 H22        -3.7704   -1.3882   -0.1927 H         1 <0>         0.4774
     51 N4         -0.9473   -0.1425   -6.9781 N.pl3     1 <0>        -0.5003
     52 H23        -0.8163   -0.4480   -7.9496 H         1 <0>         0.4816
@<TRIPOS>BOND
     1    1    2 1
     2    1   30 1
     3    1   31 1
     4    1   32 1
     5    2    3 1
     6    2    4 1
     7    2   10 1
     8    4    9 ar
     9    4    5 ar
    10    5    6 ar
    11    5   33 1
    12    6    7 ar
    13    6   34 1
    14    7    8 ar
    15    7   35 1
    16    8    9 ar
    17    8   36 1
    18    9   37 1
    19   10   11 1
    20   10   38 1
    21   11   12 ar
    22   11   49 ar
    23   12   13 ar
    24   12   39 1
    25   13   14 ar
    26   13   16 1
    27   14   15 ar
    28   14   40 1
    29   15   41 1
    30   15   49 ar
    31   16   19 1
    32   16   17 2
    33   17   23 1
    34   17   51 1
    35   18   19 1
    36   18   21 1
    37   18   51 2
    38   19   20 1
    39   21   22 1
    40   22   42 1
    41   22   43 1
    42   22   44 1
    43   23   28 ar
    44   23   24 ar
    45   24   25 ar
    46   24   45 1
    47   25   26 ar
    48   25   46 1
    49   26   27 ar
    50   26   29 1
    51   27   28 ar
    52   27   47 1
    53   28   48 1
    54   49   50 1
    55   51   52 1
@<TRIPOS>MOLECULE
ZINC13524440
   51    54     0     0     0
SMALL
USER_CHARGES

@<TRIPOS>ATOM
      1 C1         -0.0187    1.5258    0.0104 C.3       1 <0>        -0.1715
      2 C2          0.0021   -0.0041    0.0020 C.3       1 <0>         0.1865
      3 H1         -1.0205   -0.3814    0.0098 H         1 <0>         0.1064
      4 C3          0.7074   -0.4901   -1.2379 C.ar      1 <0>        -0.1149
      5 C4          2.0889   -0.5108   -1.2839 C.ar      1 <0>        -0.1167
      6 C5          2.7359   -0.9566   -2.4212 C.ar      1 <0>        -0.1103
      7 C6          2.0015   -1.3821   -3.5123 C.ar      1 <0>        -0.1029
      8 C7          0.6201   -1.3622   -3.4659 C.ar      1 <0>        -0.1081
      9 C8         -0.0269   -0.9205   -2.3270 C.ar      1 <0>        -0.1005
     10 N1          0.7106   -0.4894    1.1889 N.pl3     1 <0>        -0.6936
     11 C9          0.0302   -0.6380    2.3925 C.ar      1 <0>         0.4592
     12 C10        -1.3208   -0.3299    2.4593 C.ar      1 <0>        -0.2124
     13 C11        -1.9905   -0.4851    3.6782 C.ar      1 <0>         0.1633
     14 C12        -1.2581   -0.9485    4.7832 C.ar      1 <0>        -0.1597
     15 C13         0.0799   -1.2310    4.6296 C.ar      1 <0>         0.1581
     16 N2          0.6785   -1.0777    3.4617 N.ar      1 <0>        -0.5109
     17 C14        -3.4253   -0.1703    3.7990 C.2       1 <0>        -0.0390
     18 C15        -4.3905   -0.9314    4.4309 C.2       1 <0>         0.1454
     19 N3         -5.5650   -0.2848    4.3107 N.2       1 <0>        -0.4754
     20 H2         -3.6682    1.6800    2.8150 H         1 <0>         0.4318
     21 C16        -5.3877    0.8313    3.6427 C.2       1 <0>         0.2477
     22 N4         -4.0737    0.9493    3.3076 N.pl3     1 <0>        -0.5381
     23 S1         -6.6499    1.9957    3.2480 S.3       1 <0>         0.0004
     24 C17        -8.1512    1.2767    3.9690 C.3       1 <0>        -0.1340
     25 C18        -4.1719   -2.2261    5.1167 C.ar      1 <0>        -0.0424
     26 C19        -3.2271   -3.1271    4.6258 C.ar      1 <0>        -0.0778
     27 C20        -3.0269   -4.3313    5.2682 C.ar      1 <0>        -0.1536
     28 C21        -3.7628   -4.6466    6.3992 C.ar      1 <0>         0.1194
     29 C22        -4.7029   -3.7550    6.8905 C.ar      1 <0>        -0.1479
     30 C23        -4.9060   -2.5456    6.2587 C.ar      1 <0>        -0.0478
     31 F1         -3.5634   -5.8274    7.0246 F         1 <0>        -0.1302
     32 H3          1.0039    1.9031    0.0027 H         1 <0>         0.0735
     33 H4         -0.5459    1.8868   -0.8726 H         1 <0>         0.0891
     34 H5         -0.5289    1.8773    0.9072 H         1 <0>         0.0654
     35 H6          2.6626   -0.1783   -0.4315 H         1 <0>         0.1170
     36 H7          3.8152   -0.9721   -2.4575 H         1 <0>         0.1303
     37 H8          2.5070   -1.7297   -4.4012 H         1 <0>         0.1316
     38 H9          0.0463   -1.6944   -4.3185 H         1 <0>         0.1328
     39 H10        -1.1062   -0.9085   -2.2894 H         1 <0>         0.1283
     40 H11         1.6544   -0.7070    1.1351 H         1 <0>         0.4190
     41 H12        -1.8469    0.0243    1.5851 H         1 <0>         0.1751
     42 H13        -1.7387   -1.0812    5.7412 H         1 <0>         0.1829
     43 H14         0.6485   -1.5873    5.4757 H         1 <0>         0.2123
     44 H15        -8.3381    0.3008    3.5208 H         1 <0>         0.0966
     45 H16        -8.0192    1.1631    5.0450 H         1 <0>         0.0967
     46 H17        -8.9986    1.9341    3.7743 H         1 <0>         0.1216
     47 H18        -2.6535   -2.8825    3.7439 H         1 <0>         0.1240
     48 H19        -2.2955   -5.0296    4.8888 H         1 <0>         0.1413
     49 H20        -5.2745   -4.0055    7.7719 H         1 <0>         0.1463
     50 H21        -5.6355   -1.8493    6.6452 H         1 <0>         0.1430
     51 H22         1.6220   -1.2894    3.3855 H         1 <0>         0.4428
@<TRIPOS>BOND
     1    1    2 1
     2    1   32 1
     3    1   33 1
     4    1   34 1
     5    2    3 1
     6    2    4 1
     7    2   10 1
     8    4    9 ar
     9    4    5 ar
    10    5    6 ar
    11    5   35 1
    12    6    7 ar
    13    6   36 1
    14    7    8 ar
    15    7   37 1
    16    8    9 ar
    17    8   38 1
    18    9   39 1
    19   10   11 1
    20   10   40 1
    21   11   16 ar
    22   11   12 ar
    23   12   13 ar
    24   12   41 1
    25   13   14 ar
    26   13   17 1
    27   14   15 ar
    28   14   42 1
    29   15   16 ar
    30   15   43 1
    31   16   51 1
    32   17   18 2
    33   17   22 1
    34   18   19 1
    35   18   25 1
    36   19   21 2
    37   20   22 1
    38   21   23 1
    39   21   22 1
    40   23   24 1
    41   24   44 1
    42   24   45 1
    43   24   46 1
    44   25   30 ar
    45   25   26 ar
    46   26   27 ar
    47   26   47 1
    48   27   28 ar
    49   27   48 1
    50   28   29 ar
    51   28   31 1
    52   29   30 ar
    53   29   49 1
    54   30   50 1
@<TRIPOS>MOLECULE
ZINC13524440
   51    54     0     0     0
SMALL
USER_CHARGES

@<TRIPOS>ATOM
      1 C1         -0.0187    1.5258    0.0104 C.3       1 <0>        -0.1711
      2 C2          0.0021   -0.0041    0.0020 C.3       1 <0>         0.1873
      3 H1         -1.0205   -0.3814    0.0098 H         1 <0>         0.1071
      4 C3          0.7074   -0.4901   -1.2379 C.ar      1 <0>        -0.1125
      5 C4          2.0889   -0.5108   -1.2839 C.ar      1 <0>        -0.1169
      6 C5          2.7359   -0.9566   -2.4212 C.ar      1 <0>        -0.1108
      7 C6          2.0015   -1.3821   -3.5123 C.ar      1 <0>        -0.1044
      8 C7          0.6201   -1.3622   -3.4659 C.ar      1 <0>        -0.1087
      9 C8         -0.0269   -0.9205   -2.3270 C.ar      1 <0>        -0.1009
     10 N1          0.7106   -0.4894    1.1889 N.pl3     1 <0>        -0.6952
     11 C9          0.0303   -0.6380    2.3924 C.ar      1 <0>         0.4533
     12 C10        -1.3217   -0.3297    2.4595 C.ar      1 <0>        -0.1886
     13 C11        -1.9904   -0.4845    3.6757 C.ar      1 <0>         0.1710
     14 C12        -1.2607   -0.9470    4.7796 C.ar      1 <0>        -0.1679
     15 C13         0.0783   -1.2302    4.6282 C.ar      1 <0>         0.1524
     16 N2          0.6781   -1.0775    3.4614 N.ar      1 <0>        -0.5105
     17 C14        -3.4313   -0.1681    3.7960 C.2       1 <0>         0.0127
     18 C15        -4.3471   -0.8280    4.5924 C.2       1 <0>         0.0997
     19 N3         -5.5607   -0.2002    4.3916 N.pl3     1 <0>        -0.5360
     20 H2         -6.4045   -0.4313    4.8105 H         1 <0>         0.4371
     21 C16        -5.3512    0.8046    3.4956 C.2       1 <0>         0.2243
     22 N4         -4.0854    0.8200    3.1524 N.2       1 <0>        -0.4621
     23 S1         -6.5841    1.9124    2.8979 S.3       1 <0>        -0.0025
     24 C17        -5.6842    2.9944    1.7532 C.3       1 <0>        -0.1330
     25 C18        -4.0814   -1.9761    5.4808 C.ar      1 <0>        -0.0611
     26 C19        -3.2994   -3.0435    5.0326 C.ar      1 <0>        -0.0647
     27 C20        -3.0542   -4.1133    5.8674 C.ar      1 <0>        -0.1498
     28 C21        -3.5822   -4.1312    7.1487 C.ar      1 <0>         0.1249
     29 C22        -4.3588   -3.0752    7.5991 C.ar      1 <0>        -0.1446
     30 C23        -4.6061   -1.9973    6.7754 C.ar      1 <0>        -0.0661
     31 F1         -3.3394   -5.1824    7.9619 F         1 <0>        -0.1269
     32 H3          1.0039    1.9031    0.0027 H         1 <0>         0.0710
     33 H4         -0.5459    1.8868   -0.8726 H         1 <0>         0.0875
     34 H5         -0.5289    1.8773    0.9072 H         1 <0>         0.0697
     35 H6          2.6626   -0.1783   -0.4315 H         1 <0>         0.1171
     36 H7          3.8152   -0.9721   -2.4575 H         1 <0>         0.1296
     37 H8          2.5070   -1.7297   -4.4012 H         1 <0>         0.1307
     38 H9          0.0463   -1.6944   -4.3185 H         1 <0>         0.1320
     39 H10        -1.1062   -0.9085   -2.2894 H         1 <0>         0.1284
     40 H11         1.6544   -0.7070    1.1351 H         1 <0>         0.4175
     41 H12        -1.8477    0.0244    1.5853 H         1 <0>         0.1802
     42 H13        -1.7427   -1.0791    5.7371 H         1 <0>         0.1779
     43 H14         0.6456   -1.5869    5.4752 H         1 <0>         0.2092
     44 H15        -6.3722    3.7242    1.3264 H         1 <0>         0.1200
     45 H16        -4.8915    3.5138    2.2916 H         1 <0>         0.0934
     46 H17        -5.2482    2.3952    0.9539 H         1 <0>         0.0928
     47 H18        -2.8880   -3.0310    4.0341 H         1 <0>         0.1331
     48 H19        -2.4498   -4.9390    5.5220 H         1 <0>         0.1462
     49 H20        -4.7679   -3.0949    8.5984 H         1 <0>         0.1484
     50 H21        -5.2077   -1.1729    7.1290 H         1 <0>         0.1384
     51 H22         1.6217   -1.2894    3.3859 H         1 <0>         0.4413
@<TRIPOS>BOND
     1    1    2 1
     2    1   32 1
     3    1   33 1
     4    1   34 1
     5    2    3 1
     6    2    4 1
     7    2   10 1
     8    4    9 ar
     9    4    5 ar
    10    5    6 ar
    11    5   35 1
    12    6    7 ar
    13    6   36 1
    14    7    8 ar
    15    7   37 1
    16    8    9 ar
    17    8   38 1
    18    9   39 1
    19   10   11 1
    20   10   40 1
    21   11   16 ar
    22   11   12 ar
    23   12   13 ar
    24   12   41 1
    25   13   14 ar
    26   13   17 1
    27   14   15 ar
    28   14   42 1
    29   15   16 ar
    30   15   43 1
    31   16   51 1
    32   17   22 1
    33   17   18 2
    34   18   19 1
    35   18   25 1
    36   19   20 1
    37   19   21 1
    38   21   22 2
    39   21   23 1
    40   23   24 1
    41   24   44 1
    42   24   45 1
    43   24   46 1
    44   25   30 ar
    45   25   26 ar
    46   26   27 ar
    47   26   47 1
    48   27   28 ar
    49   27   48 1
    50   28   29 ar
    51   28   31 1
    52   29   30 ar
    53   29   49 1
    54   30   50 1
@<TRIPOS>MOLECULE
ZINC00007453
   40    43     0     0     0
SMALL
USER_CHARGES
8-(4-fluorophenyl)-5-methoxy-7-(4-pyridyl)-2,9-diazabicyclo[4.3.0]nona-1,3,5,7-tetraen-3-amine
@<TRIPOS>ATOM
      1 C1         -4.7770   -0.4905   -0.1085 C.3       1 <0>         0.0234
      2 O1         -4.8286    0.9376   -0.1132 O.3       1 <0>        -0.2966
      3 C2         -3.6500    1.5971    0.0192 C.ar      1 <0>         0.2565
      4 C3         -2.4564    0.9047    0.1522 C.ar      1 <0>        -0.3493
      5 C4         -1.2682    1.6179    0.2852 C.ar      1 <0>         0.4794
      6 N1         -1.2546    2.9402    0.2927 N.ar      1 <0>        -0.5866
      7 C5         -2.3699    3.6531    0.1630 C.ar      1 <0>         0.3770
      8 C6         -3.6042    2.9995    0.0249 C.ar      1 <0>        -0.2094
      9 C7         -4.6243    4.0512   -0.0886 C.2       1 <0>        -0.0794
     10 C8         -3.9514    5.2536   -0.0129 C.2       1 <0>         0.1178
     11 N2         -2.6074    5.0077    0.1371 N.pl3     1 <0>        -0.5648
     12 H1         -1.9240    5.6918    0.2140 H         1 <0>         0.4233
     13 C9         -4.5750    6.5896   -0.0815 C.ar      1 <0>        -0.0428
     14 C10        -5.7150    6.8711    0.6753 C.ar      1 <0>        -0.0579
     15 C11        -6.2903    8.1225    0.6108 C.ar      1 <0>        -0.1487
     16 C12        -5.7463    9.0968   -0.2114 C.ar      1 <0>         0.1100
     17 C13        -4.6182    8.8219   -0.9683 C.ar      1 <0>        -0.1502
     18 C14        -4.0310    7.5758   -0.9080 C.ar      1 <0>        -0.0753
     19 F1         -6.3176   10.3194   -0.2749 F         1 <0>        -0.1353
     20 C15        -6.0811    3.8593   -0.2514 C.ar      1 <0>         0.0434
     21 C16        -6.7306    4.2454   -1.4305 C.ar      1 <0>        -0.1566
     22 C17        -8.0898    4.0442   -1.5413 C.ar      1 <0>         0.0996
     23 N3         -8.7781    3.5053   -0.5522 N.ar      1 <0>        -0.4870
     24 C18        -8.2063    3.1316    0.5773 C.ar      1 <0>         0.0990
     25 C19        -6.8511    3.2917    0.7715 C.ar      1 <0>        -0.1503
     26 N4         -0.0707    0.9250    0.4186 N.pl3     1 <0>        -0.8446
     27 H2         -4.3525   -0.8356    0.8342 H         1 <0>         0.0604
     28 H3         -5.7845   -0.8908   -0.2216 H         1 <0>         0.1040
     29 H4         -4.1546   -0.8343   -0.9347 H         1 <0>         0.0597
     30 H5         -2.4484   -0.1753    0.1529 H         1 <0>         0.1403
     31 H6         -6.1423    6.1113    1.3129 H         1 <0>         0.1361
     32 H7         -7.1690    8.3427    1.1988 H         1 <0>         0.1415
     33 H8         -4.1985    9.5851   -1.6069 H         1 <0>         0.1411
     34 H9         -3.1524    7.3625   -1.4988 H         1 <0>         0.1348
     35 H10        -6.1745    4.6911   -2.2420 H         1 <0>         0.1312
     36 H11        -8.5991    4.3352   -2.4480 H         1 <0>         0.1542
     37 H12        -8.8086    2.6949    1.3602 H         1 <0>         0.1542
     38 H13        -6.3899    2.9837    1.6983 H         1 <0>         0.1316
     39 H14        -0.0690   -0.0450    0.4184 H         1 <0>         0.4107
     40 H15         0.7638    1.4114    0.5080 H         1 <0>         0.4059
@<TRIPOS>BOND
     1    1    2 1
     2    1   27 1
     3    1   28 1
     4    1   29 1
     5    2    3 1
     6    3    8 ar
     7    3    4 ar
     8    4    5 ar
     9    4   30 1
    10    5    6 ar
    11    5   26 1
    12    6    7 ar
    13    7   11 1
    14    7    8 ar
    15    8    9 1
    16    9   10 2
    17    9   20 1
    18   10   11 1
    19   10   13 1
    20   11   12 1
    21   13   18 ar
    22   13   14 ar
    23   14   15 ar
    24   14   31 1
    25   15   16 ar
    26   15   32 1
    27   16   17 ar
    28   16   19 1
    29   17   18 ar
    30   17   33 1
    31   18   34 1
    32   20   25 ar
    33   20   21 ar
    34   21   22 ar
    35   21   35 1
    36   22   23 ar
    37   22   36 1
    38   23   24 ar
    39   24   25 ar
    40   24   37 1
    41   25   38 1
    42   26   39 1
    43   26   40 1
@<TRIPOS>MOLECULE
ZINC01403985
   46    48     0     0     0
SMALL
USER_CHARGES
N-[(2-methoxyphenyl)methyl]-4-(2-methylbenzoyl)-1H-pyrrole-2-carboxamide
@<TRIPOS>ATOM
      1 C1         -6.5384    0.8321    6.3367 C.3       1 <0>        -0.1222
      2 C2         -6.2971    1.8631    7.4091 C.ar      1 <0>        -0.0541
      3 C3         -6.5341    1.5528    8.7323 C.ar      1 <0>        -0.1219
      4 C4         -6.3186    2.5000    9.7175 C.ar      1 <0>        -0.1022
      5 C5         -5.8597    3.7624    9.3841 C.ar      1 <0>        -0.1250
      6 C6         -5.6141    4.0843    8.0657 C.ar      1 <0>        -0.0816
      7 C7         -5.8291    3.1329    7.0663 C.ar      1 <0>        -0.1431
      8 C8         -5.5679    3.4709    5.6510 C.2       1 <0>         0.4741
      9 O1         -6.3536    4.1672    5.0373 O.2       1 <0>        -0.4460
     10 C9         -4.3563    2.9641    4.9844 C.2       1 <0>        -0.2586
     11 C10        -3.9806    3.1880    3.6399 C.2       1 <0>        -0.0433
     12 C11        -2.7985    2.5385    3.4428 C.2       1 <0>        -0.0618
     13 N1         -2.4346    1.9316    4.6254 N.pl3     1 <0>        -0.5242
     14 H1         -1.6315    1.4053    4.7626 H         1 <0>         0.4209
     15 C12        -3.3673    2.1836    5.5572 C.2       1 <0>         0.0980
     16 C13        -2.0394    2.4977    2.1866 C.2       1 <0>         0.5897
     17 O2         -2.4611    3.0746    1.2019 O.2       1 <0>        -0.5212
     18 N2         -0.8754    1.8212    2.1244 N.am      1 <0>        -0.7229
     19 C14        -0.1179    1.7804    0.8711 C.3       1 <0>         0.1739
     20 C15         1.1346    0.9658    1.0674 C.ar      1 <0>        -0.1479
     21 C16         2.3455    1.5983    1.2740 C.ar      1 <0>        -0.0608
     22 C17         3.4958    0.8516    1.4485 C.ar      1 <0>        -0.1584
     23 C18         3.4378   -0.5297    1.4166 C.ar      1 <0>        -0.0690
     24 C19         2.2297   -1.1668    1.2103 C.ar      1 <0>        -0.2113
     25 C20         1.0738   -0.4196    1.0350 C.ar      1 <0>         0.1439
     26 O3         -0.1160   -1.0441    0.8314 O.3       1 <0>        -0.3108
     27 C21        -0.1034   -2.4729    0.8102 C.3       1 <0>         0.0254
     28 H2         -5.6052    0.3150    6.1133 H         1 <0>         0.0750
     29 H3         -7.2785    0.1118    6.6852 H         1 <0>         0.0726
     30 H4         -6.9059    1.3239    5.4361 H         1 <0>         0.0683
     31 H5         -6.8930    0.5698    8.9993 H         1 <0>         0.1278
     32 H6         -6.5096    2.2532   10.7515 H         1 <0>         0.1260
     33 H7         -5.6938    4.4972   10.1580 H         1 <0>         0.1280
     34 H8         -5.2560    5.0698    7.8069 H         1 <0>         0.1270
     35 H9         -4.5275    3.7631    2.9074 H         1 <0>         0.1595
     36 H10        -3.3492    1.8364    6.5797 H         1 <0>         0.1838
     37 H11        -0.5391    1.3612    2.9095 H         1 <0>         0.3934
     38 H12         0.1509    2.7947    0.5759 H         1 <0>         0.0797
     39 H13        -0.7291    1.3251    0.0918 H         1 <0>         0.0830
     40 H14         2.3934    2.6769    1.2993 H         1 <0>         0.1329
     41 H15         4.4413    1.3479    1.6099 H         1 <0>         0.1280
     42 H16         4.3379   -1.1108    1.5528 H         1 <0>         0.1277
     43 H17         2.1850   -2.2456    1.1852 H         1 <0>         0.1308
     44 H18         0.5497   -2.8187    0.0090 H         1 <0>         0.0579
     45 H19         0.2641   -2.8472    1.7657 H         1 <0>         0.0563
     46 H20        -1.1146   -2.8426    0.6399 H         1 <0>         0.1024
@<TRIPOS>BOND
     1    1    2 1
     2    1   28 1
     3    1   29 1
     4    1   30 1
     5    2    7 ar
     6    2    3 ar
     7    3    4 ar
     8    3   31 1
     9    4    5 ar
    10    4   32 1
    11    5    6 ar
    12    5   33 1
    13    6    7 ar
    14    6   34 1
    15    7    8 1
    16    8    9 2
    17    8   10 1
    18   10   15 2
    19   10   11 1
    20   11   12 2
    21   11   35 1
    22   12   13 1
    23   12   16 1
    24   13   14 1
    25   13   15 1
    26   15   36 1
    27   16   17 2
    28   16   18 am
    29   18   19 1
    30   18   37 1
    31   19   20 1
    32   19   38 1
    33   19   39 1
    34   20   25 ar
    35   20   21 ar
    36   21   22 ar
    37   21   40 1
    38   22   23 ar
    39   22   41 1
    40   23   24 ar
    41   23   42 1
    42   24   25 ar
    43   24   43 1
    44   25   26 1
    45   26   27 1
    46   27   44 1
    47   27   45 1
    48   27   46 1
@<TRIPOS>MOLECULE
ZINC01406369
   39    41     0     0     0
SMALL
USER_CHARGES
N-cyclopentyl-4-(2,6-dichlorobenzoyl)-1H-pyrrole-2-carboxamide
@<TRIPOS>ATOM
      1 C1          5.7170    3.8911    9.6185 C.ar      1 <0>        -0.0801
      2 C2          4.8097    4.9031    9.3598 C.ar      1 <0>        -0.1053
      3 C3          3.5575    4.6020    8.8622 C.ar      1 <0>        -0.0017
      4 C4          3.2075    3.2704    8.6194 C.ar      1 <0>        -0.1278
      5 C5          4.1280    2.2531    8.8885 C.ar      1 <0>        -0.0015
      6 C6          5.3782    2.5709    9.3809 C.ar      1 <0>        -0.1054
      7 Cl1         3.7024    0.5953    8.5984 Cl        1 <0>        -0.0402
      8 C7          1.8703    2.9397    8.0872 C.2       1 <0>         0.4738
      9 O1          0.9326    2.7921    8.8477 O.2       1 <0>        -0.4256
     10 C8          1.6720    2.7885    6.6353 C.2       1 <0>        -0.2532
     11 C9          0.4869    2.3705    5.9879 C.2       1 <0>        -0.0383
     12 C10         0.7422    2.3720    4.6488 C.2       1 <0>        -0.0628
     13 N1          2.0468    2.7720    4.4566 N.pl3     1 <0>        -0.5223
     14 H1          2.4875    2.8566    3.5966 H         1 <0>         0.4217
     15 C11         2.6105    3.0295    5.6474 C.2       1 <0>         0.0994
     16 C12        -0.2086    2.0040    3.5922 C.2       1 <0>         0.5907
     17 O2         -1.3386    1.6595    3.8835 O.2       1 <0>        -0.5188
     18 N2          0.1704    2.0479    2.2995 N.am      1 <0>        -0.7257
     19 C13        -0.7782    1.6807    1.2452 C.3       1 <0>         0.1395
     20 C14        -0.0270    1.2035   -0.0148 C.3       1 <0>        -0.1307
     21 C15        -0.8131    1.7370   -1.2251 C.3       1 <0>        -0.1231
     22 C16        -2.0158    2.5199   -0.6590 C.3       1 <0>        -0.1248
     23 C17        -1.5678    2.9255    0.7671 C.3       1 <0>        -0.1360
     24 Cl2         2.4208    5.8735    8.5383 Cl        1 <0>        -0.0405
     25 H2          6.6949    4.1330   10.0077 H         1 <0>         0.1483
     26 H3          5.0816    5.9312    9.5478 H         1 <0>         0.1475
     27 H4          6.0919    1.7866    9.5851 H         1 <0>         0.1475
     28 H5         -0.4444    2.1015    6.4639 H         1 <0>         0.1604
     29 H6          3.6250    3.3633    5.8074 H         1 <0>         0.1819
     30 H7          1.0712    2.3225    2.0673 H         1 <0>         0.3929
     31 H8         -1.4614    0.9080    1.5977 H         1 <0>         0.1000
     32 H9          0.0044    0.1142   -0.0406 H         1 <0>         0.0734
     33 H10         0.9859    1.6061   -0.0205 H         1 <0>         0.0680
     34 H11        -0.1821    2.3993   -1.8178 H         1 <0>         0.0668
     35 H12        -1.1633    0.9067   -1.8384 H         1 <0>         0.0687
     36 H13        -2.2131    3.4054   -1.2632 H         1 <0>         0.0699
     37 H14        -2.8991    1.8827   -0.6147 H         1 <0>         0.0702
     38 H15        -0.9218    3.8028    0.7342 H         1 <0>         0.0693
     39 H16        -2.4318    3.1076    1.4062 H         1 <0>         0.0736
@<TRIPOS>BOND
     1    1    6 ar
     2    1    2 ar
     3    1   25 1
     4    2    3 ar
     5    2   26 1
     6    3    4 ar
     7    3   24 1
     8    4    5 ar
     9    4    8 1
    10    5    6 ar
    11    5    7 1
    12    6   27 1
    13    8    9 2
    14    8   10 1
    15   10   15 2
    16   10   11 1
    17   11   12 2
    18   11   28 1
    19   12   13 1
    20   12   16 1
    21   13   14 1
    22   13   15 1
    23   15   29 1
    24   16   17 2
    25   16   18 am
    26   18   19 1
    27   18   30 1
    28   19   23 1
    29   19   20 1
    30   19   31 1
    31   20   21 1
    32   20   32 1
    33   20   33 1
    34   21   22 1
    35   21   34 1
    36   21   35 1
    37   22   23 1
    38   22   36 1
    39   22   37 1
    40   23   38 1
    41   23   39 1
@<TRIPOS>MOLECULE
ZINC01403973
   39    41     0     0     0
SMALL
USER_CHARGES

@<TRIPOS>ATOM
      1 C1          2.5349   -0.9285    1.4656 C.3       1 <0>        -0.1225
      2 C2          1.2593   -1.1662    0.6991 C.ar      1 <0>        -0.0553
      3 C3          1.3015   -1.7544   -0.5480 C.ar      1 <0>        -0.1216
      4 C4          0.1313   -1.9734   -1.2530 C.ar      1 <0>        -0.1019
      5 C5         -1.0885   -1.6045   -0.7133 C.ar      1 <0>        -0.1246
      6 C6         -1.1451   -1.0155    0.5325 C.ar      1 <0>        -0.0810
      7 C7          0.0317   -0.7969    1.2520 C.ar      1 <0>        -0.1433
      8 C8         -0.0218   -0.1716    2.5905 C.2       1 <0>         0.4742
      9 O1         -0.2116    1.0250    2.6955 O.2       1 <0>        -0.4451
     10 C9          0.1548   -0.9979    3.7969 C.2       1 <0>        -0.2583
     11 C10         0.0542   -0.5604    5.1375 C.2       1 <0>        -0.0397
     12 C11         0.2889   -1.6447    5.9295 C.2       1 <0>        -0.0654
     13 N1          0.5298   -2.7313    5.1168 N.pl3     1 <0>        -0.5246
     14 H1          0.7253   -3.6303    5.4243 H         1 <0>         0.4216
     15 C12         0.4448   -2.3506    3.8325 C.2       1 <0>         0.1008
     16 C13         0.2860   -1.6534    7.3977 C.2       1 <0>         0.5930
     17 O2          0.0595   -0.6276    8.0117 O.2       1 <0>        -0.5171
     18 N2          0.5341   -2.7975    8.0654 N.am      1 <0>        -0.7310
     19 C14         0.5312   -2.8062    9.5303 C.3       1 <0>         0.2051
     20 C15         0.8339   -4.1971   10.0251 C.2       1 <0>        -0.0461
     21 C16         2.0575   -4.6882   10.2919 C.2       1 <0>        -0.1789
     22 C17         1.8778   -6.0213   10.7272 C.2       1 <0>        -0.2183
     23 C18         0.5552   -6.2651   10.7004 C.2       1 <0>        -0.0245
     24 O3         -0.0726   -5.1547   10.2799 O.3       1 <0>        -0.1712
     25 H2          2.7050   -1.7566    2.1536 H         1 <0>         0.0747
     26 H3          3.3698   -0.8578    0.7685 H         1 <0>         0.0731
     27 H4          2.4524    0.0009    2.0291 H         1 <0>         0.0684
     28 H5          2.2501   -2.0443   -0.9752 H         1 <0>         0.1280
     29 H6          0.1700   -2.4339   -2.2291 H         1 <0>         0.1263
     30 H7         -1.9981   -1.7779   -1.2691 H         1 <0>         0.1282
     31 H8         -2.0976   -0.7278    0.9524 H         1 <0>         0.1271
     32 H9         -0.1664    0.4429    5.4709 H         1 <0>         0.1606
     33 H10         0.5823   -2.9904    2.9732 H         1 <0>         0.1849
     34 H11         0.7147   -3.6153    7.5759 H         1 <0>         0.3974
     35 H12         1.2901   -2.1161    9.8993 H         1 <0>         0.1047
     36 H13        -0.4487   -2.4966    9.8936 H         1 <0>         0.0906
     37 H14         2.9969   -4.1648   10.1921 H         1 <0>         0.1522
     38 H15         2.6536   -6.7115   11.0240 H         1 <0>         0.1526
     39 H16         0.0786   -7.1947   10.9745 H         1 <0>         0.2069
@<TRIPOS>BOND
     1    1    2 1
     2    1   25 1
     3    1   26 1
     4    1   27 1
     5    2    7 ar
     6    2    3 ar
     7    3    4 ar
     8    3   28 1
     9    4    5 ar
    10    4   29 1
    11    5    6 ar
    12    5   30 1
    13    6    7 ar
    14    6   31 1
    15    7    8 1
    16    8    9 2
    17    8   10 1
    18   10   15 2
    19   10   11 1
    20   11   12 2
    21   11   32 1
    22   12   13 1
    23   12   16 1
    24   13   14 1
    25   13   15 1
    26   15   33 1
    27   16   17 2
    28   16   18 am
    29   18   19 1
    30   18   34 1
    31   19   20 1
    32   19   35 1
    33   19   36 1
    34   20   24 1
    35   20   21 2
    36   21   22 1
    37   21   37 1
    38   22   23 2
    39   22   38 1
    40   23   24 1
    41   23   39 1
@<TRIPOS>MOLECULE
ZINC01406365
   36    38     0     0     0
SMALL
USER_CHARGES
4-(2,6-dichlorobenzoyl)-N-(2-thienylmethyl)-1H-pyrrole-2-carboxamide
@<TRIPOS>ATOM
      1 C1          1.2058   -0.6831    0.0189 C.ar      1 <0>        -0.0801
      2 C2          1.2174    0.0024   -1.1828 C.ar      1 <0>        -0.1053
      3 C3          1.2075    1.3831   -1.1942 C.ar      1 <0>        -0.0017
      4 C4          1.1858    2.0882    0.0127 C.ar      1 <0>        -0.1279
      5 C5          1.1737    1.3882    1.2228 C.ar      1 <0>        -0.0015
      6 C6          1.1839    0.0075    1.2175 C.ar      1 <0>        -0.1053
      7 Cl1         1.1456    2.2525    2.7281 Cl        1 <0>        -0.0400
      8 C7          1.1756    3.5649    0.0095 C.2       1 <0>         0.4740
      9 O1          0.1216    4.1656   -0.0783 O.2       1 <0>        -0.4254
     10 C8          2.4419    4.3105    0.1126 C.2       1 <0>        -0.2536
     11 C9          2.5851    5.7124    0.2255 C.2       1 <0>        -0.0360
     12 C10         3.9213    5.9723    0.2975 C.2       1 <0>        -0.0630
     13 N1          4.6004    4.7754    0.2227 N.pl3     1 <0>        -0.5223
     14 H1          5.5648    4.6744    0.2472 H         1 <0>         0.4221
     15 C11         3.7163    3.7715    0.1113 C.2       1 <0>         0.1013
     16 C12         4.5328    7.3009    0.4263 C.2       1 <0>         0.5926
     17 O2          3.8288    8.2917    0.4831 O.2       1 <0>        -0.5170
     18 N2          5.8739    7.4230    0.4817 N.am      1 <0>        -0.7299
     19 C13         6.4840    8.7487    0.6102 C.3       1 <0>         0.2089
     20 C14         7.9840    8.6097    0.6497 C.2       1 <0>        -0.1800
     21 C15         8.8687    8.6107   -0.3773 C.2       1 <0>        -0.1288
     22 C16        10.2160    8.4706   -0.1016 C.2       1 <0>        -0.1645
     23 C17        10.6117    8.3257    1.1867 C.2       1 <0>        -0.1603
     24 S1          9.0563    8.3929    2.0605 S.3       1 <0>         0.0537
     25 Cl2         1.2292    2.2411   -2.7032 Cl        1 <0>        -0.0406
     26 H2          1.2136   -1.7631    0.0213 H         1 <0>         0.1483
     27 H3          1.2345   -0.5438   -2.1143 H         1 <0>         0.1475
     28 H4          1.1742   -0.5348    2.1514 H         1 <0>         0.1475
     29 H5          1.7869    6.4395    0.2519 H         1 <0>         0.1613
     30 H6          3.9585    2.7219    0.0338 H         1 <0>         0.1822
     31 H7          6.4351    6.6332    0.4364 H         1 <0>         0.3967
     32 H8          6.1985    9.3643   -0.2428 H         1 <0>         0.0961
     33 H9          6.1385    9.2201    1.5303 H         1 <0>         0.0885
     34 H10         8.5263    8.7222   -1.3955 H         1 <0>         0.1363
     35 H11        10.9420    8.4720   -0.9011 H         1 <0>         0.1374
     36 H12        11.6090    8.2014    1.5820 H         1 <0>         0.1887
@<TRIPOS>BOND
     1    1    6 ar
     2    1    2 ar
     3    1   26 1
     4    2    3 ar
     5    2   27 1
     6    3    4 ar
     7    3   25 1
     8    4    5 ar
     9    4    8 1
    10    5    6 ar
    11    5    7 1
    12    6   28 1
    13    8    9 2
    14    8   10 1
    15   10   15 2
    16   10   11 1
    17   11   12 2
    18   11   29 1
    19   12   13 1
    20   12   16 1
    21   13   14 1
    22   13   15 1
    23   15   30 1
    24   16   17 2
    25   16   18 am
    26   18   19 1
    27   18   31 1
    28   19   20 1
    29   19   32 1
    30   19   33 1
    31   20   24 1
    32   20   21 2
    33   21   22 1
    34   21   34 1
    35   22   23 2
    36   22   35 1
    37   23   24 1
    38   23   36 1
@<TRIPOS>MOLECULE
ZINC02570895
   40    42     0     0     0
SMALL
USER_CHARGES

@<TRIPOS>ATOM
      1 C1          0.0405    1.5033    0.0105 C.3       1 <0>        -0.1224
      2 C2          0.0481   -0.0036    0.0022 C.ar      1 <0>        -0.0617
      3 C3         -0.4654   -0.6891   -1.0843 C.ar      1 <0>        -0.1180
      4 C4         -0.4609   -2.0687   -1.0981 C.ar      1 <0>        -0.0762
      5 C5          0.0630   -2.7726   -0.0133 C.ar      1 <0>        -0.0606
      6 C6          0.5793   -2.0754    1.0794 C.ar      1 <0>        -0.0985
      7 C7          0.5738   -0.6957    1.0787 C.ar      1 <0>        -0.1165
      8 C8          0.0704   -4.2518   -0.0214 C.2       1 <0>         0.1497
      9 C9          0.0778   -5.0559   -1.1264 C.2       1 <0>        -0.2047
     10 C10         0.0841   -6.3814   -0.6911 C.2       1 <0>        -0.0034
     11 N1          0.0806   -6.3920    0.6183 N.2       1 <0>        -0.2184
     12 N2          0.0772   -5.0674    1.0740 N.pl3     1 <0>        -0.3181
     13 C11         0.0780   -4.6538    2.4124 C.ar      1 <0>         0.1993
     14 C12        -0.7877   -3.6523    2.8316 C.ar      1 <0>        -0.1310
     15 C13        -0.7845   -3.2467    4.1518 C.ar      1 <0>        -0.0008
     16 C14         0.0799   -3.8365    5.0557 C.ar      1 <0>        -0.6729
     17 C15         0.9432   -4.8341    4.6414 C.ar      1 <0>         0.0013
     18 C16         0.9405   -5.2485    3.3238 C.ar      1 <0>        -0.1237
     19 S1          0.0817   -3.3155    6.7389 S.o2      1 <0>         2.7035
     20 O1          1.3615   -3.6412    7.2635 O.2       1 <0>        -0.9570
     21 O2         -0.4336   -1.9913    6.7547 O.2       1 <0>        -0.9571
     22 N3         -1.0144   -4.2595    7.5449 N.pl3     1 <0>        -1.2487
     23 C17         0.0927   -7.5984   -1.5799 C.3       1 <0>         0.5581
     24 F1          1.4144   -7.9678   -1.8518 F         1 <0>        -0.1637
     25 F2         -0.5625   -8.6523   -0.9339 F         1 <0>        -0.1639
     26 F3         -0.5656   -7.3049   -2.7789 F         1 <0>        -0.1610
     27 H1          0.9639    1.8738   -0.4347 H         1 <0>         0.0767
     28 H2         -0.8113    1.8655   -0.5652 H         1 <0>         0.0714
     29 H3         -0.0366    1.8607    1.0374 H         1 <0>         0.0715
     30 H4         -0.8709   -0.1431   -1.9232 H         1 <0>         0.1331
     31 H5         -0.8624   -2.6027   -1.9467 H         1 <0>         0.1336
     32 H6          0.9862   -2.6145    1.9221 H         1 <0>         0.1246
     33 H7          0.9772   -0.1548    1.9220 H         1 <0>         0.1315
     34 H8          0.0784   -4.7241   -2.1542 H         1 <0>         0.1732
     35 H9         -1.4626   -3.1908    2.1259 H         1 <0>         0.1459
     36 H10        -1.4576   -2.4679    4.4785 H         1 <0>         0.1580
     37 H11         1.6174   -5.2926    5.3496 H         1 <0>         0.1579
     38 H12         1.6117   -6.0309    3.0018 H         1 <0>         0.1479
     39 H13        -1.5085   -4.9443    7.0675 H         1 <0>         0.4179
     40 H14        -1.1624   -4.1277    8.4945 H         1 <0>         0.4235
@<TRIPOS>BOND
     1    1    2 1
     2    1   27 1
     3    1   28 1
     4    1   29 1
     5    2    7 ar
     6    2    3 ar
     7    3    4 ar
     8    3   30 1
     9    4    5 ar
    10    4   31 1
    11    5    6 ar
    12    5    8 1
    13    6    7 ar
    14    6   32 1
    15    7   33 1
    16    8   12 1
    17    8    9 2
    18    9   10 1
    19    9   34 1
    20   10   11 2
    21   10   23 1
    22   11   12 1
    23   12   13 1
    24   13   18 ar
    25   13   14 ar
    26   14   15 ar
    27   14   35 1
    28   15   16 ar
    29   15   36 1
    30   16   17 ar
    31   16   19 1
    32   17   18 ar
    33   17   37 1
    34   18   38 1
    35   19   20 2
    36   19   21 2
    37   19   22 1
    38   22   39 1
    39   22   40 1
    40   23   24 1
    41   23   25 1
    42   23   26 1
@<TRIPOS>MOLECULE
ZINC13493055
   37    40     0     0     0
SMALL
USER_CHARGES
5-(2,6-dichlorophenyl)-2-(2,4-difluorophenyl)sulfanyl-pyrimido[6,1-f]pyridazin-6-one
@<TRIPOS>ATOM
      1 C1          0.7819    4.3410    0.0524 C.ar      1 <0>        -0.0865
      2 C2         -0.4275    5.0027   -0.0644 C.ar      1 <0>        -0.1052
      3 C3         -1.6103    4.2903   -0.0692 C.ar      1 <0>        -0.0078
      4 C4         -1.5836    2.8981    0.0381 C.ar      1 <0>        -0.0051
      5 C5         -0.3594    2.2372    0.1611 C.ar      1 <0>        -0.0079
      6 C6          0.8156    2.9624    0.1649 C.ar      1 <0>        -0.1052
      7 Cl1        -0.3147    0.5075    0.3018 Cl        1 <0>        -0.0496
      8 C7         -2.8461    2.1276    0.0266 C.2       1 <0>        -0.1962
      9 C8         -3.3978    1.6608   -1.1750 C.2       1 <0>         0.1634
     10 C9         -2.7630    1.9018   -2.4066 C.2       1 <0>        -0.0494
     11 C10        -3.3310    1.4261   -3.5469 C.2       1 <0>        -0.1079
     12 C11        -4.5373    0.6985   -3.4809 C.2       1 <0>         0.1181
     13 N1         -5.1260    0.4712   -2.3297 N.2       1 <0>        -0.2574
     14 N2         -4.5673    0.9472   -1.1371 N.pl3     1 <0>        -0.3270
     15 C12        -5.1778    0.7109    0.0511 C.2       1 <0>         0.4228
     16 N3         -4.6823    1.1412    1.1775 N.2       1 <0>        -0.5427
     17 C13        -3.5381    1.8434    1.2263 C.2       1 <0>         0.5151
     18 O1         -3.0989    2.2338    2.2995 O.2       1 <0>        -0.4890
     19 S1         -5.2649    0.0865   -4.9643 S.3       1 <0>         0.1498
     20 C14        -6.6196   -0.8905   -4.4031 C.ar      1 <0>        -0.2138
     21 C15        -7.9169   -0.4067   -4.5085 C.ar      1 <0>         0.0058
     22 C16        -8.9776   -1.1741   -4.0680 C.ar      1 <0>        -0.1725
     23 C17        -8.7491   -2.4257   -3.5211 C.ar      1 <0>         0.1750
     24 C18        -7.4569   -2.9119   -3.4142 C.ar      1 <0>        -0.2011
     25 C19        -6.3919   -2.1502   -3.8590 C.ar      1 <0>         0.1941
     26 F1         -5.1316   -2.6265   -3.7599 F         1 <0>        -0.1130
     27 F2         -9.7887   -3.1735   -3.0908 F         1 <0>        -0.1191
     28 Cl2        -3.1267    5.1227   -0.2165 Cl        1 <0>        -0.0501
     29 H1          1.7040    4.9031    0.0556 H         1 <0>         0.1468
     30 H2         -0.4464    6.0789   -0.1525 H         1 <0>         0.1450
     31 H3          1.7632    2.4523    0.2554 H         1 <0>         0.1450
     32 H4         -1.8394    2.4601   -2.4465 H         1 <0>         0.1694
     33 H5         -2.8589    1.6049   -4.5017 H         1 <0>         0.1688
     34 H6         -6.1009    0.1504    0.0642 H         1 <0>         0.2171
     35 H7         -8.0965    0.5691   -4.9351 H         1 <0>         0.1572
     36 H8         -9.9865   -0.7976   -4.1504 H         1 <0>         0.1548
     37 H9         -7.2812   -3.8884   -2.9877 H         1 <0>         0.1586
@<TRIPOS>BOND
     1    1    6 ar
     2    1    2 ar
     3    1   29 1
     4    2    3 ar
     5    2   30 1
     6    3    4 ar
     7    3   28 1
     8    4    5 ar
     9    4    8 1
    10    5    6 ar
    11    5    7 1
    12    6   31 1
    13    8   17 1
    14    8    9 2
    15    9   14 1
    16    9   10 1
    17   10   11 2
    18   10   32 1
    19   11   12 1
    20   11   33 1
    21   12   13 2
    22   12   19 1
    23   13   14 1
    24   14   15 1
    25   15   16 2
    26   15   34 1
    27   16   17 1
    28   17   18 2
    29   19   20 1
    30   20   25 ar
    31   20   21 ar
    32   21   22 ar
    33   21   35 1
    34   22   23 ar
    35   22   36 1
    36   23   24 ar
    37   23   27 1
    38   24   25 ar
    39   24   37 1
    40   25   26 1
@<TRIPOS>MOLECULE
ZINC27110251
   50    54     0     0     0
SMALL
USER_CHARGES
7-ethoxy-4-[2-(6-methyl-2-pyridyl)-5,6-dihydro-4H-pyrrolo[2,1-e]pyrazol-3-yl]quinoline
@<TRIPOS>ATOM
      1 C1          4.8127    4.1887   -0.0235 C.3       1 <0>        -0.1551
      2 C2          3.4177    3.5606   -0.0131 C.3       1 <0>         0.0519
      3 O1          3.5364    2.1365   -0.0215 O.3       1 <0>        -0.3126
      4 C3          2.3815    1.4214   -0.0139 C.ar      1 <0>         0.1485
      5 C4          1.1542    2.0909    0.0023 C.ar      1 <0>        -0.1975
      6 C5         -0.0169    1.3973    0.0097 C.ar      1 <0>        -0.0335
      7 C6          0.0021   -0.0041    0.0020 C.ar      1 <0>        -0.1037
      8 C7         -1.2002   -0.7559    0.0100 C.ar      1 <0>         0.0971
      9 C8         -1.0991   -2.1421    0.0039 C.ar      1 <0>        -0.1852
     10 C9          0.1541   -2.7391   -0.0114 C.ar      1 <0>         0.1464
     11 N1          1.2591   -2.0311   -0.0195 N.ar      1 <0>        -0.4857
     12 C10         1.2388   -0.6932   -0.0135 C.ar      1 <0>         0.1709
     13 C11         2.4330    0.0462   -0.0214 C.ar      1 <0>        -0.1482
     14 C12        -2.5196   -0.0863    0.0265 C.2       1 <0>        -0.1753
     15 C13        -3.2376    0.2778    1.1331 C.2       1 <0>         0.0846
     16 N2         -4.3774    0.8616    0.7242 N.pl3     1 <0>        -0.3861
     17 N3         -4.4075    0.8747   -0.6810 N.2       1 <0>        -0.2469
     18 C14        -3.3073    0.3209   -1.1367 C.2       1 <0>         0.1422
     19 C15        -2.9361    0.1393   -2.5601 C.ar      1 <0>         0.2017
     20 C16        -3.9332    0.0781   -3.5323 C.ar      1 <0>        -0.1476
     21 C17        -3.5711   -0.0917   -4.8569 C.ar      1 <0>        -0.0715
     22 C18        -2.2220   -0.1949   -5.1671 C.ar      1 <0>        -0.1640
     23 C19        -1.2857   -0.1258   -4.1525 C.ar      1 <0>         0.1360
     24 N4         -1.6570    0.0418   -2.8993 N.ar      1 <0>        -0.4536
     25 C20         0.1800   -0.2369   -4.4849 C.3       1 <0>        -0.1083
     26 C21        -5.1938    1.2845    1.8765 C.3       1 <0>         0.1238
     27 C22        -4.6361    0.5071    3.0874 C.3       1 <0>        -0.1265
     28 C23        -3.1788    0.2431    2.6465 C.3       1 <0>        -0.0660
     29 H1          4.7213    5.2849   -0.0170 H         1 <0>         0.0796
     30 H2          5.3511    3.8710   -0.9286 H         1 <0>         0.0680
     31 H3          5.3686    3.8618    0.8676 H         1 <0>         0.0679
     32 H4          2.8793    3.8783    0.8920 H         1 <0>         0.0629
     33 H5          2.8617    3.8875   -0.9042 H         1 <0>         0.0632
     34 H6          1.1351    3.1707    0.0083 H         1 <0>         0.1294
     35 H7         -0.9588    1.9257    0.0171 H         1 <0>         0.1237
     36 H8         -1.9908   -2.7515    0.0103 H         1 <0>         0.1306
     37 H9          0.2217   -3.8170   -0.0171 H         1 <0>         0.1572
     38 H10         3.3861   -0.4616   -0.0336 H         1 <0>         0.1409
     39 H11        -4.9738    0.1617   -3.2555 H         1 <0>         0.1385
     40 H12        -4.3212   -0.1424   -5.6322 H         1 <0>         0.1398
     41 H13        -1.9069   -0.3283   -6.1914 H         1 <0>         0.1379
     42 H14         0.7722   -0.1610   -3.5611 H         1 <0>         0.0780
     43 H15         0.4632    0.5759   -5.1699 H         1 <0>         0.0791
     44 H16         0.3743   -1.2067   -4.9664 H         1 <0>         0.0800
     45 H17        -5.0945    2.3709    2.0172 H         1 <0>         0.0924
     46 H18        -6.2486    1.0338    1.6903 H         1 <0>         0.0962
     47 H19        -4.7094    1.1321    3.9897 H         1 <0>         0.1067
     48 H20        -5.2190   -0.4146    3.2315 H         1 <0>         0.0917
     49 H21        -2.8193   -0.7426    2.9769 H         1 <0>         0.1001
     50 H22        -2.4910    1.0232    3.0047 H         1 <0>         0.1007
@<TRIPOS>BOND
     1    1    2 1
     2    1   29 1
     3    1   30 1
     4    1   31 1
     5    2    3 1
     6    2   32 1
     7    2   33 1
     8    3    4 1
     9    4   13 ar
    10    4    5 ar
    11    5    6 ar
    12    5   34 1
    13    6    7 ar
    14    6   35 1
    15    7   12 ar
    16    7    8 ar
    17    8    9 ar
    18    8   14 1
    19    9   10 ar
    20    9   36 1
    21   10   11 ar
    22   10   37 1
    23   11   12 ar
    24   12   13 ar
    25   13   38 1
    26   14   18 1
    27   14   15 2
    28   15   28 1
    29   15   16 1
    30   16   17 1
    31   16   26 1
    32   17   18 2
    33   18   19 1
    34   19   24 ar
    35   19   20 ar
    36   20   21 ar
    37   20   39 1
    38   21   22 ar
    39   21   40 1
    40   22   23 ar
    41   22   41 1
    42   23   24 ar
    43   23   25 1
    44   25   42 1
    45   25   43 1
    46   25   44 1
    47   26   27 1
    48   26   45 1
    49   26   46 1
    50   27   28 1
    51   27   47 1
    52   27   48 1
    53   28   49 1
    54   28   50 1
@<TRIPOS>MOLECULE
ZINC27182176
   40    44     0     0     0
SMALL
USER_CHARGES
4-[2-(2-pyridyl)-5,6-dihydro-4H-pyrrolo[2,1-e]pyrazol-3-yl]quinoline
@<TRIPOS>ATOM
      1 C1         -0.0126    1.0758    0.0080 C.ar      1 <0>        -0.1241
      2 C2          1.1891    1.7801    0.0003 C.ar      1 <0>        -0.1000
      3 C3          1.2049    3.1412    0.0070 C.ar      1 <0>        -0.0977
      4 C4         -0.0075    3.8529    0.0223 C.ar      1 <0>         0.1312
      5 C5         -1.2265    3.1333    0.0306 C.ar      1 <0>        -0.0727
      6 C6         -1.2065    1.7326    0.0172 C.ar      1 <0>        -0.0762
      7 C7         -2.4478    3.8541    0.0462 C.ar      1 <0>         0.0841
      8 C8         -2.3814    5.2423    0.0520 C.ar      1 <0>        -0.1727
      9 C9         -1.1431    5.8702    0.0426 C.ar      1 <0>         0.1339
     10 N1         -0.0207    5.1901    0.0287 N.ar      1 <0>        -0.4803
     11 C10        -3.7498    3.1513    0.0558 C.2       1 <0>        -0.1736
     12 C11        -4.4801    2.7682   -1.0363 C.2       1 <0>         0.0844
     13 N2         -5.5966    2.1564   -0.6047 N.pl3     1 <0>        -0.3860
     14 N3         -5.5988    2.1440    0.8008 N.2       1 <0>        -0.2471
     15 C12        -4.5039    2.7252    1.2345 C.2       1 <0>         0.1410
     16 C13        -4.1090    2.9165    2.6502 C.ar      1 <0>         0.1972
     17 C14        -5.0878    2.9534    3.6421 C.ar      1 <0>        -0.1406
     18 C15        -4.7036    3.1322    4.9593 C.ar      1 <0>        -0.0751
     19 C16        -3.3516    3.2685    5.2426 C.ar      1 <0>        -0.1634
     20 C17        -2.4342    3.2223    4.2096 C.ar      1 <0>         0.1053
     21 N4         -2.8262    3.0458    2.9640 N.ar      1 <0>        -0.4541
     22 C18        -6.4246    1.7121   -1.7405 C.3       1 <0>         0.1237
     23 C19        -5.9105    2.5019   -2.9626 C.3       1 <0>        -0.1265
     24 C20        -4.4518    2.8028   -2.5506 C.3       1 <0>        -0.0659
     25 H1          0.0021   -0.0041    0.0020 H         1 <0>         0.1228
     26 H2          2.1230    1.2377   -0.0115 H         1 <0>         0.1274
     27 H3          2.1452    3.6723    0.0008 H         1 <0>         0.1333
     28 H4         -2.1322    1.1763    0.0186 H         1 <0>         0.1193
     29 H5         -3.2878    5.8294    0.0635 H         1 <0>         0.1309
     30 H6         -1.1022    6.9494    0.0473 H         1 <0>         0.1566
     31 H7         -6.1313    2.8443    3.3860 H         1 <0>         0.1390
     32 H8         -5.4393    3.1654    5.7493 H         1 <0>         0.1397
     33 H9         -3.0196    3.4098    6.2606 H         1 <0>         0.1389
     34 H10        -1.3816    3.3277    4.4269 H         1 <0>         0.1593
     35 H11        -6.3009    0.6284   -1.8826 H         1 <0>         0.0927
     36 H12        -7.4814    1.9365   -1.5338 H         1 <0>         0.0962
     37 H13        -5.9858    1.8743   -3.8629 H         1 <0>         0.1069
     38 H14        -6.5190    3.4085   -3.0957 H         1 <0>         0.0916
     39 H15        -4.1236    3.7968   -2.8886 H         1 <0>         0.0996
     40 H16        -3.7518    2.0398   -2.9218 H         1 <0>         0.1011
@<TRIPOS>BOND
     1    1    6 ar
     2    1    2 ar
     3    1   25 1
     4    2    3 ar
     5    2   26 1
     6    3    4 ar
     7    3   27 1
     8    4   10 ar
     9    4    5 ar
    10    5    6 ar
    11    5    7 ar
    12    6   28 1
    13    7    8 ar
    14    7   11 1
    15    8    9 ar
    16    8   29 1
    17    9   10 ar
    18    9   30 1
    19   11   15 1
    20   11   12 2
    21   12   24 1
    22   12   13 1
    23   13   14 1
    24   13   22 1
    25   14   15 2
    26   15   16 1
    27   16   21 ar
    28   16   17 ar
    29   17   18 ar
    30   17   31 1
    31   18   19 ar
    32   18   32 1
    33   19   20 ar
    34   19   33 1
    35   20   21 ar
    36   20   34 1
    37   22   23 1
    38   22   35 1
    39   22   36 1
    40   23   24 1
    41   23   37 1
    42   23   38 1
    43   24   39 1
    44   24   40 1
@<TRIPOS>MOLECULE
ZINC58633224
   46    49     0     0     0
SMALL
USER_CHARGES

@<TRIPOS>ATOM
      1 C1          0.0061    1.4638   -0.3326 C.3       1 <0>         0.0692
      2 N1          0.0190    0.0075   -0.1738 N.am      1 <0>        -0.5030
      3 C2         -1.1667   -0.6667   -0.0299 C.ar      1 <0>         0.4666
      4 C3         -1.1578   -2.0702    0.1228 C.ar      1 <0>        -0.2897
      5 C4          0.1185   -2.7800    0.1246 C.2       1 <0>         0.0266
      6 C5          1.2608   -2.0539   -0.0224 C.2       1 <0>        -0.0441
      7 C6          1.1930   -0.6486   -0.1770 C.2       1 <0>         0.5312
      8 O1          2.2258   -0.0160   -0.3120 O.2       1 <0>        -0.5008
      9 O2          2.4679   -2.6800   -0.0252 O.3       1 <0>        -0.2141
     10 C7          3.3138   -2.4399    1.0118 C.ar      1 <0>         0.0835
     11 C8          2.8933   -1.6721    2.0874 C.ar      1 <0>        -0.1285
     12 C9          3.7539   -1.4288    3.1406 C.ar      1 <0>        -0.1228
     13 C10         5.0363   -1.9506    3.1236 C.ar      1 <0>         0.1014
     14 C11         5.4595   -2.7171    2.0511 C.ar      1 <0>        -0.1543
     15 C12         4.5987   -2.9680    0.9978 C.ar      1 <0>         0.1132
     16 F1          5.0091   -3.7209   -0.0463 F         1 <0>        -0.1197
     17 F2          5.8759   -1.7112    4.1546 F         1 <0>        -0.1289
     18 C13        -2.3773   -2.7400    0.2678 C.ar      1 <0>         0.2730
     19 N2         -3.4912   -2.0290    0.2558 N.ar      1 <0>        -0.5773
     20 C14        -3.4630   -0.7093    0.1100 C.ar      1 <0>         0.6155
     21 N3         -2.3328   -0.0330   -0.0304 N.ar      1 <0>        -0.5988
     22 N4         -4.6577   -0.0155    0.1047 N.pl3     1 <0>        -0.6787
     23 C15        -5.9240   -0.7362    0.2579 C.3       1 <0>         0.1569
     24 C16        -6.3937   -1.2433   -1.1090 C.3       1 <0>        -0.1664
     25 C17        -7.7549   -1.9259   -0.9512 C.3       1 <0>         0.0636
     26 O3         -8.6865   -1.0025   -0.3841 O.3       1 <0>        -0.3805
     27 C18        -8.3231   -0.5307    0.9149 C.3       1 <0>         0.0655
     28 C19        -6.9847    0.2080    0.8321 C.3       1 <0>        -0.1666
     29 H1          1.0285    1.8269   -0.4377 H         1 <0>         0.1019
     30 H2         -0.5663    1.7273   -1.2220 H         1 <0>         0.0817
     31 H3         -0.4534    1.9207    0.5438 H         1 <0>         0.0817
     32 H4          0.1553   -3.8532    0.2400 H         1 <0>         0.1638
     33 H5          1.8934   -1.2643    2.1017 H         1 <0>         0.1368
     34 H6          3.4261   -0.8305    3.9779 H         1 <0>         0.1472
     35 H7          6.4602   -3.1232    2.0391 H         1 <0>         0.1595
     36 H8         -2.4078   -3.8130    0.3864 H         1 <0>         0.1883
     37 H9         -4.6582    0.9487   -0.0006 H         1 <0>         0.4173
     38 H10        -5.7836   -1.5805    0.9329 H         1 <0>         0.0996
     39 H11        -6.4852   -0.4031   -1.7974 H         1 <0>         0.0736
     40 H12        -5.6706   -1.9589   -1.5002 H         1 <0>         0.0811
     41 H13        -8.1139   -2.2510   -1.9277 H         1 <0>         0.0988
     42 H14        -7.6542   -2.7901   -0.2946 H         1 <0>         0.0564
     43 H15        -9.0914    0.1493    1.2828 H         1 <0>         0.1015
     44 H16        -8.2298   -1.3766    1.5960 H         1 <0>         0.0563
     45 H17        -6.6842    0.5303    1.8290 H         1 <0>         0.0828
     46 H18        -7.0881    1.0775    0.1829 H         1 <0>         0.0799
@<TRIPOS>BOND
     1    1    2 1
     2    1   29 1
     3    1   30 1
     4    1   31 1
     5    2    7 am
     6    2    3 1
     7    3   21 ar
     8    3    4 ar
     9    4    5 1
    10    4   18 ar
    11    5    6 2
    12    5   32 1
    13    6    7 1
    14    6    9 1
    15    7    8 2
    16    9   10 1
    17   10   15 ar
    18   10   11 ar
    19   11   12 ar
    20   11   33 1
    21   12   13 ar
    22   12   34 1
    23   13   14 ar
    24   13   17 1
    25   14   15 ar
    26   14   35 1
    27   15   16 1
    28   18   19 ar
    29   18   36 1
    30   19   20 ar
    31   20   21 ar
    32   20   22 1
    33   22   23 1
    34   22   37 1
    35   23   28 1
    36   23   24 1
    37   23   38 1
    38   24   25 1
    39   24   39 1
    40   24   40 1
    41   25   26 1
    42   25   41 1
    43   25   42 1
    44   26   27 1
    45   27   28 1
    46   27   43 1
    47   27   44 1
    48   28   45 1
    49   28   46 1
@<TRIPOS>MOLECULE
ZINC02022527
   54    55     0     0     0
SMALL
USER_CHARGES

@<TRIPOS>ATOM
      1 C1         -3.0730    2.2881   -4.2693 C.3       1 <0>        -0.1569
      2 C2         -2.3049    1.5870   -3.1471 C.3       1 <0>        -0.1270
      3 C3         -2.8110    2.0874   -1.7927 C.3       1 <0>        -0.1231
      4 C4         -2.0429    1.3862   -0.6705 C.3       1 <0>        -0.1174
      5 C5         -2.5490    1.8867    0.6839 C.3       1 <0>        -0.1006
      6 C6         -2.2117    3.3722    0.8391 C.3       1 <0>        -0.1451
      7 C7         -2.6658    3.8518    2.2196 C.3       1 <0>        -0.0114
      8 C8         -2.3347    1.6429    3.1595 C.3       1 <0>        -0.0001
      9 C9         -1.8707    1.0973    1.8070 C.3       1 <0>        -0.1442
     10 C10        -2.2939    3.5901    4.5974 C.3       1 <0>        -0.0052
     11 C11        -2.1583    5.1140    4.5919 C.3       1 <0>        -0.1459
     12 C12        -2.4764    5.6593    5.9856 C.3       1 <0>        -0.1543
     13 C13        -2.3428    7.1604    5.9803 C.2       1 <0>         0.3987
     14 O1         -2.0245    7.7371    4.9623 O.2       1 <0>        -0.4456
     15 C14        -2.5986    7.9263    7.2106 C.ar      1 <0>        -0.1885
     16 C15        -3.0878    7.2813    8.3513 C.ar      1 <0>        -0.0705
     17 C16        -3.3195    8.0047    9.5018 C.ar      1 <0>        -0.1389
     18 C17        -3.0801    9.3679    9.5265 C.ar      1 <0>        -0.0729
     19 C18        -2.6016   10.0143    8.4004 C.ar      1 <0>        -0.1345
     20 C19        -2.3594    9.3036    7.2436 C.ar      1 <0>        -0.0178
     21 C20        -1.8387   10.0095    6.0182 C.3       1 <0>        -0.1264
     22 H1         -4.1363    2.0676   -4.1746 H         1 <0>         0.0549
     23 H2         -2.9175    3.3647   -4.1985 H         1 <0>         0.0540
     24 H3         -2.7125    1.9316   -5.2342 H         1 <0>         0.0581
     25 H4         -1.2417    1.8075   -3.2417 H         1 <0>         0.0621
     26 H5         -2.4605    0.5104   -3.2179 H         1 <0>         0.0631
     27 H6         -3.8743    1.8669   -1.6981 H         1 <0>         0.0644
     28 H7         -2.6555    3.1639   -1.7219 H         1 <0>         0.0632
     29 H8         -2.1984    0.3097   -0.7413 H         1 <0>         0.0733
     30 H9         -0.9796    1.6067   -0.7651 H         1 <0>         0.0688
     31 H10        -3.6287    1.7492    0.7427 H         1 <0>         0.0884
     32 H11        -1.1354    3.5132    0.7407 H         1 <0>         0.0881
     33 H12        -2.7264    3.9447    0.0675 H         1 <0>         0.1133
     34 H13        -3.7442    3.7233    2.3122 H         1 <0>         0.1295
     35 H14        -2.4142    4.9057    2.3388 H         1 <0>         0.1342
     36 H15        -3.4146    1.5248    3.2476 H         1 <0>         0.1293
     37 H16        -1.8426    1.0924    3.9613 H         1 <0>         0.1282
     38 H17        -2.1418    0.0446    1.7270 H         1 <0>         0.1118
     39 H18        -0.7890    1.2025    1.7239 H         1 <0>         0.0880
     40 H19        -3.3133    3.3170    4.8704 H         1 <0>         0.1315
     41 H20        -1.5979    3.1659    5.3211 H         1 <0>         0.1302
     42 H21        -1.1389    5.3871    4.3190 H         1 <0>         0.0944
     43 H22        -2.8542    5.5382    3.8682 H         1 <0>         0.0968
     44 H23        -3.4115    5.4088    6.2361 H         1 <0>         0.0981
     45 H24        -1.7805    5.2352    6.7093 H         1 <0>         0.1100
     46 H25        -3.2793    6.2186    8.3321 H         1 <0>         0.1290
     47 H26        -3.6933    7.5074   10.3846 H         1 <0>         0.1322
     48 H27        -3.2682    9.9300   10.4293 H         1 <0>         0.1326
     49 H28        -2.4176   11.0782    8.4274 H         1 <0>         0.1332
     50 H29        -2.6709   10.2515    5.3572 H         1 <0>         0.0784
     51 H30        -1.3321   10.9277    6.3156 H         1 <0>         0.0652
     52 H31        -1.1365    9.3600    5.4956 H         1 <0>         0.0893
     53 N1         -1.9588    3.0696    3.2558 N.4       1 <0>        -0.3931
     54 H32        -0.9467    3.1581    3.1071 H         1 <0>         0.4272
@<TRIPOS>BOND
     1    1    2 1
     2    1   22 1
     3    1   23 1
     4    1   24 1
     5    2    3 1
     6    2   25 1
     7    2   26 1
     8    3    4 1
     9    3   27 1
    10    3   28 1
    11    4    5 1
    12    4   29 1
    13    4   30 1
    14    5    9 1
    15    5    6 1
    16    5   31 1
    17    6    7 1
    18    6   32 1
    19    6   33 1
    20    7   34 1
    21    7   35 1
    22    7   53 1
    23    8    9 1
    24    8   36 1
    25    8   37 1
    26    8   53 1
    27    9   38 1
    28    9   39 1
    29   10   11 1
    30   10   40 1
    31   10   41 1
    32   10   53 1
    33   11   12 1
    34   11   42 1
    35   11   43 1
    36   12   13 1
    37   12   44 1
    38   12   45 1
    39   13   14 2
    40   13   15 1
    41   15   20 ar
    42   15   16 ar
    43   16   17 ar
    44   16   46 1
    45   17   18 ar
    46   17   47 1
    47   18   19 ar
    48   18   48 1
    49   19   20 ar
    50   19   49 1
    51   20   21 1
    52   21   50 1
    53   21   51 1
    54   21   52 1
    55   53   54 1
@<TRIPOS>MOLECULE
ZINC01502387
   34    37     0     0     0
SMALL
USER_CHARGES

@<TRIPOS>ATOM
      1 C1         -0.1205    1.1752   -0.2598 C.ar      1 <0>        -0.1076
      2 C2          0.3819    0.7429    0.9544 C.ar      1 <0>        -0.1186
      3 C3          1.6133    0.1227    1.0132 C.ar      1 <0>        -0.0883
      4 C4          2.3511   -0.0679   -0.1538 C.ar      1 <0>        -0.0197
      5 C5          1.8399    0.3697   -1.3745 C.ar      1 <0>        -0.0905
      6 C6          0.6073    0.9887   -1.4212 C.ar      1 <0>        -0.1202
      7 C7          3.6752   -0.7332   -0.0970 C.2       1 <0>         0.1407
      8 C8          4.0074   -1.8696    0.6858 C.2       1 <0>        -0.2035
      9 C9          5.3203   -2.1596    0.4479 C.2       1 <0>         0.0883
     10 N1          5.7885   -1.2565   -0.4352 N.pl3     1 <0>        -0.4651
     11 H1          6.6925   -1.2221   -0.7850 H         1 <0>         0.4463
     12 N2          4.7492   -0.3794   -0.7670 N.2       1 <0>        -0.2762
     13 C10         3.0984   -2.6046    1.5926 C.ar      1 <0>         0.0623
     14 C11         3.3045   -2.6085    2.9672 C.ar      1 <0>        -0.1742
     15 C12         2.4321   -3.3081    3.7900 C.ar      1 <0>         0.1336
     16 N3          1.4085   -3.9737    3.3089 N.ar      1 <0>        -0.4774
     17 C13         1.1483   -4.0146    1.9978 C.ar      1 <0>         0.1319
     18 C14         1.9847   -3.3235    1.0885 C.ar      1 <0>        -0.0866
     19 C15         1.7040   -3.3659   -0.2833 C.ar      1 <0>        -0.0834
     20 C16         0.6245   -4.0682   -0.7289 C.ar      1 <0>        -0.1187
     21 C17        -0.2041   -4.7449    0.1629 C.ar      1 <0>        -0.0974
     22 C18         0.0469   -4.7334    1.5008 C.ar      1 <0>        -0.0972
     23 H2         -1.0866    1.6560   -0.3017 H         1 <0>         0.1248
     24 H3         -0.1905    0.8914    1.8582 H         1 <0>         0.1256
     25 H4          2.0047   -0.2140    1.9618 H         1 <0>         0.1214
     26 H5          2.4074    0.2250   -2.2818 H         1 <0>         0.1253
     27 H6          0.2100    1.3278   -2.3665 H         1 <0>         0.1266
     28 H7          5.8832   -2.9687    0.8894 H         1 <0>         0.1849
     29 H8          4.1387   -2.0706    3.3927 H         1 <0>         0.1374
     30 H9          2.6010   -3.3049    4.8567 H         1 <0>         0.1599
     31 H10         2.3395   -2.8446   -0.9839 H         1 <0>         0.1243
     32 H11         0.4086   -4.1001   -1.7866 H         1 <0>         0.1258
     33 H12        -1.0539   -5.2948   -0.2138 H         1 <0>         0.1297
     34 H13        -0.6049   -5.2639    2.1791 H         1 <0>         0.1354
@<TRIPOS>BOND
     1    1    6 ar
     2    1    2 ar
     3    1   23 1
     4    2    3 ar
     5    2   24 1
     6    3    4 ar
     7    3   25 1
     8    4    5 ar
     9    4    7 1
    10    5    6 ar
    11    5   26 1
    12    6   27 1
    13    7   12 2
    14    7    8 1
    15    8    9 2
    16    8   13 1
    17    9   10 1
    18    9   28 1
    19   10   11 1
    20   10   12 1
    21   13   18 ar
    22   13   14 ar
    23   14   15 ar
    24   14   29 1
    25   15   16 ar
    26   15   30 1
    27   16   17 ar
    28   17   22 ar
    29   17   18 ar
    30   18   19 ar
    31   19   20 ar
    32   19   31 1
    33   20   21 ar
    34   20   32 1
    35   21   22 ar
    36   21   33 1
    37   22   34 1
@<TRIPOS>MOLECULE
ZINC03817808
   36    39     0     0     0
SMALL
USER_CHARGES

@<TRIPOS>ATOM
      1 C1         -0.0184    1.5028    0.0103 C.3       1 <0>        -0.1072
      2 C2          0.0021   -0.0041    0.0020 C.ar      1 <0>         0.1366
      3 C3          0.0055   -0.6795   -1.2046 C.ar      1 <0>        -0.1631
      4 C4          0.0244   -2.0670   -1.2080 C.ar      1 <0>        -0.0718
      5 C5          0.0391   -2.7306    0.0065 C.ar      1 <0>        -0.1464
      6 C6          0.0346   -1.9865    1.1848 C.ar      1 <0>         0.1949
      7 N1          0.0218   -0.6599    1.1444 N.ar      1 <0>        -0.4516
      8 C7          0.0498   -2.6820    2.4936 C.2       1 <0>         0.1404
      9 C8          0.5405   -2.1401    3.7620 C.2       1 <0>        -0.1849
     10 C9          0.3639   -3.1174    4.6998 C.2       1 <0>         0.0833
     11 N2         -0.1872   -4.1845    4.0924 N.pl3     1 <0>        -0.4660
     12 H1         -0.4183   -5.0196    4.5285 H         1 <0>         0.4464
     13 N3         -0.3803   -3.9012    2.7368 N.2       1 <0>        -0.2639
     14 C10         1.1161   -0.7955    3.9847 C.ar      1 <0>         0.0695
     15 C11         2.4454   -0.6366    4.3581 C.ar      1 <0>        -0.1772
     16 C12         2.9542    0.6396    4.5586 C.ar      1 <0>         0.1303
     17 N4          2.2146    1.7128    4.4063 N.ar      1 <0>        -0.4799
     18 C13         0.9282    1.6367    4.0487 C.ar      1 <0>         0.1312
     19 C14         0.3313    0.3740    3.8184 C.ar      1 <0>        -0.0644
     20 C15        -1.0151    0.3010    3.4386 C.ar      1 <0>        -0.0416
     21 C16        -1.7362    1.4477    3.2891 C.ar      1 <0>        -0.1350
     22 C17        -1.1511    2.6923    3.5093 C.ar      1 <0>        -0.0955
     23 C18         0.1513    2.7979    3.8909 C.ar      1 <0>        -0.1050
     24 H2          1.0042    1.8801    0.0026 H         1 <0>         0.0775
     25 H3         -0.5455    1.8639   -0.8728 H         1 <0>         0.0758
     26 H4         -0.5286    1.8543    0.9071 H         1 <0>         0.0813
     27 H5         -0.0067   -0.1322   -2.1356 H         1 <0>         0.1375
     28 H6          0.0271   -2.6168   -2.1376 H         1 <0>         0.1395
     29 H7          0.0536   -3.8100    0.0406 H         1 <0>         0.1388
     30 H8          0.6220   -3.0464    5.7461 H         1 <0>         0.1874
     31 H9          3.0789   -1.5010    4.4919 H         1 <0>         0.1330
     32 H10         3.9884    0.7522    4.8487 H         1 <0>         0.1565
     33 H11        -1.4790   -0.6586    3.2648 H         1 <0>         0.1172
     34 H12        -2.7741    1.3906    2.9958 H         1 <0>         0.1198
     35 H13        -1.7426    3.5873    3.3842 H         1 <0>         0.1254
     36 H14         0.5899    3.7705    4.0584 H         1 <0>         0.1313
@<TRIPOS>BOND
     1    1    2 1
     2    1   24 1
     3    1   25 1
     4    1   26 1
     5    2    7 ar
     6    2    3 ar
     7    3    4 ar
     8    3   27 1
     9    4    5 ar
    10    4   28 1
    11    5    6 ar
    12    5   29 1
    13    6    7 ar
    14    6    8 1
    15    8   13 2
    16    8    9 1
    17    9   10 2
    18    9   14 1
    19   10   11 1
    20   10   30 1
    21   11   12 1
    22   11   13 1
    23   14   19 ar
    24   14   15 ar
    25   15   16 ar
    26   15   31 1
    27   16   17 ar
    28   16   32 1
    29   17   18 ar
    30   18   23 ar
    31   18   19 ar
    32   19   20 ar
    33   20   21 ar
    34   20   33 1
    35   21   22 ar
    36   21   34 1
    37   22   23 ar
    38   22   35 1
    39   23   36 1
@<TRIPOS>MOLECULE
ZINC01502393
   37    40     0     0     0
SMALL
USER_CHARGES

@<TRIPOS>ATOM
      1 C1          0.2668    1.2841    0.3460 C.ar      1 <0>        -0.1161
      2 C2          1.4880    1.9514    0.2893 C.ar      1 <0>        -0.0969
      3 C3          2.6521    1.2700    0.1065 C.ar      1 <0>        -0.0960
      4 C4          2.6278   -0.1294   -0.0276 C.ar      1 <0>         0.1319
      5 C5          1.3845   -0.8036    0.0307 C.ar      1 <0>        -0.0872
      6 C6          0.2053   -0.0714    0.2199 C.ar      1 <0>        -0.0874
      7 C7          1.3633   -2.2152   -0.1049 C.ar      1 <0>         0.0576
      8 C8          2.5769   -2.8671   -0.2897 C.ar      1 <0>        -0.1721
      9 C9          3.7522   -2.1295   -0.3350 C.ar      1 <0>         0.1332
     10 N1          3.7567   -0.8233   -0.2076 N.ar      1 <0>        -0.4755
     11 C10         0.0915   -2.9690   -0.0511 C.2       1 <0>        -0.2001
     12 C11        -0.2827   -3.8551    0.9181 C.2       1 <0>         0.0913
     13 N2         -1.5058   -4.3214    0.6004 N.pl3     1 <0>        -0.4613
     14 H1         -2.0171   -4.9666    1.1134 H         1 <0>         0.4479
     15 N3         -1.9148   -3.7182   -0.5947 N.2       1 <0>        -0.2709
     16 C12        -0.9671   -2.8996   -0.9941 C.2       1 <0>         0.1349
     17 C13        -0.9969   -2.0569   -2.2139 C.ar      1 <0>        -0.0163
     18 C14         0.1420   -1.9357   -3.0086 C.ar      1 <0>        -0.0573
     19 C15         0.1083   -1.1505   -4.1428 C.ar      1 <0>        -0.1160
     20 C16        -1.0527   -0.4840   -4.4917 C.ar      1 <0>        -0.0612
     21 C17        -2.1856   -0.6002   -3.7068 C.ar      1 <0>        -0.1819
     22 C18        -2.1653   -1.3878   -2.5734 C.ar      1 <0>        -0.0412
     23 C19        -3.4463    0.1294   -4.0932 C.3       1 <0>         0.5095
     24 F1         -3.2252    0.8507   -5.2713 F         1 <0>        -0.1755
     25 F2         -4.4758   -0.7953   -4.2989 F         1 <0>        -0.1748
     26 F3         -3.8084    1.0099   -3.0682 F         1 <0>        -0.1752
     27 H2         -0.6423    1.8475    0.4964 H         1 <0>         0.1267
     28 H3          1.5117    3.0263    0.3915 H         1 <0>         0.1304
     29 H4          3.5909    1.8023    0.0644 H         1 <0>         0.1360
     30 H5         -0.7472   -0.5783    0.2658 H         1 <0>         0.1242
     31 H6          2.6054   -3.9414   -0.3970 H         1 <0>         0.1383
     32 H7          4.6900   -2.6456   -0.4786 H         1 <0>         0.1605
     33 H8          0.2987   -4.1329    1.7848 H         1 <0>         0.1867
     34 H9          1.0491   -2.4550   -2.7368 H         1 <0>         0.1330
     35 H10         0.9901   -1.0559   -4.7592 H         1 <0>         0.1407
     36 H11        -1.0745    0.1297   -5.3801 H         1 <0>         0.1426
     37 H12        -3.0519   -1.4816   -1.9639 H         1 <0>         0.1376
@<TRIPOS>BOND
     1    1    6 ar
     2    1    2 ar
     3    1   27 1
     4    2    3 ar
     5    2   28 1
     6    3    4 ar
     7    3   29 1
     8    4   10 ar
     9    4    5 ar
    10    5    6 ar
    11    5    7 ar
    12    6   30 1
    13    7    8 ar
    14    7   11 1
    15    8    9 ar
    16    8   31 1
    17    9   10 ar
    18    9   32 1
    19   11   16 1
    20   11   12 2
    21   12   13 1
    22   12   33 1
    23   13   14 1
    24   13   15 1
    25   15   16 2
    26   16   17 1
    27   17   22 ar
    28   17   18 ar
    29   18   19 ar
    30   18   34 1
    31   19   20 ar
    32   19   35 1
    33   20   21 ar
    34   20   36 1
    35   21   22 ar
    36   21   23 1
    37   22   37 1
    38   23   24 1
    39   23   25 1
    40   23   26 1
@<TRIPOS>MOLECULE
ZINC01493878
   48    50     0     0     0
SMALL
USER_CHARGES

@<TRIPOS>ATOM
      1 C1         -1.0955   -5.0083   -6.9234 C.3       1 <0>         0.0847
      2 N1         -1.5520   -4.3038   -5.7228 N.am      1 <0>        -0.7137
      3 C2         -1.8827   -5.0004   -4.6175 C.2       1 <0>         0.5696
      4 O1         -1.8023   -6.2129   -4.6168 O.2       1 <0>        -0.5284
      5 C3         -2.3445   -4.2878   -3.4031 C.ar      1 <0>         0.1129
      6 C4         -2.6788   -5.0128   -2.2640 C.ar      1 <0>        -0.1883
      7 C5         -3.1110   -4.3279   -1.1310 C.ar      1 <0>         0.1595
      8 C6         -3.1903   -2.9389   -1.1877 C.ar      1 <0>        -0.1766
      9 C7         -2.8404   -2.2885   -2.3571 C.ar      1 <0>         0.1349
     10 N2         -2.4302   -2.9626   -3.4105 N.ar      1 <0>        -0.4815
     11 O2         -3.4471   -4.9979    0.0005 O.3       1 <0>        -0.2437
     12 C8         -3.4462   -6.3570   -0.0383 C.ar      1 <0>         0.0568
     13 C9         -2.2447   -7.0505   -0.0178 C.ar      1 <0>        -0.1074
     14 C10        -2.2431   -8.4307   -0.0577 C.ar      1 <0>        -0.1009
     15 C11        -3.4442   -9.1246   -0.1179 C.ar      1 <0>         0.1671
     16 C12        -4.6464   -8.4301   -0.1379 C.ar      1 <0>        -0.1272
     17 C13        -4.6469   -7.0500   -0.0928 C.ar      1 <0>        -0.0940
     18 N3         -3.4432  -10.5252   -0.1588 N.am      1 <0>        -0.6776
     19 C14        -2.5108  -11.2187    0.5239 C.2       1 <0>         0.7077
     20 O3         -1.6217  -10.6297    1.1080 O.2       1 <0>        -0.5493
     21 N4         -2.5639  -12.5649    0.5593 N.am      1 <0>        -0.6795
     22 C15        -1.6655  -13.2800    1.3600 C.ar      1 <0>         0.1700
     23 C16        -1.2529  -12.7583    2.5792 C.ar      1 <0>        -0.0742
     24 C17        -0.3670  -13.4659    3.3674 C.ar      1 <0>        -0.0871
     25 C18         0.1097  -14.6941    2.9434 C.ar      1 <0>        -0.0077
     26 C19        -0.2993  -15.2159    1.7290 C.ar      1 <0>        -0.1564
     27 C20        -1.1898  -14.5147    0.9394 C.ar      1 <0>        -0.0879
     28 C21         0.2222  -16.5533    1.2702 C.3       1 <0>         0.5112
     29 F1         -0.3299  -16.8663    0.0234 F         1 <0>        -0.1743
     30 F2          1.6160  -16.4983    1.1626 F         1 <0>        -0.1671
     31 F3         -0.1354  -17.5367    2.1987 F         1 <0>        -0.1677
     32 Cl1         1.2234  -15.5812    3.9366 Cl        1 <0>        -0.0394
     33 H1         -0.8760   -4.2843   -7.7081 H         1 <0>         0.0803
     34 H2         -0.1948   -5.5764   -6.6909 H         1 <0>         0.0631
     35 H3         -1.8761   -5.6883   -7.2645 H         1 <0>         0.0629
     36 H4         -1.6162   -3.3359   -5.7233 H         1 <0>         0.4141
     37 H5         -2.6047   -6.0902   -2.2584 H         1 <0>         0.1546
     38 H6         -3.5217   -2.3755   -0.3280 H         1 <0>         0.1523
     39 H7         -2.9005   -1.2112   -2.4052 H         1 <0>         0.1747
     40 H8         -1.3104   -6.5106    0.0290 H         1 <0>         0.1364
     41 H9         -1.3078   -8.9704   -0.0424 H         1 <0>         0.1514
     42 H10        -5.5809   -8.9693   -0.1851 H         1 <0>         0.1386
     43 H11        -5.5820   -6.5098   -0.1039 H         1 <0>         0.1400
     44 H12        -4.1137  -10.9957   -0.6785 H         1 <0>         0.4131
     45 H13        -3.2246  -13.0383    0.0299 H         1 <0>         0.4146
     46 H14        -1.6244  -11.7997    2.9103 H         1 <0>         0.1546
     47 H15        -0.0456  -13.0604    4.3154 H         1 <0>         0.1524
     48 H16        -1.5123  -14.9245   -0.0064 H         1 <0>         0.1525
@<TRIPOS>BOND
     1    1    2 1
     2    1   33 1
     3    1   34 1
     4    1   35 1
     5    2    3 am
     6    2   36 1
     7    3    4 2
     8    3    5 1
     9    5   10 ar
    10    5    6 ar
    11    6    7 ar
    12    6   37 1
    13    7    8 ar
    14    7   11 1
    15    8    9 ar
    16    8   38 1
    17    9   10 ar
    18    9   39 1
    19   11   12 1
    20   12   17 ar
    21   12   13 ar
    22   13   14 ar
    23   13   40 1
    24   14   15 ar
    25   14   41 1
    26   15   16 ar
    27   15   18 1
    28   16   17 ar
    29   16   42 1
    30   17   43 1
    31   18   19 am
    32   18   44 1
    33   19   20 2
    34   19   21 am
    35   21   22 1
    36   21   45 1
    37   22   27 ar
    38   22   23 ar
    39   23   24 ar
    40   23   46 1
    41   24   25 ar
    42   24   47 1
    43   25   26 ar
    44   25   32 1
    45   26   27 ar
    46   26   28 1
    47   27   48 1
    48   28   29 1
    49   28   30 1
    50   28   31 1
@<TRIPOS>MOLECULE
ZINC21982951
   60    63     0     0     0
SMALL
USER_CHARGES

@<TRIPOS>ATOM
      1 C1         -2.0700    1.6928    0.2333 C.3       1 <0>        -0.1170
      2 C2         -1.6482    0.2604    0.0301 C.ar      1 <0>        -0.0813
      3 C3         -1.8479   -0.3525   -1.1919 C.ar      1 <0>        -0.1034
      4 C4         -1.4615   -1.6665   -1.3798 C.ar      1 <0>        -0.0990
      5 C5         -0.8738   -2.3725   -0.3459 C.ar      1 <0>        -0.1046
      6 C6         -0.6714   -1.7660    0.8791 C.ar      1 <0>        -0.0220
      7 C7         -1.0534   -0.4428    1.0688 C.ar      1 <0>         0.1347
      8 N1         -0.8441    0.1769    2.3055 N.am      1 <0>        -0.6659
      9 C8         -1.2819   -0.4110    3.4365 C.2       1 <0>         0.6018
     10 O1         -1.7689   -1.5261    3.3939 O.2       1 <0>        -0.4722
     11 C9         -1.1720    0.2905    4.7149 C.2       1 <0>        -0.2635
     12 C10        -1.5472   -0.1201    5.9866 C.2       1 <0>         0.1512
     13 N2         -1.3262    0.7270    6.9599 N.2       1 <0>        -0.5510
     14 C11        -0.7756    1.9070    6.7361 C.2       1 <0>         0.2513
     15 S1         -0.5107    1.9100    5.0742 S.3       1 <0>         0.2445
     16 N3         -0.4817    2.8997    7.6498 N.pl3     1 <0>        -0.5870
     17 C12        -0.6908    2.6801    9.0050 C.ar      1 <0>         0.4543
     18 C13        -1.0534    1.4192    9.4679 C.ar      1 <0>        -0.2926
     19 C14        -1.2512    1.2508   10.8352 C.ar      1 <0>         0.4935
     20 N4         -1.0875    2.2952   11.6453 N.ar      1 <0>        -0.5328
     21 C15        -0.7435    3.4737   11.1677 C.ar      1 <0>         0.4541
     22 N5         -0.5417    3.6719    9.8809 N.ar      1 <0>        -0.5672
     23 C16        -0.5694    4.6273   12.1217 C.3       1 <0>        -0.1251
     24 N6         -1.6138    0.0143   11.3464 N.pl3     1 <0>        -0.5370
     25 C17        -2.0559   -0.1253   12.7422 C.3       1 <0>         0.1090
     26 C18        -3.3866   -0.8852   12.7576 C.3       1 <0>         0.0383
     27 N7         -3.2335   -2.1493   12.0251 N.3       1 <0>        -0.5289
     28 C19        -2.9165   -1.9105   10.6107 C.3       1 <0>         0.0343
     29 C20        -1.5725   -1.1917   10.5056 C.3       1 <0>         0.1057
     30 C21        -4.4334   -2.9856   12.1619 C.3       1 <0>         0.0545
     31 C22        -4.1483   -4.3816   11.6043 C.3       1 <0>         0.0776
     32 O2         -3.1500   -5.0191   12.4038 O.3       1 <0>        -0.5606
     33 Cl1         0.0658   -2.6526    2.1768 Cl        1 <0>        -0.0453
     34 H1         -1.2464    2.3553   -0.0328 H         1 <0>         0.0773
     35 H2         -2.9308    1.9112   -0.3987 H         1 <0>         0.0785
     36 H3         -2.3379    1.8478    1.2784 H         1 <0>         0.0640
     37 H4         -2.3069    0.1956   -2.0014 H         1 <0>         0.1372
     38 H5         -1.6193   -2.1430   -2.3361 H         1 <0>         0.1391
     39 H6         -0.5731   -3.3989   -0.4959 H         1 <0>         0.1403
     40 H7         -0.3838    1.0296    2.3489 H         1 <0>         0.4083
     41 H8         -1.9972   -1.0858    6.1634 H         1 <0>         0.2027
     42 H9         -0.1293    3.7505    7.3451 H         1 <0>         0.4460
     43 H10        -1.1784    0.5927    8.7841 H         1 <0>         0.2218
     44 H11         0.4644    4.6619   12.4652 H         1 <0>         0.1245
     45 H12        -0.8146    5.5596   11.6130 H         1 <0>         0.1071
     46 H13        -1.2322    4.4948   12.9768 H         1 <0>         0.1273
     47 H14        -1.3096   -0.6823   13.3087 H         1 <0>         0.0989
     48 H15        -2.1929    0.8619   13.1834 H         1 <0>         0.1094
     49 H16        -3.6740   -1.0944   13.7880 H         1 <0>         0.1036
     50 H17        -4.1569   -0.2794   12.2806 H         1 <0>         0.0428
     51 H18        -2.8631   -2.8634   10.0841 H         1 <0>         0.1043
     52 H19        -3.6935   -1.2904   10.1636 H         1 <0>         0.0450
     53 H20        -1.3900   -0.9091    9.4688 H         1 <0>         0.1029
     54 H21        -0.7788   -1.8532   10.8529 H         1 <0>         0.1042
     55 H22        -4.7041   -3.0633   13.2149 H         1 <0>         0.0912
     56 H23        -5.2561   -2.5340   11.6075 H         1 <0>         0.0533
     57 H24        -5.0627   -4.9745   11.6240 H         1 <0>         0.0547
     58 H25        -3.7921   -4.2970   10.5776 H         1 <0>         0.0454
     59 H26        -2.9188   -5.9101   12.1076 H         1 <0>         0.3805
     60 H27        -0.2852    4.5531    9.5669 H         1 <0>         0.4414
@<TRIPOS>BOND
     1    1    2 1
     2    1   34 1
     3    1   35 1
     4    1   36 1
     5    2    7 ar
     6    2    3 ar
     7    3    4 ar
     8    3   37 1
     9    4    5 ar
    10    4   38 1
    11    5    6 ar
    12    5   39 1
    13    6    7 ar
    14    6   33 1
    15    7    8 1
    16    8    9 am
    17    8   40 1
    18    9   10 2
    19    9   11 1
    20   11   15 1
    21   11   12 2
    22   12   13 1
    23   12   41 1
    24   13   14 2
    25   14   15 1
    26   14   16 1
    27   16   17 1
    28   16   42 1
    29   17   22 ar
    30   17   18 ar
    31   18   19 ar
    32   18   43 1
    33   19   20 ar
    34   19   24 1
    35   20   21 ar
    36   21   22 ar
    37   21   23 1
    38   22   60 1
    39   23   44 1
    40   23   45 1
    41   23   46 1
    42   24   29 1
    43   24   25 1
    44   25   26 1
    45   25   47 1
    46   25   48 1
    47   26   27 1
    48   26   49 1
    49   26   50 1
    50   27   28 1
    51   27   30 1
    52   28   29 1
    53   28   51 1
    54   28   52 1
    55   29   53 1
    56   29   54 1
    57   30   31 1
    58   30   55 1
    59   30   56 1
    60   31   32 1
    61   31   57 1
    62   31   58 1
    63   32   59 1
@<TRIPOS>MOLECULE
ZINC21982951
   60    63     0     0     0
SMALL
USER_CHARGES

@<TRIPOS>ATOM
      1 C1          3.2739    6.6585    1.8418 C.3       1 <0>        -0.1168
      2 C2          2.5810    7.9910    1.9663 C.ar      1 <0>        -0.0823
      3 C3          2.8983    9.0189    1.0995 C.ar      1 <0>        -0.1038
      4 C4          2.2635   10.2419    1.2126 C.ar      1 <0>        -0.1008
      5 C5          1.3088   10.4411    2.1933 C.ar      1 <0>        -0.1049
      6 C6          0.9869    9.4175    3.0639 C.ar      1 <0>        -0.0226
      7 C7          1.6192    8.1849    2.9486 C.ar      1 <0>         0.1373
      8 N1          1.2913    7.1440    3.8238 N.am      1 <0>        -0.6678
      9 C8          1.3128    7.3511    5.1554 C.2       1 <0>         0.6036
     10 O1          1.5184    8.4680    5.5945 O.2       1 <0>        -0.4759
     11 C9          1.0891    6.2346    6.0728 C.2       1 <0>        -0.2694
     12 C10         1.0619    6.2190    7.4604 C.2       1 <0>         0.1522
     13 N2          0.8357    5.0596    8.0247 N.2       1 <0>        -0.5060
     14 C11         0.6446    3.9678    7.3056 C.2       1 <0>         0.2464
     15 S1          0.7674    4.5141    5.7185 S.3       1 <0>         0.2029
     16 N3          0.3973    2.6842    7.7505 N.pl3     1 <0>        -0.5650
     17 C12         0.2197    2.4414    9.1063 C.ar      1 <0>         0.4999
     18 C13        -0.1342    1.1736    9.5555 C.ar      1 <0>        -0.3181
     19 C14        -0.3003    0.9817   10.9244 C.ar      1 <0>         0.4940
     20 N4         -0.1157    2.0114   11.7481 N.ar      1 <0>        -0.5712
     21 C15         0.2193    3.1978   11.2829 C.ar      1 <0>         0.4509
     22 N5          0.3911    3.4178    9.9956 N.ar      1 <0>        -0.4879
     23 C16         0.4179    4.3344   12.2523 C.3       1 <0>        -0.1253
     24 N6         -0.6531   -0.2629   11.4224 N.pl3     1 <0>        -0.5744
     25 C17        -0.9639   -0.4449   12.8484 C.3       1 <0>         0.1013
     26 C18        -2.3114   -1.1652   12.9649 C.3       1 <0>         0.0387
     27 N7         -2.2712   -2.4031   12.1749 N.3       1 <0>        -0.5277
     28 C19        -2.0835   -2.1176   10.7462 C.3       1 <0>         0.0305
     29 C20        -0.7325   -1.4351   10.5377 C.3       1 <0>         0.1149
     30 C21        -3.4796   -3.2085   12.3965 C.3       1 <0>         0.0543
     31 C22        -3.2958   -4.5889   11.7629 C.3       1 <0>         0.0774
     32 O2         -2.2472   -5.2869   12.4378 O.3       1 <0>        -0.5615
     33 Cl1        -0.2110    9.6681    4.2952 Cl        1 <0>        -0.0453
     34 H1          2.7121    6.0191    1.1609 H         1 <0>         0.0767
     35 H2          4.2810    6.8077    1.4524 H         1 <0>         0.0779
     36 H3          3.3298    6.1850    2.8220 H         1 <0>         0.0648
     37 H4          3.6435    8.8670    0.3327 H         1 <0>         0.1365
     38 H5          2.5139   11.0437    0.5337 H         1 <0>         0.1383
     39 H6          0.8148   11.3976    2.2790 H         1 <0>         0.1396
     40 H7          1.0484    6.2731    3.4723 H         1 <0>         0.4083
     41 H8          1.2191    7.1147    8.0430 H         1 <0>         0.1979
     42 H9          0.3477    1.9521    7.1161 H         1 <0>         0.4525
     43 H10        -0.2767    0.3593    8.8606 H         1 <0>         0.1835
     44 H11         1.4596    4.3615   12.5720 H         1 <0>         0.1250
     45 H12         0.1626    5.2758   11.7656 H         1 <0>         0.1301
     46 H13        -0.2249    4.1881   13.1203 H         1 <0>         0.1049
     47 H14        -0.1857   -1.0458   13.3190 H         1 <0>         0.1119
     48 H15        -1.0251    0.5276   13.3369 H         1 <0>         0.0843
     49 H16        -2.5057   -1.4068   14.0099 H         1 <0>         0.1076
     50 H17        -3.1034   -0.5184   12.5874 H         1 <0>         0.0465
     51 H18        -2.1124   -3.0499   10.1822 H         1 <0>         0.1076
     52 H19        -2.8786   -1.4576   10.3996 H         1 <0>         0.0467
     53 H20        -0.6409   -1.1170    9.4992 H         1 <0>         0.1034
     54 H21         0.0684   -2.1330   10.7819 H         1 <0>         0.1075
     55 H22        -3.6507   -3.3200   13.4672 H         1 <0>         0.0925
     56 H23        -4.3362   -2.7111   11.9416 H         1 <0>         0.0553
     57 H24        -4.2233   -5.1548   11.8494 H         1 <0>         0.0565
     58 H25        -3.0370   -4.4741   10.7103 H         1 <0>         0.0456
     59 H26        -2.0752   -6.1719   12.0881 H         1 <0>         0.3821
     60 H27        -0.2297    1.8867   12.7033 H         1 <0>         0.4392
@<TRIPOS>BOND
     1    1    2 1
     2    1   34 1
     3    1   35 1
     4    1   36 1
     5    2    7 ar
     6    2    3 ar
     7    3    4 ar
     8    3   37 1
     9    4    5 ar
    10    4   38 1
    11    5    6 ar
    12    5   39 1
    13    6    7 ar
    14    6   33 1
    15    7    8 1
    16    8    9 am
    17    8   40 1
    18    9   10 2
    19    9   11 1
    20   11   15 1
    21   11   12 2
    22   12   13 1
    23   12   41 1
    24   13   14 2
    25   14   15 1
    26   14   16 1
    27   16   17 1
    28   16   42 1
    29   17   18 ar
    30   17   22 ar
    31   18   43 1
    32   18   19 ar
    33   19   24 1
    34   19   20 ar
    35   20   60 1
    36   20   21 ar
    37   21   23 1
    38   21   22 ar
    39   23   44 1
    40   23   45 1
    41   23   46 1
    42   24   29 1
    43   24   25 1
    44   25   26 1
    45   25   47 1
    46   25   48 1
    47   26   27 1
    48   26   49 1
    49   26   50 1
    50   27   28 1
    51   27   30 1
    52   28   29 1
    53   28   51 1
    54   28   52 1
    55   29   53 1
    56   29   54 1
    57   30   31 1
    58   30   55 1
    59   30   56 1
    60   31   32 1
    61   31   57 1
    62   31   58 1
    63   32   59 1
@<TRIPOS>MOLECULE
ZINC21982951
   59    62     0     0     0
SMALL
USER_CHARGES

@<TRIPOS>ATOM
      1 C1          3.4106    6.6420    1.8847 C.3       1 <0>        -0.1165
      2 C2          2.6976    7.9659    1.9845 C.ar      1 <0>        -0.0852
      3 C3          3.0204    8.9921    1.1176 C.ar      1 <0>        -0.1055
      4 C4          2.3672   10.2073    1.2080 C.ar      1 <0>        -0.1070
      5 C5          1.3885   10.4004    2.1660 C.ar      1 <0>        -0.1064
      6 C6          1.0609    9.3785    3.0365 C.ar      1 <0>        -0.0243
      7 C7          1.7118    8.1536    2.9438 C.ar      1 <0>         0.1460
      8 N1          1.3783    7.1144    3.8189 N.am      1 <0>        -0.6734
      9 C8          1.3676    7.3308    5.1492 C.2       1 <0>         0.6131
     10 O1          1.5489    8.4533    5.5848 O.2       1 <0>        -0.4899
     11 C9          1.1384    6.2176    6.0693 C.2       1 <0>        -0.3092
     12 C10         1.0807    6.2111    7.4561 C.2       1 <0>         0.1722
     13 N2          0.8573    5.0526    8.0233 N.2       1 <0>        -0.5180
     14 C11         0.6966    3.9535    7.3079 C.2       1 <0>         0.3121
     15 S1          0.8472    4.4907    5.7202 S.3       1 <0>         0.1340
     16 N3          0.4564    2.6698    7.7563 N.pl3     1 <0>        -0.5904
     17 C12         0.2490    2.4343    9.1091 C.ar      1 <0>         0.4412
     18 C13        -0.1036    1.1661    9.5586 C.ar      1 <0>        -0.3412
     19 C14        -0.3003    0.9817   10.9244 C.ar      1 <0>         0.4686
     20 N4         -0.1450    2.0186   11.7452 N.ar      1 <0>        -0.5923
     21 C15         0.1898    3.2050   11.2799 C.ar      1 <0>         0.3946
     22 N5          0.3901    3.4182    9.9956 N.ar      1 <0>        -0.5459
     23 C16         0.3546    4.3498   12.2460 C.3       1 <0>        -0.0834
     24 N6         -0.6531   -0.2629   11.4224 N.pl3     1 <0>        -0.5966
     25 C17        -1.0693   -0.4249   12.8237 C.3       1 <0>         0.1300
     26 C18        -2.3993   -1.1856   12.8517 C.3       1 <0>         0.0401
     27 N7         -2.2595   -2.4378   12.0965 N.3       1 <0>        -0.5276
     28 C19        -1.9688   -2.1765   10.6804 C.3       1 <0>         0.0363
     29 C20        -0.6270   -1.4554   10.5619 C.3       1 <0>         0.1269
     30 C21        -3.4565   -3.2768   12.2420 C.3       1 <0>         0.0537
     31 C22        -3.1814   -4.6636   11.6572 C.3       1 <0>         0.0792
     32 O2         -2.1684   -5.3132   12.4279 O.3       1 <0>        -0.5589
     33 Cl1        -0.1672    9.6214    4.2392 Cl        1 <0>        -0.0433
     34 H1          2.8725    5.9906    1.1961 H         1 <0>         0.0754
     35 H2          4.4240    6.8020    1.5166 H         1 <0>         0.0754
     36 H3          3.4510    6.1760    2.8692 H         1 <0>         0.0676
     37 H4          3.7844    8.8450    0.3685 H         1 <0>         0.1337
     38 H5          2.6220   11.0077    0.5292 H         1 <0>         0.1350
     39 H6          0.8801   11.3508    2.2339 H         1 <0>         0.1371
     40 H7          1.1547    6.2381    3.4683 H         1 <0>         0.4085
     41 H8          1.2132    7.1127    8.0357 H         1 <0>         0.1884
     42 H9          0.4325    1.9325    7.1264 H         1 <0>         0.4387
     43 H10        -0.2220    0.3459    8.8660 H         1 <0>         0.1413
     44 H11         1.3882    4.3890   12.5900 H         1 <0>         0.0870
     45 H12         0.1021    5.2855   11.7470 H         1 <0>         0.0890
     46 H13        -0.3072    4.2031   13.0995 H         1 <0>         0.0846
     47 H14        -0.3126   -0.9904   13.3674 H         1 <0>         0.0744
     48 H15        -1.1984    0.5551   13.2831 H         1 <0>         0.1008
     49 H16        -2.6676   -1.4113   13.8837 H         1 <0>         0.0903
     50 H17        -3.1785   -0.5727   12.3986 H         1 <0>         0.0372
     51 H18        -1.9249   -3.1208   10.1378 H         1 <0>         0.0905
     52 H19        -2.7540   -1.5497   10.2576 H         1 <0>         0.0380
     53 H20        -0.4638   -1.1563    9.5265 H         1 <0>         0.0877
     54 H21         0.1731   -2.1219   10.8840 H         1 <0>         0.0802
     55 H22        -3.7077   -3.3713   13.2985 H         1 <0>         0.0861
     56 H23        -4.2894   -2.8169   11.7102 H         1 <0>         0.0487
     57 H24        -4.0952   -5.2572   11.6843 H         1 <0>         0.0498
     58 H25        -2.8443   -4.5626   10.6256 H         1 <0>         0.0451
     59 H26        -1.9426   -6.1994   12.1134 H         1 <0>         0.3762
@<TRIPOS>BOND
     1    1    2 1
     2    1   34 1
     3    1   35 1
     4    1   36 1
     5    2    7 ar
     6    2    3 ar
     7    3    4 ar
     8    3   37 1
     9    4    5 ar
    10    4   38 1
    11    5    6 ar
    12    5   39 1
    13    6    7 ar
    14    6   33 1
    15    7    8 1
    16    8    9 am
    17    8   40 1
    18    9   10 2
    19    9   11 1
    20   11   15 1
    21   11   12 2
    22   12   13 1
    23   12   41 1
    24   13   14 2
    25   14   15 1
    26   14   16 1
    27   16   17 1
    28   16   42 1
    29   17   18 ar
    30   17   22 ar
    31   18   43 1
    32   18   19 ar
    33   19   24 1
    34   19   20 ar
    35   20   21 ar
    36   21   23 1
    37   21   22 ar
    38   23   44 1
    39   23   45 1
    40   23   46 1
    41   24   29 1
    42   24   25 1
    43   25   26 1
    44   25   47 1
    45   25   48 1
    46   26   27 1
    47   26   49 1
    48   26   50 1
    49   27   28 1
    50   27   30 1
    51   28   29 1
    52   28   51 1
    53   28   52 1
    54   29   53 1
    55   29   54 1
    56   30   31 1
    57   30   55 1
    58   30   56 1
    59   31   32 1
    60   31   57 1
    61   31   58 1
    62   32   59 1
@<TRIPOS>MOLECULE
ZINC21982951
   61    64     0     0     0
SMALL
USER_CHARGES

@<TRIPOS>ATOM
      1 C1          3.2770    6.6581    1.8427 C.3       1 <0>        -0.1166
      2 C2          2.5837    7.9904    1.9667 C.ar      1 <0>        -0.0814
      3 C3          2.9012    9.0183    1.0999 C.ar      1 <0>        -0.1028
      4 C4          2.2660   10.2411    1.2125 C.ar      1 <0>        -0.0975
      5 C5          1.3108   10.4402    2.1928 C.ar      1 <0>        -0.1039
      6 C6          0.9888    9.4167    3.0634 C.ar      1 <0>        -0.0218
      7 C7          1.6215    8.1842    2.9485 C.ar      1 <0>         0.1327
      8 N1          1.2933    7.1433    3.8237 N.am      1 <0>        -0.6648
      9 C8          1.3141    7.3507    5.1552 C.2       1 <0>         0.5983
     10 O1          1.5193    8.4677    5.5943 O.2       1 <0>        -0.4690
     11 C9          1.0903    6.2342    6.0727 C.2       1 <0>        -0.2500
     12 C10         1.0624    6.2188    7.4604 C.2       1 <0>         0.1439
     13 N2          0.8362    5.0594    8.0246 N.2       1 <0>        -0.4984
     14 C11         0.6458    3.9675    7.3056 C.2       1 <0>         0.2172
     15 S1          0.7692    4.5136    5.7185 S.3       1 <0>         0.2242
     16 N3          0.3986    2.6839    7.7506 N.pl3     1 <0>        -0.5513
     17 C12         0.2203    2.4413    9.1063 C.ar      1 <0>         0.5098
     18 C13        -0.1335    1.1734    9.5556 C.ar      1 <0>        -0.3097
     19 C14        -0.3003    0.9817   10.9244 C.ar      1 <0>         0.4927
     20 N4         -0.1163    2.0116   11.7481 N.ar      1 <0>        -0.5695
     21 C15         0.2187    3.1980   11.2828 C.ar      1 <0>         0.4589
     22 N5          0.3911    3.4178    9.9956 N.ar      1 <0>        -0.4762
     23 C16         0.4165    4.3348   12.2521 C.3       1 <0>        -0.1303
     24 N6         -0.6531   -0.2629   11.4224 N.pl3     1 <0>        -0.6123
     25 C17        -0.9643   -0.4465   12.8484 C.3       1 <0>         0.0782
     26 C18        -2.3027   -1.1838   12.9625 C.3       1 <0>        -0.0204
     27 N7         -2.2406   -2.4311   12.1903 N.4       1 <0>        -0.3852
     28 C19        -2.0770   -2.1279   10.7629 C.3       1 <0>        -0.0304
     29 C20        -0.7330   -1.4363   10.5388 C.3       1 <0>         0.0932
     30 C21        -3.4827   -3.1900   12.3886 C.3       1 <0>        -0.0061
     31 C22        -3.3702   -4.5448   11.6865 C.3       1 <0>         0.0434
     32 O2         -2.3479   -5.3224   12.3128 O.3       1 <0>        -0.5819
     33 Cl1        -0.2098    9.6671    4.2940 Cl        1 <0>        -0.0466
     34 H1          2.7157    6.0184    1.1617 H         1 <0>         0.0770
     35 H2          4.2843    6.8074    1.4538 H         1 <0>         0.0791
     36 H3          3.3325    6.1847    2.8230 H         1 <0>         0.0631
     37 H4          3.6468    8.8665    0.3335 H         1 <0>         0.1380
     38 H5          2.5166   11.0428    0.5336 H         1 <0>         0.1401
     39 H6          0.8165   11.3966    2.2780 H         1 <0>         0.1410
     40 H7          1.0508    6.2723    3.4722 H         1 <0>         0.4077
     41 H8          1.2191    7.1146    8.0429 H         1 <0>         0.2016
     42 H9          0.3494    1.9517    7.1163 H         1 <0>         0.4545
     43 H10        -0.2756    0.3590    8.8607 H         1 <0>         0.1860
     44 H11         1.4581    4.3621   12.5724 H         1 <0>         0.1309
     45 H12         0.1613    5.2760   11.7653 H         1 <0>         0.1358
     46 H13        -0.2267    4.1885   13.1199 H         1 <0>         0.1083
     47 H14        -0.1795   -1.0367   13.3215 H         1 <0>         0.1249
     48 H15        -1.0392    0.5259   13.3352 H         1 <0>         0.1232
     49 H16        -2.5028   -1.4138   14.0090 H         1 <0>         0.1602
     50 H17        -3.0999   -0.5526   12.5701 H         1 <0>         0.1410
     51 H18        -2.1110   -3.0537   10.1885 H         1 <0>         0.1585
     52 H19        -2.8811   -1.4682   10.4370 H         1 <0>         0.1418
     53 H20        -0.6550   -1.1179    9.4992 H         1 <0>         0.1416
     54 H21         0.0756   -2.1281   10.7747 H         1 <0>         0.1211
     55 H22        -3.6469   -3.3459   13.4548 H         1 <0>         0.1465
     56 H23        -4.3202   -2.6321   11.9697 H         1 <0>         0.1464
     57 H24        -4.3221   -5.0710   11.7578 H         1 <0>         0.1026
     58 H25        -3.1180   -4.3904   10.6374 H         1 <0>         0.0719
     59 H26        -2.2211   -6.1961   11.9183 H         1 <0>         0.4154
     60 H27        -0.2308    1.8869   12.7032 H         1 <0>         0.4393
     61 H28        -1.4578   -2.9831   12.5075 H         1 <0>         0.4359
@<TRIPOS>BOND
     1    1    2 1
     2    1   34 1
     3    1   35 1
     4    1   36 1
     5    2    7 ar
     6    2    3 ar
     7    3    4 ar
     8    3   37 1
     9    4    5 ar
    10    4   38 1
    11    5    6 ar
    12    5   39 1
    13    6    7 ar
    14    6   33 1
    15    7    8 1
    16    8    9 am
    17    8   40 1
    18    9   10 2
    19    9   11 1
    20   11   15 1
    21   11   12 2
    22   12   13 1
    23   12   41 1
    24   13   14 2
    25   14   15 1
    26   14   16 1
    27   16   17 1
    28   16   42 1
    29   17   18 ar
    30   17   22 ar
    31   18   43 1
    32   18   19 ar
    33   19   24 1
    34   19   20 ar
    35   20   60 1
    36   20   21 ar
    37   21   23 1
    38   21   22 ar
    39   23   44 1
    40   23   45 1
    41   23   46 1
    42   24   29 1
    43   24   25 1
    44   25   26 1
    45   25   47 1
    46   25   48 1
    47   26   27 1
    48   26   49 1
    49   26   50 1
    50   27   28 1
    51   27   30 1
    52   27   61 1
    53   28   29 1
    54   28   51 1
    55   28   52 1
    56   29   53 1
    57   29   54 1
    58   30   31 1
    59   30   55 1
    60   30   56 1
    61   31   32 1
    62   31   57 1
    63   31   58 1
    64   32   59 1
@<TRIPOS>MOLECULE
ZINC03814434
   62    69     0     0     0
SMALL
USER_CHARGES

@<TRIPOS>ATOM
      1 C1         -0.1295    1.5952   -0.2973 C.3       1 <0>        -0.1687
      2 C2         -0.0862    0.0696   -0.1900 C.3       1 <0>         0.3342
      3 C3          0.5692   -0.4501   -1.4637 C.3       1 <0>         0.0405
      4 H1          1.4796    0.1159   -1.6612 H         1 <0>         0.1372
      5 C4          0.9167   -1.9328   -1.2889 C.3       1 <0>        -0.0061
      6 H2          1.3963   -2.3075   -2.1932 H         1 <0>         0.1555
      7 C5          1.8785   -2.0596   -0.1021 C.3       1 <0>        -0.1827
      8 C6          1.2061   -1.5198    1.1541 C.3       1 <0>         0.2999
      9 H3          1.9797   -1.4243    1.9161 H         1 <0>         0.1550
     10 O1          0.6555   -0.2442    0.9666 O.3       1 <0>        -0.3234
     11 N1          0.2189   -2.4746    1.6600 N.pl3     1 <0>        -0.5366
     12 C7          0.4705   -3.5508    2.4739 C.ar      1 <0>         0.1469
     13 C8          1.6649   -4.0152    3.0240 C.ar      1 <0>        -0.1522
     14 C9          1.5948   -5.1456    3.8201 C.ar      1 <0>        -0.0582
     15 C10         0.4006   -5.7997    4.0696 C.ar      1 <0>        -0.1457
     16 C11        -0.7984   -5.3597    3.5358 C.ar      1 <0>        -0.0280
     17 C12        -0.7487   -4.2198    2.7307 C.ar      1 <0>        -0.1131
     18 C13        -1.7893   -3.4830    2.0197 C.ar      1 <0>         0.0276
     19 C14        -1.1442   -2.4197    1.3841 C.ar      1 <0>         0.0376
     20 C15        -1.8806   -1.5095    0.6175 C.ar      1 <0>         0.0894
     21 N2         -1.4718   -0.3951   -0.1095 N.pl3     1 <0>        -0.5183
     22 C16        -2.5611    0.1913   -0.7090 C.ar      1 <0>         0.1618
     23 C17        -2.6521    1.3277   -1.5118 C.ar      1 <0>        -0.1305
     24 C18        -3.9109    1.6745   -1.9733 C.ar      1 <0>        -0.0737
     25 C19        -5.0393    0.9368   -1.6616 C.ar      1 <0>        -0.1358
     26 C20        -4.9745   -0.1955   -0.8662 C.ar      1 <0>        -0.0503
     27 C21        -3.7147   -0.5596   -0.3919 C.ar      1 <0>        -0.1042
     28 C22        -3.2693   -1.6660    0.4845 C.ar      1 <0>        -0.0360
     29 C23        -3.9084   -2.7313    1.1102 C.ar      1 <0>        -0.0288
     30 C24        -3.1873   -3.6421    1.8754 C.ar      1 <0>        -0.1255
     31 C25        -4.1221   -4.6480    2.4030 C.2       1 <0>         0.5632
     32 O2         -3.8062   -5.5851    3.1110 O.2       1 <0>        -0.5106
     33 N3         -5.3744   -4.3851    1.9926 N.am      1 <0>        -0.7162
     34 C26        -5.3495   -3.1771    1.1601 C.3       1 <0>         0.1358
     35 N4         -0.3067   -2.7008   -1.0216 N.4       1 <0>        -0.5252
     36 C27         0.0145   -4.1336   -0.9773 C.3       1 <0>        -0.0497
     37 O3         -0.3340   -0.2979   -2.5607 O.3       1 <0>        -0.3614
     38 C28         0.3101   -0.0933   -3.8198 C.3       1 <0>         0.0162
     39 H4          0.8261    2.0094    0.0240 H         1 <0>         0.0984
     40 H5         -0.3202    1.8814   -1.3317 H         1 <0>         0.1036
     41 H6         -0.9255    1.9818    0.3392 H         1 <0>         0.0921
     42 H7          2.1370   -3.1081    0.0458 H         1 <0>         0.1233
     43 H8          2.7835   -1.4869   -0.3048 H         1 <0>         0.1455
     44 H9          2.6036   -3.5149    2.8368 H         1 <0>         0.1365
     45 H10         2.5026   -5.5304    4.2610 H         1 <0>         0.1359
     46 H11         0.4045   -6.6780    4.6980 H         1 <0>         0.1352
     47 H12        -1.7278   -5.8736    3.7323 H         1 <0>         0.1600
     48 H13        -1.7792    1.9122   -1.7624 H         1 <0>         0.1440
     49 H14        -4.0153    2.5500   -2.5970 H         1 <0>         0.1336
     50 H15        -5.9967    1.2527   -2.0488 H         1 <0>         0.1332
     51 H16        -5.8575   -0.7687   -0.6249 H         1 <0>         0.1415
     52 H17        -6.1628   -4.9065    2.2103 H         1 <0>         0.4348
     53 H18        -5.9671   -2.3994    1.6094 H         1 <0>         0.1115
     54 H19        -5.7060   -3.4063    0.1559 H         1 <0>         0.1103
     55 H20        -0.6958   -2.4158   -0.1353 H         1 <0>         0.4186
     56 H21         0.4349   -4.4415   -1.9347 H         1 <0>         0.1256
     57 H22         0.7403   -4.3189   -0.1854 H         1 <0>         0.1191
     58 H23        -0.8932   -4.7035   -0.7789 H         1 <0>         0.1256
     59 H24         0.9168    0.8112   -3.7748 H         1 <0>         0.0633
     60 H25         0.9482   -0.9479   -4.0446 H         1 <0>         0.0514
     61 H26        -0.4433    0.0130   -4.6003 H         1 <0>         0.1100
     62 H27        -0.9785   -2.5293   -1.7546 H         1 <0>         0.4274
@<TRIPOS>BOND
     1    1    2 1
     2    1   39 1
     3    1   40 1
     4    1   41 1
     5    2   10 1
     6    2   21 1
     7    2    3 1
     8    3    4 1
     9    3    5 1
    10    3   37 1
    11    5    6 1
    12    5    7 1
    13    5   35 1
    14    7    8 1
    15    7   42 1
    16    7   43 1
    17    8    9 1
    18    8   10 1
    19    8   11 1
    20   11   19 1
    21   11   12 1
    22   12   17 ar
    23   12   13 ar
    24   13   14 ar
    25   13   44 1
    26   14   15 ar
    27   14   45 1
    28   15   16 ar
    29   15   46 1
    30   16   17 ar
    31   16   47 1
    32   17   18 1
    33   18   30 ar
    34   18   19 ar
    35   19   20 ar
    36   20   28 ar
    37   20   21 1
    38   21   22 1
    39   22   27 ar
    40   22   23 ar
    41   23   24 ar
    42   23   48 1
    43   24   25 ar
    44   24   49 1
    45   25   26 ar
    46   25   50 1
    47   26   27 ar
    48   26   51 1
    49   27   28 1
    50   28   29 ar
    51   29   34 1
    52   29   30 ar
    53   30   31 1
    54   31   32 2
    55   31   33 am
    56   33   34 1
    57   33   52 1
    58   34   53 1
    59   34   54 1
    60   35   36 1
    61   35   55 1
    62   35   62 1
    63   36   56 1
    64   36   57 1
    65   36   58 1
    66   37   38 1
    67   38   59 1
    68   38   60 1
    69   38   61 1
@<TRIPOS>MOLECULE
ZINC00598626
   42    45     0     0     0
SMALL
USER_CHARGES

@<TRIPOS>ATOM
      1 C1         -0.0417    1.7893   -0.5853 C.3       1 <0>        -0.1469
      2 S1         -0.0337   -0.0217   -0.6900 S.3       1 <0>        -0.1088
      3 C2         -1.7286   -0.4668   -0.5054 C.ar      1 <0>        -0.0711
      4 C3         -2.6920    0.5230   -0.3352 C.ar      1 <0>        -0.1322
      5 C4         -4.0173    0.1780   -0.1907 C.ar      1 <0>        -0.0512
      6 C5         -4.3944   -1.1669   -0.2156 C.ar      1 <0>        -0.0283
      7 C6         -3.4251   -2.1583   -0.3871 C.ar      1 <0>        -0.0875
      8 C7         -2.1019   -1.8072   -0.5359 C.ar      1 <0>        -0.0959
      9 C8         -5.8150   -1.5401   -0.0604 C.2       1 <0>         0.2718
     10 N1         -6.3029   -2.8144   -0.0623 N.pl3     1 <0>        -0.5512
     11 H1         -5.7861   -3.6289   -0.1646 H         1 <0>         0.4246
     12 C9         -7.6676   -2.7271    0.1082 C.2       1 <0>         0.0281
     13 C10        -7.9630   -1.3777    0.2093 C.2       1 <0>         0.0812
     14 N2         -6.8103   -0.6977    0.1074 N.2       1 <0>        -0.4568
     15 C11        -9.3096   -0.7903    0.4019 C.ar      1 <0>        -0.0195
     16 C12       -10.1978   -1.3607    1.3132 C.ar      1 <0>        -0.0698
     17 C13       -11.4504   -0.8102    1.4890 C.ar      1 <0>        -0.1512
     18 C14       -11.8268    0.3073    0.7613 C.ar      1 <0>         0.1049
     19 C15       -10.9480    0.8774   -0.1457 C.ar      1 <0>        -0.1528
     20 C16        -9.6908    0.3381   -0.3236 C.ar      1 <0>        -0.0605
     21 F1        -13.0548    0.8426    0.9365 F         1 <0>        -0.1375
     22 C17        -8.6238   -3.8479    0.1700 C.ar      1 <0>         0.0251
     23 C18        -9.8070   -3.8283   -0.5817 C.ar      1 <0>        -0.1433
     24 C19       -10.6718   -4.8977   -0.4936 C.ar      1 <0>         0.1077
     25 N3        -10.3986   -5.9287    0.2843 N.ar      1 <0>        -0.4795
     26 C20        -9.2966   -5.9881    1.0087 C.ar      1 <0>         0.1065
     27 C21        -8.3727   -4.9660    0.9777 C.ar      1 <0>        -0.1658
     28 H2          0.9765    2.1638   -0.6901 H         1 <0>         0.1122
     29 H3         -0.6626    2.1966   -1.3833 H         1 <0>         0.0868
     30 H4         -0.4440    2.0956    0.3803 H         1 <0>         0.0868
     31 H5         -2.3999    1.5625   -0.3161 H         1 <0>         0.1318
     32 H6         -4.7645    0.9465   -0.0579 H         1 <0>         0.1427
     33 H7         -3.7137   -3.1989   -0.4063 H         1 <0>         0.1241
     34 H8         -1.3526   -2.5729   -0.6723 H         1 <0>         0.1354
     35 H9         -9.9056   -2.2322    1.8803 H         1 <0>         0.1288
     36 H10       -12.1390   -1.2512    2.1945 H         1 <0>         0.1384
     37 H11       -11.2460    1.7481   -0.7108 H         1 <0>         0.1395
     38 H12        -9.0046    0.7862   -1.0270 H         1 <0>         0.1374
     39 H13       -10.0374   -2.9879   -1.2198 H         1 <0>         0.1395
     40 H14       -11.5859   -4.8922   -1.0687 H         1 <0>         0.1619
     41 H15        -9.1147   -6.8516    1.6314 H         1 <0>         0.1604
     42 H16        -7.4713   -5.0234    1.5698 H         1 <0>         0.1341
@<TRIPOS>BOND
     1    1    2 1
     2    1   28 1
     3    1   29 1
     4    1   30 1
     5    2    3 1
     6    3    8 ar
     7    3    4 ar
     8    4    5 ar
     9    4   31 1
    10    5    6 ar
    11    5   32 1
    12    6    7 ar
    13    6    9 1
    14    7    8 ar
    15    7   33 1
    16    8   34 1
    17    9   14 2
    18    9   10 1
    19   10   11 1
    20   10   12 1
    21   12   13 2
    22   12   22 1
    23   13   14 1
    24   13   15 1
    25   15   20 ar
    26   15   16 ar
    27   16   17 ar
    28   16   35 1
    29   17   18 ar
    30   17   36 1
    31   18   19 ar
    32   18   21 1
    33   19   20 ar
    34   19   37 1
    35   20   38 1
    36   22   27 ar
    37   22   23 ar
    38   23   24 ar
    39   23   39 1
    40   24   25 ar
    41   24   40 1
    42   25   26 ar
    43   26   27 ar
    44   26   41 1
    45   27   42 1
@<TRIPOS>MOLECULE
ZINC08536493
   41    44     0     0     0
SMALL
USER_CHARGES

@<TRIPOS>ATOM
      1 C1         -0.0079    1.3561    0.4129 C.ar      1 <0>        -0.0129
      2 C2          1.1782    2.0448    0.5411 C.ar      1 <0>        -0.1931
      3 C3          2.3882    1.3592    0.5177 C.ar      1 <0>         0.2775
      4 C4          2.4048   -0.0233    0.3653 C.ar      1 <0>        -0.1922
      5 C5          1.2221   -0.7177    0.2370 C.ar      1 <0>        -0.0156
      6 C6          0.0054   -0.0321    0.2597 C.ar      1 <0>        -0.1720
      7 C7         -1.2648   -0.7738    0.1224 C.cat     1 <0>         0.4164
      8 N1         -2.5101   -0.2166    0.1241 N.pl3     1 <0>        -0.5153
      9 H1         -2.7192    0.7263    0.2146 H         1 <0>         0.4618
     10 C8         -3.4153   -1.2445   -0.0276 C.2       1 <0>         0.1113
     11 C9         -2.6717   -2.4095   -0.1174 C.2       1 <0>         0.1070
     12 N2         -1.3749   -2.0752   -0.0265 N.pl3     1 <0>        -0.4811
     13 C10        -3.2108   -3.7790   -0.2885 C.ar      1 <0>        -0.0834
     14 C11        -4.1843   -4.0319   -1.2545 C.ar      1 <0>        -0.0440
     15 C12        -4.6833   -5.3085   -1.4099 C.ar      1 <0>        -0.1472
     16 C13        -4.2187   -6.3388   -0.6082 C.ar      1 <0>         0.1406
     17 C14        -3.2515   -6.0925    0.3530 C.ar      1 <0>        -0.1480
     18 C15        -2.7422   -4.8203    0.5121 C.ar      1 <0>        -0.0613
     19 F1         -4.7106   -7.5874   -0.7639 F         1 <0>        -0.1219
     20 C16        -4.8842   -1.1274   -0.0828 C.ar      1 <0>        -0.0164
     21 C17        -5.7038   -1.9725    0.6784 C.ar      1 <0>        -0.1305
     22 C18        -7.0718   -1.8273    0.5961 C.ar      1 <0>         0.1162
     23 N3         -7.6108   -0.9098   -0.1850 N.ar      1 <0>        -0.4597
     24 C19        -6.8767   -0.0937   -0.9183 C.ar      1 <0>         0.1155
     25 C20        -5.5005   -0.1640   -0.8936 C.ar      1 <0>        -0.1494
     26 N4          3.5870    2.0593    0.6468 N.pl3     1 <0>        -0.8472
     27 H2         -0.9473    1.8886    0.4352 H         1 <0>         0.1311
     28 H3          1.1685    3.1183    0.6595 H         1 <0>         0.1440
     29 H4          3.3459   -0.5527    0.3471 H         1 <0>         0.1443
     30 H5          1.2357   -1.7911    0.1184 H         1 <0>         0.1312
     31 H6         -4.5473   -3.2294   -1.8796 H         1 <0>         0.1396
     32 H7         -5.4375   -5.5053   -2.1575 H         1 <0>         0.1517
     33 H8         -2.8927   -6.8986    0.9757 H         1 <0>         0.1517
     34 H9         -1.9849   -4.6303    1.2583 H         1 <0>         0.1388
     35 H10        -5.2699   -2.7259    1.3191 H         1 <0>         0.1452
     36 H11        -7.7119   -2.4735    1.1786 H         1 <0>         0.1709
     37 H12        -7.3612    0.6419   -1.5432 H         1 <0>         0.1703
     38 H13        -4.9062    0.5100   -1.4927 H         1 <0>         0.1417
     39 H14         3.5766    3.0234    0.7528 H         1 <0>         0.4117
     40 H15         4.4314    1.5822    0.6306 H         1 <0>         0.4117
     41 H16        -0.6328   -2.6987   -0.0629 H         1 <0>         0.4608
@<TRIPOS>BOND
     1    1    6 ar
     2    1    2 ar
     3    1   27 1
     4    2    3 ar
     5    2   28 1
     6    3    4 ar
     7    3   26 1
     8    4    5 ar
     9    4   29 1
    10    5    6 ar
    11    5   30 1
    12    6    7 1
    13    7   12 2
    14    7    8 1
    15    8    9 1
    16    8   10 1
    17   10   11 2
    18   10   20 1
    19   11   12 1
    20   11   13 1
    21   12   41 1
    22   13   18 ar
    23   13   14 ar
    24   14   15 ar
    25   14   31 1
    26   15   16 ar
    27   15   32 1
    28   16   17 ar
    29   16   19 1
    30   17   18 ar
    31   17   33 1
    32   18   34 1
    33   20   25 ar
    34   20   21 ar
    35   21   22 ar
    36   21   35 1
    37   22   23 ar
    38   22   36 1
    39   23   24 ar
    40   24   25 ar
    41   24   37 1
    42   25   38 1
    43   26   39 1
    44   26   40 1
@<TRIPOS>MOLECULE
ZINC08536493
   40    43     0     0     0
SMALL
USER_CHARGES

@<TRIPOS>ATOM
      1 C1         -0.0188    1.3841   -0.2168 C.ar      1 <0>        -0.0195
      2 C2          1.1596    2.0832   -0.3581 C.ar      1 <0>        -0.1985
      3 C3          2.3583    1.4001   -0.5350 C.ar      1 <0>         0.2332
      4 C4          2.3713    0.0096   -0.5694 C.ar      1 <0>        -0.1972
      5 C5          1.1963   -0.6953   -0.4282 C.ar      1 <0>        -0.0543
      6 C6         -0.0091   -0.0122   -0.2509 C.ar      1 <0>        -0.0892
      7 C7         -1.2710   -0.7651   -0.0991 C.2       1 <0>         0.2885
      8 N1         -1.3872   -2.1245   -0.1099 N.pl3     1 <0>        -0.5554
      9 H1         -0.6653   -2.7634   -0.2175 H         1 <0>         0.4228
     10 C8         -2.7223   -2.4194    0.0611 C.2       1 <0>         0.0177
     11 C9         -3.3794   -1.2053    0.1714 C.2       1 <0>         0.0813
     12 N2         -2.4602   -0.2322    0.0735 N.2       1 <0>        -0.4660
     13 C10        -4.8357   -1.0148    0.3678 C.ar      1 <0>        -0.0172
     14 C11        -5.5297   -1.8147    1.2750 C.ar      1 <0>        -0.0706
     15 C12        -6.8855   -1.6336    1.4544 C.ar      1 <0>        -0.1514
     16 C13        -7.5576   -0.6587    0.7348 C.ar      1 <0>         0.1033
     17 C14        -6.8724    0.1386   -0.1679 C.ar      1 <0>        -0.1529
     18 C15        -5.5155   -0.0311   -0.3499 C.ar      1 <0>        -0.0611
     19 F1         -8.8855   -0.4854    0.9134 F         1 <0>        -0.1382
     20 C16        -3.3308   -3.7616    0.1153 C.ar      1 <0>         0.0289
     21 C17        -4.4745   -4.0654   -0.6364 C.ar      1 <0>        -0.1448
     22 C18        -5.0093   -5.3330   -0.5555 C.ar      1 <0>         0.1071
     23 N3         -4.4600   -6.2530    0.2156 N.ar      1 <0>        -0.4812
     24 C19        -3.3834   -6.0097    0.9397 C.ar      1 <0>         0.1059
     25 C20        -2.7786   -4.7716    0.9156 C.ar      1 <0>        -0.1673
     26 N4          3.5492    2.1106   -0.6787 N.pl3     1 <0>        -0.8715
     27 H2         -0.9486    1.9149   -0.0753 H         1 <0>         0.1381
     28 H3          1.1528    3.1628   -0.3318 H         1 <0>         0.1283
     29 H4          3.3035   -0.5180   -0.7073 H         1 <0>         0.1262
     30 H5          1.2069   -1.7749   -0.4554 H         1 <0>         0.1168
     31 H6         -5.0067   -2.5751    1.8361 H         1 <0>         0.1285
     32 H7         -7.4239   -2.2529    2.1565 H         1 <0>         0.1377
     33 H8         -7.4007    0.8969   -0.7267 H         1 <0>         0.1390
     34 H9         -4.9814    0.5941   -1.0501 H         1 <0>         0.1375
     35 H10        -4.9296   -3.3176   -1.2689 H         1 <0>         0.1390
     36 H11        -5.8902   -5.5770   -1.1307 H         1 <0>         0.1612
     37 H12        -2.9685   -6.7931    1.5567 H         1 <0>         0.1595
     38 H13        -1.8953   -4.5811    1.5070 H         1 <0>         0.1335
     39 H14         3.5413    3.0803   -0.6552 H         1 <0>         0.4016
     40 H15         4.3857    1.6352   -0.8021 H         1 <0>         0.4006
@<TRIPOS>BOND
     1    1    6 ar
     2    1    2 ar
     3    1   27 1
     4    2    3 ar
     5    2   28 1
     6    3    4 ar
     7    3   26 1
     8    4    5 ar
     9    4   29 1
    10    5    6 ar
    11    5   30 1
    12    6    7 1
    13    7   12 2
    14    7    8 1
    15    8    9 1
    16    8   10 1
    17   10   11 2
    18   10   20 1
    19   11   12 1
    20   11   13 1
    21   13   18 ar
    22   13   14 ar
    23   14   15 ar
    24   14   31 1
    25   15   16 ar
    26   15   32 1
    27   16   17 ar
    28   16   19 1
    29   17   18 ar
    30   17   33 1
    31   18   34 1
    32   20   25 ar
    33   20   21 ar
    34   21   22 ar
    35   21   35 1
    36   22   23 ar
    37   22   36 1
    38   23   24 ar
    39   24   25 ar
    40   24   37 1
    41   25   38 1
    42   26   39 1
    43   26   40 1
@<TRIPOS>MOLECULE
ZINC08536493
   40    43     0     0     0
SMALL
USER_CHARGES

@<TRIPOS>ATOM
      1 C1         -0.0258    1.3856   -0.2606 C.ar      1 <0>        -0.0205
      2 C2          1.1509    2.0854   -0.4136 C.ar      1 <0>        -0.1981
      3 C3          2.3512    1.4027   -0.5801 C.ar      1 <0>         0.2326
      4 C4          2.3676    0.0120   -0.5928 C.ar      1 <0>        -0.1970
      5 C5          1.1943   -0.6936   -0.4409 C.ar      1 <0>        -0.0548
      6 C6         -0.0126   -0.0110   -0.2730 C.ar      1 <0>        -0.0878
      7 C7         -1.2727   -0.7646   -0.1087 C.2       1 <0>         0.2841
      8 N1         -1.3857   -2.1260   -0.0982 N.pl3     1 <0>        -0.5569
      9 H1         -0.6621   -2.7646   -0.1961 H         1 <0>         0.4231
     10 C8         -2.7174   -2.4218    0.0775 C.2       1 <0>         0.0396
     11 C9         -3.3790   -1.2086    0.1693 C.2       1 <0>         0.0607
     12 N2         -2.4622   -0.2327    0.0562 N.2       1 <0>        -0.4616
     13 C10        -4.8347   -1.0205    0.3630 C.ar      1 <0>         0.0429
     14 C11        -5.5481   -1.8143    1.2683 C.ar      1 <0>        -0.1558
     15 C12        -6.9028   -1.6054    1.4174 C.ar      1 <0>         0.1009
     16 N3         -7.5254   -0.6731    0.7211 N.ar      1 <0>        -0.4849
     17 C13        -6.8906    0.0969   -0.1426 C.ar      1 <0>         0.0997
     18 C14        -5.5343   -0.0402   -0.3498 C.ar      1 <0>        -0.1475
     19 C15        -3.3218   -3.7663    0.1528 C.ar      1 <0>        -0.0335
     20 C16        -4.4618   -4.0656   -0.5971 C.ar      1 <0>        -0.0589
     21 C17        -5.0218   -5.3234   -0.5230 C.ar      1 <0>        -0.1470
     22 C18        -4.4557   -6.2900    0.2934 C.ar      1 <0>         0.1090
     23 C19        -3.3249   -5.9987    1.0401 C.ar      1 <0>        -0.1492
     24 C20        -2.7527   -4.7462    0.9698 C.ar      1 <0>        -0.0791
     25 F1         -5.0087   -7.5207    0.3620 F         1 <0>        -0.1349
     26 N4          3.5405    2.1140   -0.7351 N.pl3     1 <0>        -0.8718
     27 H2         -0.9569    1.9162   -0.1269 H         1 <0>         0.1377
     28 H3          1.1413    3.1653   -0.4045 H         1 <0>         0.1282
     29 H4          3.3012   -0.5153   -0.7223 H         1 <0>         0.1261
     30 H5          1.2076   -1.7735   -0.4512 H         1 <0>         0.1170
     31 H6         -5.0451   -2.5794    1.8411 H         1 <0>         0.1325
     32 H7         -7.4621   -2.2132    2.1133 H         1 <0>         0.1567
     33 H8         -7.4400    0.8476   -0.6912 H         1 <0>         0.1579
     34 H9         -5.0203    0.5964   -1.0548 H         1 <0>         0.1382
     35 H10        -4.9039   -3.3131   -1.2333 H         1 <0>         0.1352
     36 H11        -5.9033   -5.5559   -1.1020 H         1 <0>         0.1421
     37 H12        -2.8887   -6.7556    1.6751 H         1 <0>         0.1409
     38 H13        -1.8688   -4.5218    1.5484 H         1 <0>         0.1324
     39 H14         3.5301    3.0839   -0.7267 H         1 <0>         0.4015
     40 H15         4.3781    1.6389   -0.8514 H         1 <0>         0.4005
@<TRIPOS>BOND
     1    1    6 ar
     2    1    2 ar
     3    1   27 1
     4    2    3 ar
     5    2   28 1
     6    3    4 ar
     7    3   26 1
     8    4    5 ar
     9    4   29 1
    10    5    6 ar
    11    5   30 1
    12    6    7 1
    13    7   12 2
    14    7    8 1
    15    8    9 1
    16    8   10 1
    17   10   11 2
    18   10   19 1
    19   11   12 1
    20   11   13 1
    21   13   18 ar
    22   13   14 ar
    23   14   15 ar
    24   14   31 1
    25   15   16 ar
    26   15   32 1
    27   16   17 ar
    28   17   18 ar
    29   17   33 1
    30   18   34 1
    31   19   24 ar
    32   19   20 ar
    33   20   21 ar
    34   20   35 1
    35   21   22 ar
    36   21   36 1
    37   22   23 ar
    38   22   25 1
    39   23   24 ar
    40   23   37 1
    41   24   38 1
    42   26   39 1
    43   26   40 1
@<TRIPOS>MOLECULE
ZINC13647791
   43    46     0     0     0
SMALL
USER_CHARGES

@<TRIPOS>ATOM
      1 C1         -0.0166    1.3699    0.0096 C.ar      1 <0>        -0.0800
      2 C2          1.1572    2.1045    0.0023 C.ar      1 <0>        -0.1190
      3 C3          2.3694    1.4373   -0.0129 C.ar      1 <0>        -0.0394
      4 C4          2.3887    0.0627   -0.0205 C.ar      1 <0>        -0.1883
      5 C5          1.2179   -0.7095   -0.0134 C.ar      1 <0>         0.1191
      6 C6          0.0021   -0.0041    0.0020 C.ar      1 <0>        -0.1207
      7 N1          1.3955   -2.0811   -0.0225 N.pl3     1 <0>        -0.6290
      8 C7          2.6545   -2.6113   -0.0374 C.2       1 <0>         0.2414
      9 C8          3.0385   -3.9533   -0.0487 C.2       1 <0>        -0.1370
     10 C9          2.0433   -4.9829   -0.0452 C.1       1 <0>         0.2720
     11 N2          1.2537   -5.7996   -0.0424 N.1       1 <0>        -0.4249
     12 C10         4.4680   -4.3104   -0.0642 C.ar      1 <0>         0.3088
     13 C11         4.8666   -5.6555   -0.0815 C.ar      1 <0>        -0.2844
     14 C12         6.2058   -5.9409   -0.0954 C.ar      1 <0>         0.2007
     15 N3          7.0848   -4.9482   -0.0923 N.ar      1 <0>        -0.5794
     16 C13         6.6886   -3.6836   -0.0759 C.ar      1 <0>         0.5826
     17 N4          5.4049   -3.3593   -0.0676 N.ar      1 <0>        -0.5825
     18 N5          7.6395   -2.6778   -0.0728 N.pl3     1 <0>        -0.7005
     19 C14         9.0646   -3.0170   -0.0875 C.3       1 <0>         0.1450
     20 C15         9.8948   -1.7318   -0.0805 C.3       1 <0>        -0.0888
     21 C16        11.3608   -2.0808   -0.0957 C.ar      1 <0>        -0.1340
     22 C17        12.0518   -2.2615    1.0929 C.ar      1 <0>        -0.0689
     23 C18        13.3992   -2.5815    1.0307 C.ar      1 <0>        -0.1701
     24 C19        14.0048   -2.7089   -0.2053 C.ar      1 <0>         0.0971
     25 N6         13.3163   -2.5294   -1.3154 N.ar      1 <0>        -0.4833
     26 C20        12.0320   -2.2302   -1.2943 C.ar      1 <0>         0.1060
     27 S1          3.6842   -1.1528   -0.0394 S.3       1 <0>         0.1837
     28 H1         -0.9648    1.8866    0.0260 H         1 <0>         0.1374
     29 H2          1.1270    3.1841    0.0081 H         1 <0>         0.1413
     30 H3          3.2952    1.9934   -0.0191 H         1 <0>         0.1400
     31 H4         -0.9301   -0.5494    0.0080 H         1 <0>         0.1308
     32 H5          0.6237   -2.6686   -0.0180 H         1 <0>         0.4164
     33 H6          4.1333   -6.4484   -0.0833 H         1 <0>         0.1381
     34 H7          6.5434   -6.9667   -0.1085 H         1 <0>         0.1667
     35 H8          7.3622   -1.7483   -0.0608 H         1 <0>         0.4130
     36 H9          9.3060   -3.6103    0.7944 H         1 <0>         0.0692
     37 H10         9.2920   -3.5916   -0.9854 H         1 <0>         0.0705
     38 H11         9.6534   -1.1385   -0.9624 H         1 <0>         0.0847
     39 H12         9.6674   -1.1572    0.8174 H         1 <0>         0.0829
     40 H13        11.5523   -2.1551    2.0445 H         1 <0>         0.1348
     41 H14        13.9686   -2.7291    1.9364 H         1 <0>         0.1364
     42 H15        15.0542   -2.9580   -0.2624 H         1 <0>         0.1564
     43 H16        11.4998   -2.0959   -2.2244 H         1 <0>         0.1551
@<TRIPOS>BOND
     1    1    6 ar
     2    1    2 ar
     3    1   28 1
     4    2    3 ar
     5    2   29 1
     6    3    4 ar
     7    3   30 1
     8    4   27 1
     9    4    5 ar
    10    5    6 ar
    11    5    7 1
    12    6   31 1
    13    7    8 1
    14    7   32 1
    15    8    9 2
    16    8   27 1
    17    9   10 1
    18    9   12 1
    19   10   11 3
    20   12   17 ar
    21   12   13 ar
    22   13   14 ar
    23   13   33 1
    24   14   15 ar
    25   14   34 1
    26   15   16 ar
    27   16   17 ar
    28   16   18 1
    29   18   19 1
    30   18   35 1
    31   19   20 1
    32   19   36 1
    33   19   37 1
    34   20   21 1
    35   20   38 1
    36   20   39 1
    37   21   26 ar
    38   21   22 ar
    39   22   23 ar
    40   22   40 1
    41   23   24 ar
    42   23   41 1
    43   24   25 ar
    44   24   42 1
    45   25   26 ar
    46   26   43 1
@<TRIPOS>MOLECULE
ZINC72109887
   49    51     0     0     0
SMALL
USER_CHARGES

@<TRIPOS>ATOM
      1 C1          0.1800    1.5053    0.0127 C.3       1 <0>        -0.1216
      2 C2          0.1014    0.0004    0.0013 C.ar      1 <0>        -0.0658
      3 C3          0.1069   -0.6797   -1.1963 C.ar      1 <0>        -0.0506
      4 C4          0.0340   -2.0747   -1.2059 C.ar      1 <0>        -0.1136
      5 C5         -0.0442   -2.7755    0.0005 C.ar      1 <0>        -0.0825
      6 C6         -0.0492   -2.0893    1.1942 C.ar      1 <0>        -0.0973
      7 C7          0.0292   -0.7004    1.2004 C.ar      1 <0>         0.1236
      8 N1          0.0296   -0.0079    2.4133 N.am      1 <0>        -0.4535
      9 C8         -1.1537    0.3816    2.9630 C.2       1 <0>         0.2057
     10 C9         -1.1858    1.0526    4.1338 C.2       1 <0>        -0.2610
     11 C10         0.0183    1.3565    4.8007 C.2       1 <0>         0.2480
     12 C11         1.2163    0.9574    4.2367 C.2       1 <0>        -0.2542
     13 C12         1.1994    0.2592    3.0232 C.2       1 <0>         0.5430
     14 O1          2.2485   -0.1043    2.5147 O.2       1 <0>        -0.5046
     15 Br1         2.8555    1.3437    5.0967 Br        1 <0>         0.0077
     16 O2          0.0023    2.0297    5.9762 O.3       1 <0>        -0.3151
     17 C13        -0.4654    3.3797    5.9444 C.3       1 <0>         0.1180
     18 C14        -0.2954    4.0024    7.3061 C.ar      1 <0>        -0.1384
     19 C15         0.2512    3.2651    8.3397 C.ar      1 <0>        -0.0363
     20 C16         0.4082    3.8350    9.5887 C.ar      1 <0>        -0.1609
     21 C17         0.0174    5.1457    9.8064 C.ar      1 <0>         0.1352
     22 C18        -0.5300    5.8849    8.7724 C.ar      1 <0>        -0.1897
     23 C19        -0.6815    5.3147    7.5199 C.ar      1 <0>         0.1398
     24 F1         -1.2105    6.0369    6.5081 F         1 <0>        -0.1270
     25 F2          0.1701    5.7023   11.0279 F         1 <0>        -0.1279
     26 C20        -2.4444    0.0596    2.2547 C.3       1 <0>        -0.1333
     27 C21         0.0392   -2.8072   -2.4880 C.2       1 <0>         0.5564
     28 O3          0.1069   -2.1961   -3.5369 O.2       1 <0>        -0.5281
     29 N2         -0.0312   -4.1531   -2.4955 N.am      1 <0>        -0.7295
     30 C22        -0.0261   -4.8797   -3.7676 C.3       1 <0>         0.0856
     31 H1          1.2248    1.8143    0.0458 H         1 <0>         0.0825
     32 H2         -0.2873    1.9003   -0.8893 H         1 <0>         0.0811
     33 H3         -0.3405    1.8897    0.8898 H         1 <0>         0.0648
     34 H4          0.1671   -0.1351   -2.1270 H         1 <0>         0.1484
     35 H5         -0.1010   -3.8540   -0.0034 H         1 <0>         0.1371
     36 H6         -0.1097   -2.6303    2.1271 H         1 <0>         0.1369
     37 H7         -2.1314    1.3562    4.5582 H         1 <0>         0.1631
     38 H8          0.1092    3.9461    5.2115 H         1 <0>         0.0829
     39 H9         -1.5197    3.3925    5.6681 H         1 <0>         0.0837
     40 H10         0.5556    2.2427    8.1710 H         1 <0>         0.1549
     41 H11         0.8353    3.2579   10.3955 H         1 <0>         0.1471
     42 H12        -0.8350    6.9071    8.9413 H         1 <0>         0.1530
     43 H13        -2.8125   -0.9090    2.5928 H         1 <0>         0.0987
     44 H14        -3.1839    0.8281    2.4800 H         1 <0>         0.0998
     45 H15        -2.2703    0.0270    1.1792 H         1 <0>         0.0855
     46 H16        -0.0852   -4.6406   -1.6587 H         1 <0>         0.4022
     47 H17        -0.8811   -4.5680   -4.3675 H         1 <0>         0.0636
     48 H18         0.8954   -4.6612   -4.3072 H         1 <0>         0.0636
     49 H19        -0.0889   -5.9507   -3.5745 H         1 <0>         0.0792
@<TRIPOS>BOND
     1    1    2 1
     2    1   31 1
     3    1   32 1
     4    1   33 1
     5    2    7 ar
     6    2    3 ar
     7    3    4 ar
     8    3   34 1
     9    4    5 ar
    10    4   27 1
    11    5    6 ar
    12    5   35 1
    13    6    7 ar
    14    6   36 1
    15    7    8 1
    16    8   13 am
    17    8    9 1
    18    9   10 2
    19    9   26 1
    20   10   11 1
    21   10   37 1
    22   11   12 2
    23   11   16 1
    24   12   13 1
    25   12   15 1
    26   13   14 2
    27   16   17 1
    28   17   18 1
    29   17   38 1
    30   17   39 1
    31   18   23 ar
    32   18   19 ar
    33   19   20 ar
    34   19   40 1
    35   20   21 ar
    36   20   41 1
    37   21   22 ar
    38   21   25 1
    39   22   23 ar
    40   22   42 1
    41   23   24 1
    42   26   43 1
    43   26   44 1
    44   26   45 1
    45   27   28 2
    46   27   29 am
    47   29   30 1
    48   29   46 1
    49   30   47 1
    50   30   48 1
    51   30   49 1
@<TRIPOS>MOLECULE
ZINC16052825
   46    49     0     0     0
SMALL
USER_CHARGES

@<TRIPOS>ATOM
      1 C1         -0.0184    1.5028    0.0103 C.3       1 <0>        -0.1069
      2 C2          0.0021   -0.0041    0.0020 C.ar      1 <0>         0.1419
      3 C3          0.0055   -0.6791   -1.2047 C.ar      1 <0>        -0.1724
      4 C4          0.0244   -2.0675   -1.2099 C.ar      1 <0>        -0.0632
      5 C5          0.0392   -2.7328    0.0024 C.ar      1 <0>        -0.1767
      6 C6          0.0347   -1.9886    1.1844 C.ar      1 <0>         0.2045
      7 N1          0.0218   -0.6596    1.1445 N.ar      1 <0>        -0.4582
      8 C7          0.0503   -2.6820    2.4864 C.2       1 <0>         0.0181
      9 C8          0.5116   -2.1797    3.6902 C.2       1 <0>         0.1019
     10 N2          0.3399   -3.1391    4.6177 N.2       1 <0>        -0.4699
     11 C9         -0.1941   -4.1920    4.0636 C.2       1 <0>         0.2490
     12 N3         -0.3969   -3.9577    2.7499 N.pl3     1 <0>        -0.5518
     13 H1         -0.7841   -4.5747    2.1092 H         1 <0>         0.4209
     14 C10        -0.5367   -5.4723    4.7810 C.3       1 <0>         0.0145
     15 C11         0.4917   -6.5476    4.4244 C.3       1 <0>        -0.1427
     16 C12        -0.5190   -5.2307    6.2917 C.3       1 <0>        -0.1298
     17 C13        -1.9304   -5.9383    4.3553 C.3       1 <0>        -0.1479
     18 C14         1.0885   -0.8340    3.9161 C.ar      1 <0>         0.0108
     19 C15         1.8613   -0.2296    2.9248 C.ar      1 <0>        -0.0534
     20 C16         2.3978    1.0236    3.1365 C.ar      1 <0>        -0.1047
     21 C17         2.1711    1.6866    4.3335 C.ar      1 <0>         0.0369
     22 C18         1.3992    1.0876    5.3278 C.ar      1 <0>         0.0243
     23 C19         0.8552   -0.1666    5.1182 C.ar      1 <0>        -0.0693
     24 O1          1.3281    1.9361    6.3950 O.3       1 <0>        -0.3092
     25 C20         2.3982    2.8808    6.2069 C.3       1 <0>         0.2134
     26 O2          2.5823    2.9098    4.7793 O.3       1 <0>        -0.3101
     27 H2          1.0042    1.8801    0.0026 H         1 <0>         0.0818
     28 H3         -0.5455    1.8639   -0.8728 H         1 <0>         0.0768
     29 H4         -0.5286    1.8543    0.9071 H         1 <0>         0.0800
     30 H5         -0.0067   -0.1311   -2.1353 H         1 <0>         0.1381
     31 H6          0.0270   -2.6159   -2.1403 H         1 <0>         0.1384
     32 H7          0.0536   -3.8122    0.0348 H         1 <0>         0.1283
     33 H8          1.4846   -6.2156    4.7277 H         1 <0>         0.0649
     34 H9          0.2439   -7.4736    4.9433 H         1 <0>         0.0715
     35 H10         0.4791   -6.7197    3.3481 H         1 <0>         0.0534
     36 H11        -1.2516   -4.4647    6.5458 H         1 <0>         0.0616
     37 H12        -0.7667   -6.1567    6.8106 H         1 <0>         0.0625
     38 H13         0.4739   -4.8988    6.5950 H         1 <0>         0.0700
     39 H14        -1.9430   -6.1104    3.2790 H         1 <0>         0.0521
     40 H15        -2.1781   -6.8643    4.8742 H         1 <0>         0.0744
     41 H16        -2.6630   -5.1722    4.6094 H         1 <0>         0.0633
     42 H17         2.0399   -0.7428    1.9915 H         1 <0>         0.1286
     43 H18         2.9966    1.4897    2.3679 H         1 <0>         0.1332
     44 H19         0.2535   -0.6301    5.8860 H         1 <0>         0.1373
     45 H20         2.1096    3.8649    6.5760 H         1 <0>         0.1307
     46 H21         3.3053    2.5356    6.7030 H         1 <0>         0.0833
@<TRIPOS>BOND
     1    1    2 1
     2    1   27 1
     3    1   28 1
     4    1   29 1
     5    2    7 ar
     6    2    3 ar
     7    3    4 ar
     8    3   30 1
     9    4    5 ar
    10    4   31 1
    11    5    6 ar
    12    5   32 1
    13    6    7 ar
    14    6    8 1
    15    8   12 1
    16    8    9 2
    17    9   10 1
    18    9   18 1
    19   10   11 2
    20   11   12 1
    21   11   14 1
    22   12   13 1
    23   14   15 1
    24   14   16 1
    25   14   17 1
    26   15   33 1
    27   15   34 1
    28   15   35 1
    29   16   36 1
    30   16   37 1
    31   16   38 1
    32   17   39 1
    33   17   40 1
    34   17   41 1
    35   18   23 ar
    36   18   19 ar
    37   19   20 ar
    38   19   42 1
    39   20   21 ar
    40   20   43 1
    41   21   26 1
    42   21   22 ar
    43   22   23 ar
    44   22   24 1
    45   23   44 1
    46   24   25 1
    47   25   26 1
    48   25   45 1
    49   25   46 1
@<TRIPOS>MOLECULE
ZINC16052825
   46    49     0     0     0
SMALL
USER_CHARGES

@<TRIPOS>ATOM
      1 C1         -0.0184    1.5028    0.0103 C.3       1 <0>        -0.1035
      2 C2          0.0021   -0.0041    0.0020 C.ar      1 <0>         0.1324
      3 C3          0.0056   -0.6792   -1.2044 C.ar      1 <0>        -0.1736
      4 C4          0.0249   -2.0673   -1.2086 C.ar      1 <0>        -0.0726
      5 C5          0.0401   -2.7316    0.0047 C.ar      1 <0>        -0.1485
      6 C6          0.0355   -1.9875    1.1847 C.ar      1 <0>         0.2109
      7 N1          0.0218   -0.6599    1.1447 N.ar      1 <0>        -0.4687
      8 C7          0.0515   -2.6825    2.4911 C.2       1 <0>         0.0611
      9 C8          0.5166   -2.1659    3.6874 C.2       1 <0>         0.0621
     10 N2          0.3381   -3.1526    4.6270 N.pl3     1 <0>        -0.5579
     11 H1          0.5662   -3.0981    5.5683 H         1 <0>         0.4221
     12 C9         -0.2172   -4.2175    3.9942 C.2       1 <0>         0.2384
     13 N3         -0.3894   -3.9320    2.7345 N.2       1 <0>        -0.4601
     14 C10        -0.5831   -5.5250    4.6482 C.3       1 <0>         0.0164
     15 C11        -1.8554   -5.3417    5.4780 C.3       1 <0>        -0.1431
     16 C12        -0.8250   -6.5840    3.5708 C.3       1 <0>        -0.1293
     17 C13         0.5597   -5.9766    5.5598 C.3       1 <0>        -0.1475
     18 C14         1.0900   -0.8234    3.9098 C.ar      1 <0>         0.0022
     19 C15         2.0271   -0.3050    3.0134 C.ar      1 <0>        -0.0495
     20 C16         2.5608    0.9492    3.2228 C.ar      1 <0>        -0.0974
     21 C17         2.1706    1.6996    4.3225 C.ar      1 <0>         0.0411
     22 C18         1.2355    1.1878    5.2214 C.ar      1 <0>         0.0318
     23 C19         0.6923   -0.0665    5.0139 C.ar      1 <0>        -0.0897
     24 O1          1.0253    2.1115    6.2047 O.3       1 <0>        -0.3087
     25 C20         2.1400    3.0191    6.1240 C.3       1 <0>         0.2132
     26 O2          2.5443    2.9431    4.7443 O.3       1 <0>        -0.3072
     27 H2          1.0042    1.8801    0.0026 H         1 <0>         0.0778
     28 H3         -0.5455    1.8639   -0.8728 H         1 <0>         0.0745
     29 H4         -0.5286    1.8543    0.9071 H         1 <0>         0.0758
     30 H5         -0.0069   -0.1316   -2.1352 H         1 <0>         0.1340
     31 H6          0.0276   -2.6164   -2.1385 H         1 <0>         0.1361
     32 H7          0.0549   -3.8110    0.0380 H         1 <0>         0.1392
     33 H8         -2.6695   -5.0200    4.8286 H         1 <0>         0.0641
     34 H9         -2.1200   -6.2874    5.9511 H         1 <0>         0.0709
     35 H10        -1.6830   -4.5872    6.2456 H         1 <0>         0.0537
     36 H11         0.0814   -6.7146    2.9796 H         1 <0>         0.0612
     37 H12        -1.0896   -7.5297    4.0439 H         1 <0>         0.0622
     38 H13        -1.6392   -6.2623    2.9214 H         1 <0>         0.0690
     39 H14         0.7321   -5.2221    6.3273 H         1 <0>         0.0526
     40 H15         0.2951   -6.9223    6.0328 H         1 <0>         0.0736
     41 H16         1.4661   -6.1072    4.9686 H         1 <0>         0.0631
     42 H17         2.3339   -0.8863    2.1566 H         1 <0>         0.1324
     43 H18         3.2853    1.3485    2.5285 H         1 <0>         0.1378
     44 H19        -0.0354   -0.4621    5.7070 H         1 <0>         0.1302
     45 H20         1.8277    4.0325    6.3763 H         1 <0>         0.1330
     46 H21         2.9481    2.6923    6.7784 H         1 <0>         0.0850
@<TRIPOS>BOND
     1    1    2 1
     2    1   27 1
     3    1   28 1
     4    1   29 1
     5    2    7 ar
     6    2    3 ar
     7    3    4 ar
     8    3   30 1
     9    4    5 ar
    10    4   31 1
    11    5    6 ar
    12    5   32 1
    13    6    7 ar
    14    6    8 1
    15    8   13 1
    16    8    9 2
    17    9   10 1
    18    9   18 1
    19   10   11 1
    20   10   12 1
    21   12   13 2
    22   12   14 1
    23   14   15 1
    24   14   16 1
    25   14   17 1
    26   15   33 1
    27   15   34 1
    28   15   35 1
    29   16   36 1
    30   16   37 1
    31   16   38 1
    32   17   39 1
    33   17   40 1
    34   17   41 1
    35   18   23 ar
    36   18   19 ar
    37   19   20 ar
    38   19   42 1
    39   20   21 ar
    40   20   43 1
    41   21   26 1
    42   21   22 ar
    43   22   23 ar
    44   22   24 1
    45   23   44 1
    46   24   25 1
    47   25   26 1
    48   25   45 1
    49   25   46 1
@<TRIPOS>MOLECULE
ZINC00581684
   52    54     0     0     0
SMALL
USER_CHARGES

@<TRIPOS>ATOM
      1 C1         -0.3920    1.3196    0.2829 C.3       1 <0>        -0.1144
      2 C2         -0.1867   -0.1617    0.0967 C.ar      1 <0>        -0.1268
      3 C3         -0.3263   -0.7256   -1.1570 C.ar      1 <0>        -0.0825
      4 C4         -0.1394   -2.0830   -1.3319 C.ar      1 <0>        -0.1290
      5 C5          0.1904   -2.8860   -0.2467 C.ar      1 <0>         0.1580
      6 C6          0.3318   -2.3229    1.0134 C.ar      1 <0>        -0.1501
      7 C7          0.1484   -0.9579    1.1847 C.ar      1 <0>         0.1606
      8 N1          0.2955   -0.3855    2.4522 N.am      1 <0>        -0.6629
      9 C8          0.0535   -1.1204    3.5557 C.2       1 <0>         0.5622
     10 O1         -0.2158   -2.3016    3.4526 O.2       1 <0>        -0.5145
     11 C9          0.1154   -0.4914    4.8893 C.ar      1 <0>        -0.1506
     12 C10         0.4192    0.8673    5.0097 C.ar      1 <0>        -0.0674
     13 C11         0.4760    1.4504    6.2558 C.ar      1 <0>        -0.1527
     14 C12         0.2322    0.6893    7.3931 C.ar      1 <0>         0.1394
     15 C13        -0.0698   -0.6625    7.2777 C.ar      1 <0>        -0.1532
     16 C14        -0.1352   -1.2517    6.0348 C.ar      1 <0>        -0.0369
     17 O2          0.2896    1.2676    8.6195 O.3       1 <0>        -0.4971
     18 N2          0.3790   -4.2602   -0.4245 N.am      1 <0>        -0.6664
     19 C15         0.9498   -4.7214   -1.5549 C.2       1 <0>         0.5619
     20 O3          1.2253   -3.9516   -2.4545 O.2       1 <0>        -0.5163
     21 C16         1.2409   -6.1634   -1.7009 C.ar      1 <0>        -0.0899
     22 C17         0.9202   -7.0505   -0.6714 C.ar      1 <0>        -0.1453
     23 C18         1.1928   -8.3959   -0.8100 C.ar      1 <0>        -0.0758
     24 C19         1.7835   -8.8709   -1.9662 C.ar      1 <0>        -0.1713
     25 C20         2.1068   -7.9963   -2.9969 C.ar      1 <0>         0.2078
     26 C21         1.8316   -6.6431   -2.8697 C.ar      1 <0>        -0.1355
     27 N3          2.7044   -8.4812   -4.1629 N.pl3     1 <0>        -0.6372
     28 C22         2.9904   -9.9115   -4.2993 C.3       1 <0>         0.0917
     29 C23         3.0451   -7.5592   -5.2493 C.3       1 <0>         0.0891
     30 H1          0.5556    1.8387    0.1393 H         1 <0>         0.0713
     31 H2         -1.1179    1.6802   -0.4458 H         1 <0>         0.0736
     32 H3         -0.7623    1.5113    1.2900 H         1 <0>         0.0611
     33 H4         -0.5825   -0.1037   -2.0020 H         1 <0>         0.1311
     34 H5         -0.2499   -2.5208   -2.3130 H         1 <0>         0.1399
     35 H6          0.5880   -2.9448    1.8584 H         1 <0>         0.1542
     36 H7          0.5717    0.5405    2.5370 H         1 <0>         0.4114
     37 H8          0.6094    1.4592    4.1265 H         1 <0>         0.1303
     38 H9          0.7107    2.5004    6.3497 H         1 <0>         0.1385
     39 H10        -0.2583   -1.2506    8.1638 H         1 <0>         0.1394
     40 H11        -0.3746   -2.3010    5.9456 H         1 <0>         0.1435
     41 H12        -0.5533    1.6320    8.9223 H         1 <0>         0.3984
     42 H13         0.0990   -4.8815    0.2658 H         1 <0>         0.4128
     43 H14         0.4590   -6.6834    0.2335 H         1 <0>         0.1228
     44 H15         0.9443   -9.0803   -0.0124 H         1 <0>         0.1302
     45 H16         1.9948   -9.9251   -2.0687 H         1 <0>         0.1284
     46 H17         2.0782   -5.9623   -3.6711 H         1 <0>         0.1377
     47 H18         2.1327  -10.4123   -4.7483 H         1 <0>         0.0505
     48 H19         3.8649  -10.0481   -4.9353 H         1 <0>         0.0689
     49 H20         3.1863  -10.3382   -3.3156 H         1 <0>         0.0694
     50 H21         4.0582   -7.1845   -5.1035 H         1 <0>         0.0512
     51 H22         2.9854   -8.0836   -6.2030 H         1 <0>         0.0692
     52 H23         2.3452   -6.7236   -5.2496 H         1 <0>         0.0713
@<TRIPOS>BOND
     1    1    2 1
     2    1   30 1
     3    1   31 1
     4    1   32 1
     5    2    7 ar
     6    2    3 ar
     7    3    4 ar
     8    3   33 1
     9    4    5 ar
    10    4   34 1
    11    5    6 ar
    12    5   18 1
    13    6    7 ar
    14    6   35 1
    15    7    8 1
    16    8    9 am
    17    8   36 1
    18    9   10 2
    19    9   11 1
    20   11   16 ar
    21   11   12 ar
    22   12   13 ar
    23   12   37 1
    24   13   14 ar
    25   13   38 1
    26   14   15 ar
    27   14   17 1
    28   15   16 ar
    29   15   39 1
    30   16   40 1
    31   17   41 1
    32   18   19 am
    33   18   42 1
    34   19   20 2
    35   19   21 1
    36   21   26 ar
    37   21   22 ar
    38   22   23 ar
    39   22   43 1
    40   23   24 ar
    41   23   44 1
    42   24   25 ar
    43   24   45 1
    44   25   26 ar
    45   25   27 1
    46   26   46 1
    47   27   28 1
    48   27   29 1
    49   28   47 1
    50   28   48 1
    51   28   49 1
    52   29   50 1
    53   29   51 1
    54   29   52 1
@<TRIPOS>MOLECULE
ZINC01546302
   56    59     0     0     0
SMALL
USER_CHARGES
4-[4-(4-fluorophenyl)-1-(3-phenylpropyl)-5-(4-pyridyl)imidazol-2-yl]but-3-yn-1-ol
@<TRIPOS>ATOM
      1 C1         -5.7818    0.5805    5.4994 C.ar      1 <0>        -0.1212
      2 C2         -5.9543    1.7910    4.8545 C.ar      1 <0>        -0.1165
      3 C3         -5.5233    1.9469    3.5504 C.ar      1 <0>        -0.1154
      4 C4         -4.9202    0.8922    2.8910 C.ar      1 <0>        -0.0856
      5 C5         -4.7529   -0.3200    3.5340 C.ar      1 <0>        -0.1163
      6 C6         -5.1791   -0.4743    4.8399 C.ar      1 <0>        -0.1172
      7 C7         -4.4507    1.0620    1.4691 C.3       1 <0>        -0.0754
      8 C8         -3.0032    1.5576    1.4657 C.3       1 <0>        -0.1273
      9 C9         -2.5266    1.7301    0.0221 C.3       1 <0>         0.0954
     10 N1         -1.1405    2.2046    0.0188 N.pl3     1 <0>        -0.4306
     11 C10        -0.0173    1.4278    0.0099 C.2       1 <0>         0.3301
     12 N2          1.0441    2.2054    0.0039 N.2       1 <0>        -0.4441
     13 C11         0.6599    3.4902    0.0137 C.2       1 <0>         0.0795
     14 C12        -0.7257    3.5174    0.0265 C.2       1 <0>         0.0332
     15 C13        -1.5856    4.7154    0.0406 C.ar      1 <0>         0.0296
     16 C14        -2.7013    4.8118   -0.8027 C.ar      1 <0>        -0.1694
     17 C15        -3.4795    5.9483   -0.7530 C.ar      1 <0>         0.1082
     18 N3         -3.1808    6.9396    0.0658 N.ar      1 <0>        -0.4787
     19 C16        -2.1375    6.8924    0.8731 C.ar      1 <0>         0.1089
     20 C17        -1.3071    5.7925    0.8936 C.ar      1 <0>        -0.1442
     21 C18         1.5566    4.6699    0.0116 C.ar      1 <0>        -0.0198
     22 C19         1.1894    5.8264   -0.6757 C.ar      1 <0>        -0.0719
     23 C20         2.0251    6.9239   -0.6703 C.ar      1 <0>        -0.1512
     24 C21         3.2327    6.8746    0.0075 C.ar      1 <0>         0.1051
     25 C22         3.6043    5.7260    0.6875 C.ar      1 <0>        -0.1525
     26 C23         2.7729    4.6251    0.6923 C.ar      1 <0>        -0.0594
     27 F1          4.0506    7.9499    0.0049 F         1 <0>        -0.1374
     28 C24         0.0021   -0.0041    0.0020 C.1       1 <0>        -0.1182
     29 C25         0.0180   -1.1779   -0.0044 C.1       1 <0>        -0.0923
     30 C26         0.0380   -2.6498   -0.0125 C.3       1 <0>        -0.0122
     31 C27        -1.3974   -3.1794   -0.0017 C.3       1 <0>         0.0816
     32 O1         -1.3780   -4.6082   -0.0095 O.3       1 <0>        -0.5711
     33 H1         -6.1182    0.4588    6.5185 H         1 <0>         0.1227
     34 H2         -6.4254    2.6150    5.3697 H         1 <0>         0.1230
     35 H3         -5.6580    2.8926    3.0465 H         1 <0>         0.1203
     36 H4         -4.2857   -1.1454    3.0173 H         1 <0>         0.1196
     37 H5         -5.0447   -1.4202    5.3436 H         1 <0>         0.1228
     38 H6         -5.0848    1.7889    0.9615 H         1 <0>         0.0776
     39 H7         -4.5083    0.1049    0.9507 H         1 <0>         0.0770
     40 H8         -2.3691    0.8307    1.9733 H         1 <0>         0.0745
     41 H9         -2.9456    2.5147    1.9841 H         1 <0>         0.0744
     42 H10        -3.1607    2.4569   -0.4855 H         1 <0>         0.1013
     43 H11        -2.5841    0.7730   -0.4963 H         1 <0>         0.0999
     44 H12        -2.9493    4.0065   -1.4782 H         1 <0>         0.1337
     45 H13        -4.3433    6.0307   -1.3961 H         1 <0>         0.1602
     46 H14        -1.9315    7.7274    1.5264 H         1 <0>         0.1621
     47 H15        -0.4552    5.7609    1.5567 H         1 <0>         0.1403
     48 H16         0.2504    5.8641   -1.2080 H         1 <0>         0.1295
     49 H17         1.7396    7.8216   -1.1986 H         1 <0>         0.1387
     50 H18         4.5465    5.6923    1.2143 H         1 <0>         0.1398
     51 H19         3.0637    3.7300    1.2220 H         1 <0>         0.1388
     52 H20         0.5481   -3.0013   -0.9093 H         1 <0>         0.1044
     53 H21         0.5651   -3.0109    0.8705 H         1 <0>         0.1055
     54 H22        -1.9076   -2.8278    0.8951 H         1 <0>         0.0519
     55 H23        -1.9246   -2.8183   -0.8847 H         1 <0>         0.0509
     56 H24        -2.2560   -5.0135   -0.0033 H         1 <0>         0.3873
@<TRIPOS>BOND
     1    1    6 ar
     2    1    2 ar
     3    1   33 1
     4    2    3 ar
     5    2   34 1
     6    3    4 ar
     7    3   35 1
     8    4    5 ar
     9    4    7 1
    10    5    6 ar
    11    5   36 1
    12    6   37 1
    13    7    8 1
    14    7   38 1
    15    7   39 1
    16    8    9 1
    17    8   40 1
    18    8   41 1
    19    9   10 1
    20    9   42 1
    21    9   43 1
    22   10   14 1
    23   10   11 1
    24   11   12 2
    25   11   28 1
    26   12   13 1
    27   13   14 2
    28   13   21 1
    29   14   15 1
    30   15   20 ar
    31   15   16 ar
    32   16   17 ar
    33   16   44 1
    34   17   18 ar
    35   17   45 1
    36   18   19 ar
    37   19   20 ar
    38   19   46 1
    39   20   47 1
    40   21   26 ar
    41   21   22 ar
    42   22   23 ar
    43   22   48 1
    44   23   24 ar
    45   23   49 1
    46   24   25 ar
    47   24   27 1
    48   25   26 ar
    49   25   50 1
    50   26   51 1
    51   28   29 3
    52   29   30 1
    53   30   31 1
    54   30   52 1
    55   30   53 1
    56   31   32 1
    57   31   54 1
    58   31   55 1
    59   32   56 1
@<TRIPOS>MOLECULE
ZINC01546302
   57    60     0     0     0
SMALL
USER_CHARGES
4-[4-(4-fluorophenyl)-1-(3-phenylpropyl)-5-(4-pyridyl)imidazol-2-yl]but-3-yn-1-ol
@<TRIPOS>ATOM
      1 C1         -5.7818    0.5805    5.4994 C.ar      1 <0>        -0.1143
      2 C2         -5.9543    1.7910    4.8545 C.ar      1 <0>        -0.1145
      3 C3         -5.5233    1.9469    3.5504 C.ar      1 <0>        -0.1142
      4 C4         -4.9202    0.8922    2.8910 C.ar      1 <0>        -0.0961
      5 C5         -4.7529   -0.3200    3.5340 C.ar      1 <0>        -0.1161
      6 C6         -5.1791   -0.4743    4.8399 C.ar      1 <0>        -0.1159
      7 C7         -4.4507    1.0620    1.4691 C.3       1 <0>        -0.0731
      8 C8         -3.0032    1.5576    1.4657 C.3       1 <0>        -0.1325
      9 C9         -2.5266    1.7301    0.0221 C.3       1 <0>         0.0839
     10 N1         -1.1405    2.2046    0.0188 N.pl3     1 <0>        -0.3857
     11 C10        -0.0173    1.4278    0.0099 C.cat     1 <0>         0.4528
     12 C11         0.6599    3.4902    0.0137 C.2       1 <0>         0.1207
     13 C12        -0.7257    3.5174    0.0265 C.2       1 <0>         0.1113
     14 C13        -1.5856    4.7154    0.0406 C.ar      1 <0>        -0.0141
     15 C14        -2.7013    4.8118   -0.8027 C.ar      1 <0>        -0.1537
     16 C15        -3.4795    5.9483   -0.7530 C.ar      1 <0>         0.1188
     17 N2         -3.1808    6.9396    0.0658 N.ar      1 <0>        -0.4574
     18 C16        -2.1375    6.8924    0.8731 C.ar      1 <0>         0.1188
     19 C17        -1.3071    5.7925    0.8936 C.ar      1 <0>        -0.1323
     20 C18         1.5566    4.6699    0.0116 C.ar      1 <0>        -0.0831
     21 C19         1.1894    5.8264   -0.6757 C.ar      1 <0>        -0.0456
     22 C20         2.0251    6.9239   -0.6703 C.ar      1 <0>        -0.1457
     23 C21         3.2327    6.8746    0.0075 C.ar      1 <0>         0.1431
     24 C22         3.6043    5.7260    0.6875 C.ar      1 <0>        -0.1464
     25 C23         2.7729    4.6251    0.6923 C.ar      1 <0>        -0.0619
     26 F1          4.0506    7.9499    0.0049 F         1 <0>        -0.1205
     27 C24         0.0021   -0.0041    0.0020 C.1       1 <0>        -0.2361
     28 C25         0.0180   -1.1779   -0.0044 C.1       1 <0>         0.0563
     29 C26         0.0380   -2.6498   -0.0125 C.3       1 <0>        -0.0414
     30 C27        -1.3974   -3.1794   -0.0017 C.3       1 <0>         0.0813
     31 O1         -1.3780   -4.6082   -0.0095 O.3       1 <0>        -0.5666
     32 H1         -6.1182    0.4588    6.5185 H         1 <0>         0.1263
     33 H2         -6.4254    2.6150    5.3697 H         1 <0>         0.1260
     34 H3         -5.6580    2.8926    3.0465 H         1 <0>         0.1208
     35 H4         -4.2857   -1.1454    3.0173 H         1 <0>         0.1190
     36 H5         -5.0447   -1.4202    5.3436 H         1 <0>         0.1254
     37 H6         -5.0848    1.7889    0.9615 H         1 <0>         0.0828
     38 H7         -4.5083    0.1049    0.9507 H         1 <0>         0.0812
     39 H8         -2.3691    0.8307    1.9733 H         1 <0>         0.0804
     40 H9         -2.9456    2.5147    1.9841 H         1 <0>         0.0834
     41 H10        -3.1607    2.4569   -0.4855 H         1 <0>         0.1273
     42 H11        -2.5841    0.7730   -0.4963 H         1 <0>         0.1228
     43 H12        -2.9493    4.0065   -1.4782 H         1 <0>         0.1411
     44 H13        -4.3433    6.0307   -1.3961 H         1 <0>         0.1713
     45 H14        -1.9315    7.7274    1.5264 H         1 <0>         0.1721
     46 H15        -0.4552    5.7609    1.5567 H         1 <0>         0.1465
     47 H16         0.2504    5.8641   -1.2080 H         1 <0>         0.1403
     48 H17         1.7396    7.8216   -1.1986 H         1 <0>         0.1532
     49 H18         4.5465    5.6923    1.2143 H         1 <0>         0.1530
     50 H19         3.0637    3.7300    1.2220 H         1 <0>         0.1378
     51 H20         0.5481   -3.0013   -0.9093 H         1 <0>         0.1255
     52 H21         0.5651   -3.0109    0.8705 H         1 <0>         0.1254
     53 H22        -1.9076   -2.8278    0.8951 H         1 <0>         0.0559
     54 H23        -1.9246   -2.8183   -0.8847 H         1 <0>         0.0554
     55 H24        -2.2560   -5.0135   -0.0033 H         1 <0>         0.3962
     56 N3          1.0447    2.2052    0.0039 N.pl3     1 <0>        -0.4693
     57 H25         2.0180    1.8784   -0.0067 H         1 <0>         0.4808
@<TRIPOS>BOND
     1    1    6 ar
     2    1    2 ar
     3    1   32 1
     4    2    3 ar
     5    2   33 1
     6    3    4 ar
     7    3   34 1
     8    4    5 ar
     9    4    7 1
    10    5    6 ar
    11    5   35 1
    12    6   36 1
    13    7    8 1
    14    7   37 1
    15    7   38 1
    16    8    9 1
    17    8   39 1
    18    8   40 1
    19    9   10 1
    20    9   41 1
    21    9   42 1
    22   10   13 1
    23   10   11 1
    24   11   27 1
    25   11   56 2
    26   12   13 2
    27   12   20 1
    28   12   56 1
    29   13   14 1
    30   14   19 ar
    31   14   15 ar
    32   15   16 ar
    33   15   43 1
    34   16   17 ar
    35   16   44 1
    36   17   18 ar
    37   18   19 ar
    38   18   45 1
    39   19   46 1
    40   20   25 ar
    41   20   21 ar
    42   21   22 ar
    43   21   47 1
    44   22   23 ar
    45   22   48 1
    46   23   24 ar
    47   23   26 1
    48   24   25 ar
    49   24   49 1
    50   25   50 1
    51   27   28 3
    52   28   29 1
    53   29   30 1
    54   29   51 1
    55   29   52 1
    56   30   31 1
    57   30   53 1
    58   30   54 1
    59   31   55 1
    60   56   57 1
@<TRIPOS>MOLECULE
ZINC13674013
   49    51     0     0     0
SMALL
USER_CHARGES
3-[[2-amino-5-cyano-6-(isopropylamino)pyrimidin-4-yl]amino]-N-isoxazol-3-yl-4-methyl-benzamide
@<TRIPOS>ATOM
      1 C1          0.0995   -3.9417    0.8835 C.3       1 <0>        -0.1243
      2 C2          0.0347   -2.6147    0.1722 C.ar      1 <0>        -0.0829
      3 C3          1.1965   -1.9055   -0.0700 C.ar      1 <0>        -0.1030
      4 C4          1.1459   -0.6926   -0.7258 C.ar      1 <0>        -0.0991
      5 C5         -0.0827   -0.1723   -1.1377 C.ar      1 <0>        -0.1258
      6 C6         -1.2547   -0.8876   -0.8934 C.ar      1 <0>        -0.0486
      7 C7         -1.1926   -2.1082   -0.2384 C.ar      1 <0>         0.1499
      8 N1         -2.3648   -2.8291    0.0094 N.pl3     1 <0>        -0.6378
      9 C8         -3.5709   -2.1665    0.1297 C.ar      1 <0>         0.5361
     10 C9         -4.7766   -2.8877    0.2446 C.ar      1 <0>        -0.3104
     11 C10        -5.9766   -2.1583    0.3651 C.ar      1 <0>         0.5485
     12 N2         -5.9233   -0.8307    0.3654 N.ar      1 <0>        -0.6394
     13 C11        -4.7663   -0.1939    0.2549 C.ar      1 <0>         0.6587
     14 N3         -3.6135   -0.8387    0.1446 N.ar      1 <0>        -0.6364
     15 N4         -4.7610    1.1866    0.2602 N.pl3     1 <0>        -0.8037
     16 N5         -7.1866   -2.8120    0.4811 N.pl3     1 <0>        -0.6927
     17 C12        -8.4265   -2.0416    0.6056 C.3       1 <0>         0.1430
     18 C13        -9.6022   -2.8831    0.1051 C.3       1 <0>        -0.1656
     19 C14        -8.6521   -1.6721    2.0731 C.3       1 <0>        -0.1633
     20 C15        -4.7821   -4.3197    0.2396 C.1       1 <0>         0.2668
     21 N6         -4.7864   -5.4557    0.2356 N.1       1 <0>        -0.4325
     22 C16        -0.1402    1.1295   -1.8359 C.2       1 <0>         0.5755
     23 O1         -1.2097    1.5757   -2.2025 O.2       1 <0>        -0.5054
     24 N7          0.9939    1.8188   -2.0708 N.am      1 <0>        -0.6293
     25 C17         0.9397    3.0465   -2.7292 C.2       1 <0>         0.2435
     26 C18        -0.2227    3.7041   -3.2131 C.2       1 <0>        -0.2279
     27 C19         0.2528    4.8444   -3.7632 C.2       1 <0>        -0.0465
     28 O2          1.5833    4.8239   -3.5980 O.3       1 <0>         0.0990
     29 N8          1.9478    3.8263   -3.0202 N.2       1 <0>        -0.3889
     30 H1          0.2195   -4.7407    0.1518 H         1 <0>         0.0782
     31 H2          0.9474   -3.9459    1.5684 H         1 <0>         0.0795
     32 H3         -0.8217   -4.0985    1.4447 H         1 <0>         0.0656
     33 H4          2.1473   -2.3043    0.2514 H         1 <0>         0.1367
     34 H5          2.0562   -0.1436   -0.9167 H         1 <0>         0.1269
     35 H6         -2.2074   -0.4923   -1.2136 H         1 <0>         0.1667
     36 H7         -2.3311   -3.7946    0.0969 H         1 <0>         0.4235
     37 H8         -5.5952    1.6744    0.3439 H         1 <0>         0.4181
     38 H9         -3.9231    1.6687    0.1803 H         1 <0>         0.4198
     39 H10        -7.2161   -3.7816    0.4803 H         1 <0>         0.4110
     40 H11        -8.3506   -1.1323    0.0094 H         1 <0>         0.0981
     41 H12        -9.6780   -3.7924    0.7012 H         1 <0>         0.0607
     42 H13       -10.5247   -2.3099    0.1977 H         1 <0>         0.0776
     43 H14        -9.4415   -3.1464   -0.9404 H         1 <0>         0.0628
     44 H15        -7.8145   -1.0726    2.4297 H         1 <0>         0.0633
     45 H16        -9.5745   -1.0989    2.1657 H         1 <0>         0.0678
     46 H17        -8.7279   -2.5814    2.6693 H         1 <0>         0.0544
     47 H18         1.8478    1.4608   -1.7818 H         1 <0>         0.4188
     48 H19        -1.2483    3.3707   -3.1551 H         1 <0>         0.1913
     49 H20        -0.3262    5.6200   -4.2424 H         1 <0>         0.2215
@<TRIPOS>BOND
     1    1    2 1
     2    1   30 1
     3    1   31 1
     4    1   32 1
     5    2    7 ar
     6    2    3 ar
     7    3    4 ar
     8    3   33 1
     9    4    5 ar
    10    4   34 1
    11    5    6 ar
    12    5   22 1
    13    6    7 ar
    14    6   35 1
    15    7    8 1
    16    8    9 1
    17    8   36 1
    18    9   14 ar
    19    9   10 ar
    20   10   11 ar
    21   10   20 1
    22   11   12 ar
    23   11   16 1
    24   12   13 ar
    25   13   14 ar
    26   13   15 1
    27   15   37 1
    28   15   38 1
    29   16   17 1
    30   16   39 1
    31   17   18 1
    32   17   19 1
    33   17   40 1
    34   18   41 1
    35   18   42 1
    36   18   43 1
    37   19   44 1
    38   19   45 1
    39   19   46 1
    40   20   21 3
    41   22   23 2
    42   22   24 am
    43   24   25 1
    44   24   47 1
    45   25   29 2
    46   25   26 1
    47   26   27 2
    48   26   48 1
    49   27   28 1
    50   27   49 1
    51   28   29 1
@<TRIPOS>MOLECULE
ZINC13985866
   49    52     0     0     0
SMALL
USER_CHARGES
[(5S)-2-(4-fluorophenyl)-3-(2-propylaminopyrimidin-4-yl)-6,7-dihydro-5H-pyrrolo[1,5-a]imidazol-5-yl]methanol
@<TRIPOS>ATOM
      1 C1         -5.1100    4.6181    5.7006 C.3       1 <0>        -0.1485
      2 C2         -3.9284    4.1781    4.8339 C.3       1 <0>        -0.1385
      3 C3         -4.1981    2.7791    4.2762 C.3       1 <0>         0.1368
      4 N1         -3.0667    2.3578    3.4463 N.pl3     1 <0>        -0.6955
      5 C4         -3.0836    1.1180    2.8309 C.ar      1 <0>         0.5744
      6 N2         -4.1322    0.3257    3.0042 N.ar      1 <0>        -0.5686
      7 C5         -4.1880   -0.8684    2.4336 C.ar      1 <0>         0.2026
      8 C6         -3.1349   -1.2920    1.6458 C.ar      1 <0>        -0.2967
      9 C7         -2.0391   -0.4343    1.4797 C.ar      1 <0>         0.2976
     10 N3         -2.0504    0.7526    2.0897 N.ar      1 <0>        -0.5501
     11 C8         -0.8902   -0.8390    0.6498 C.2       1 <0>         0.0213
     12 C9          0.0021   -0.0041    0.0020 C.2       1 <0>         0.1200
     13 N4          0.8935   -0.7840   -0.6310 N.2       1 <0>        -0.4674
     14 C10         0.6064   -2.0448   -0.4191 C.2       1 <0>         0.2248
     15 N5         -0.4891   -2.1284    0.3602 N.pl3     1 <0>        -0.4577
     16 C11        -0.8525   -3.5292    0.6205 C.3       1 <0>         0.1309
     17 H1         -1.6896   -3.8266   -0.0111 H         1 <0>         0.1108
     18 C12         0.4034   -4.3540    0.2660 C.3       1 <0>        -0.1169
     19 C13         1.1026   -3.4367   -0.7621 C.3       1 <0>        -0.0465
     20 C14        -1.2104   -3.7177    2.0960 C.3       1 <0>         0.0592
     21 O1         -1.6172   -5.0694    2.3186 O.3       1 <0>        -0.5628
     22 C15        -0.0180    1.4773    0.0102 C.ar      1 <0>        -0.0114
     23 C16        -1.2339    2.1604    0.0196 C.ar      1 <0>        -0.0350
     24 C17        -1.2474    3.5397    0.0316 C.ar      1 <0>        -0.1598
     25 C18        -0.0556    4.2466    0.0244 C.ar      1 <0>         0.1045
     26 C19         1.1550    3.5724    0.0097 C.ar      1 <0>        -0.1590
     27 C20         1.1789    2.1932    0.0026 C.ar      1 <0>        -0.0572
     28 F1         -0.0739    5.5974    0.0314 F         1 <0>        -0.1405
     29 H2         -4.9178    5.6148    6.0979 H         1 <0>         0.0614
     30 H3         -6.0169    4.6365    5.0963 H         1 <0>         0.0585
     31 H4         -5.2369    3.9166    6.5251 H         1 <0>         0.0581
     32 H5         -3.0215    4.1598    5.4382 H         1 <0>         0.0690
     33 H6         -3.8015    4.8796    4.0093 H         1 <0>         0.0699
     34 H7         -5.1050    2.7974    3.6719 H         1 <0>         0.0684
     35 H8         -4.3250    2.0775    5.1007 H         1 <0>         0.0674
     36 H9         -2.3058    2.9476    3.3281 H         1 <0>         0.4149
     37 H10        -5.0479   -1.5046    2.5829 H         1 <0>         0.1700
     38 H11        -3.1558   -2.2609    1.1691 H         1 <0>         0.1393
     39 H12         0.1293   -5.3077   -0.1850 H         1 <0>         0.1104
     40 H13         1.0313   -4.5056    1.1441 H         1 <0>         0.0915
     41 H14         0.8086   -3.7071   -1.7763 H         1 <0>         0.1048
     42 H15         2.1853   -3.4940   -0.6500 H         1 <0>         0.1061
     43 H16        -0.3398   -3.4941    2.7126 H         1 <0>         0.0558
     44 H17        -2.0258   -3.0446    2.3609 H         1 <0>         0.0656
     45 H18        -1.8595   -5.2615    3.2348 H         1 <0>         0.3914
     46 H19        -2.1633    1.6103    0.0213 H         1 <0>         0.1206
     47 H20        -2.1884    4.0696    0.0423 H         1 <0>         0.1323
     48 H21         2.0813    4.1277    0.0035 H         1 <0>         0.1370
     49 H22         2.1228    1.6686   -0.0085 H         1 <0>         0.1365
@<TRIPOS>BOND
     1    1    2 1
     2    1   29 1
     3    1   30 1
     4    1   31 1
     5    2    3 1
     6    2   32 1
     7    2   33 1
     8    3    4 1
     9    3   34 1
    10    3   35 1
    11    4    5 1
    12    4   36 1
    13    5   10 ar
    14    5    6 ar
    15    6    7 ar
    16    7    8 ar
    17    7   37 1
    18    8    9 ar
    19    8   38 1
    20    9   10 ar
    21    9   11 1
    22   11   15 1
    23   11   12 2
    24   12   13 1
    25   12   22 1
    26   13   14 2
    27   14   19 1
    28   14   15 1
    29   15   16 1
    30   16   17 1
    31   16   18 1
    32   16   20 1
    33   18   19 1
    34   18   39 1
    35   18   40 1
    36   19   41 1
    37   19   42 1
    38   20   21 1
    39   20   43 1
    40   20   44 1
    41   21   45 1
    42   22   27 ar
    43   22   23 ar
    44   23   24 ar
    45   23   46 1
    46   24   25 ar
    47   24   47 1
    48   25   26 ar
    49   25   28 1
    50   26   27 ar
    51   26   48 1
    52   27   49 1
@<TRIPOS>MOLECULE
ZINC13985866
   50    53     0     0     0
SMALL
USER_CHARGES
[(5S)-2-(4-fluorophenyl)-3-(2-propylaminopyrimidin-4-yl)-6,7-dihydro-5H-pyrrolo[1,5-a]imidazol-5-yl]methanol
@<TRIPOS>ATOM
      1 C1         -5.1100    4.6181    5.7006 C.3       1 <0>        -0.1508
      2 C2         -3.9284    4.1781    4.8339 C.3       1 <0>        -0.1381
      3 C3         -4.1981    2.7791    4.2762 C.3       1 <0>         0.1306
      4 N1         -3.0667    2.3578    3.4463 N.pl3     1 <0>        -0.6858
      5 C4         -3.0836    1.1180    2.8309 C.ar      1 <0>         0.5812
      6 N2         -4.1322    0.3257    3.0042 N.ar      1 <0>        -0.5462
      7 C5         -4.1880   -0.8684    2.4336 C.ar      1 <0>         0.2176
      8 C6         -3.1349   -1.2920    1.6458 C.ar      1 <0>        -0.2809
      9 C7         -2.0391   -0.4343    1.4797 C.ar      1 <0>         0.2599
     10 N3         -2.0504    0.7526    2.0897 N.ar      1 <0>        -0.5470
     11 C8         -0.8902   -0.8390    0.6498 C.2       1 <0>         0.1092
     12 C9          0.0021   -0.0041    0.0020 C.2       1 <0>         0.1523
     13 C10         0.6064   -2.0448   -0.4191 C.cat     1 <0>         0.3031
     14 N4         -0.4891   -2.1284    0.3602 N.pl3     1 <0>        -0.4057
     15 C11        -0.8525   -3.5292    0.6205 C.3       1 <0>         0.1173
     16 H1         -1.6896   -3.8266   -0.0111 H         1 <0>         0.1421
     17 C12         0.4034   -4.3540    0.2660 C.3       1 <0>        -0.1164
     18 C13         1.1026   -3.4367   -0.7621 C.3       1 <0>        -0.0650
     19 C14        -1.2104   -3.7177    2.0960 C.3       1 <0>         0.0572
     20 O1         -1.6172   -5.0694    2.3186 O.3       1 <0>        -0.5563
     21 C15        -0.0180    1.4773    0.0102 C.ar      1 <0>        -0.0748
     22 C16        -1.2339    2.1604    0.0196 C.ar      1 <0>        -0.0096
     23 C17        -1.2474    3.5397    0.0316 C.ar      1 <0>        -0.1550
     24 C18        -0.0556    4.2466    0.0244 C.ar      1 <0>         0.1431
     25 C19         1.1550    3.5724    0.0097 C.ar      1 <0>        -0.1527
     26 C20         1.1789    2.1932    0.0026 C.ar      1 <0>        -0.0591
     27 F1         -0.0739    5.5974    0.0314 F         1 <0>        -0.1233
     28 H2         -4.9178    5.6148    6.0979 H         1 <0>         0.0649
     29 H3         -6.0169    4.6365    5.0963 H         1 <0>         0.0603
     30 H4         -5.2369    3.9166    6.5251 H         1 <0>         0.0600
     31 H5         -3.0215    4.1598    5.4382 H         1 <0>         0.0703
     32 H6         -3.8015    4.8796    4.0093 H         1 <0>         0.0706
     33 H7         -5.1050    2.7974    3.6719 H         1 <0>         0.0746
     34 H8         -4.3250    2.0775    5.1007 H         1 <0>         0.0737
     35 H9         -2.3058    2.9476    3.3281 H         1 <0>         0.4170
     36 H10        -5.0479   -1.5046    2.5829 H         1 <0>         0.1821
     37 H11        -3.1558   -2.2609    1.1691 H         1 <0>         0.1465
     38 H12         0.1293   -5.3077   -0.1850 H         1 <0>         0.1360
     39 H13         1.0313   -4.5056    1.1441 H         1 <0>         0.1096
     40 H14         0.8086   -3.7071   -1.7763 H         1 <0>         0.1390
     41 H15         2.1853   -3.4940   -0.6500 H         1 <0>         0.1347
     42 H16        -0.3398   -3.4941    2.7126 H         1 <0>         0.0641
     43 H17        -2.0258   -3.0446    2.3609 H         1 <0>         0.0720
     44 H18        -1.8595   -5.2615    3.2348 H         1 <0>         0.4040
     45 H19        -2.1633    1.6103    0.0213 H         1 <0>         0.1312
     46 H20        -2.1884    4.0696    0.0423 H         1 <0>         0.1472
     47 H21         2.0813    4.1277    0.0035 H         1 <0>         0.1507
     48 H22         2.1228    1.6686   -0.0085 H         1 <0>         0.1358
     49 N5          0.8946   -0.7835   -0.6318 N.pl3     1 <0>        -0.4706
     50 H23         1.6819   -0.4434   -1.1963 H         1 <0>         0.4792
@<TRIPOS>BOND
     1    1    2 1
     2    1   28 1
     3    1   29 1
     4    1   30 1
     5    2    3 1
     6    2   31 1
     7    2   32 1
     8    3    4 1
     9    3   33 1
    10    3   34 1
    11    4    5 1
    12    4   35 1
    13    5   10 ar
    14    5    6 ar
    15    6    7 ar
    16    7    8 ar
    17    7   36 1
    18    8    9 ar
    19    8   37 1
    20    9   10 ar
    21    9   11 1
    22   11   14 1
    23   11   12 2
    24   12   21 1
    25   12   49 1
    26   13   18 1
    27   13   14 1
    28   13   49 2
    29   14   15 1
    30   15   16 1
    31   15   17 1
    32   15   19 1
    33   17   18 1
    34   17   38 1
    35   17   39 1
    36   18   40 1
    37   18   41 1
    38   19   20 1
    39   19   42 1
    40   19   43 1
    41   20   44 1
    42   21   26 ar
    43   21   22 ar
    44   22   23 ar
    45   22   45 1
    46   23   24 ar
    47   23   46 1
    48   24   25 ar
    49   24   27 1
    50   25   26 ar
    51   25   47 1
    52   26   48 1
    53   49   50 1
@<TRIPOS>MOLECULE
ZINC03986654
   47    49     0     0     0
SMALL
USER_CHARGES
3-(5-cyano-6-isopropylamino-pyrimidin-4-yl)amino-N-isoxazol-3-yl-4-methyl-benzamide
@<TRIPOS>ATOM
      1 C1         -1.0655   -0.7524   -0.2794 C.3       1 <0>        -0.1244
      2 C2          0.1553    0.1289   -0.3421 C.ar      1 <0>        -0.0816
      3 C3          1.4007   -0.4333   -0.5524 C.ar      1 <0>        -0.1033
      4 C4          2.5232    0.3670   -0.6111 C.ar      1 <0>        -0.0968
      5 C5          2.4036    1.7498   -0.4575 C.ar      1 <0>        -0.1238
      6 C6          1.1473    2.3171   -0.2453 C.ar      1 <0>        -0.0467
      7 C7          0.0255    1.5041   -0.1880 C.ar      1 <0>         0.1459
      8 N1         -1.2370    2.0683    0.0191 N.pl3     1 <0>        -0.6374
      9 C8         -1.3565    3.2598    0.7076 C.ar      1 <0>         0.5015
     10 C9         -2.6031    3.9077    0.8087 C.ar      1 <0>        -0.2663
     11 C10        -2.6612    5.1167    1.5285 C.ar      1 <0>         0.5134
     12 N2         -1.5435    5.5956    2.0680 N.ar      1 <0>        -0.5963
     13 C11        -0.3988    4.9555    1.9416 C.ar      1 <0>         0.4085
     14 N3         -0.2953    3.8191    1.2826 N.ar      1 <0>        -0.5957
     15 N4         -3.8551    5.7955    1.6665 N.pl3     1 <0>        -0.6917
     16 C12        -3.8992    7.0556    2.4126 C.3       1 <0>         0.1415
     17 C13        -3.5183    8.2111    1.4849 C.3       1 <0>        -0.1642
     18 C14        -5.3133    7.2795    2.9521 C.3       1 <0>        -0.1657
     19 C15        -3.7756    3.3515    0.2033 C.1       1 <0>         0.2587
     20 N5         -4.7057    2.9103   -0.2770 N.1       1 <0>        -0.4167
     21 C16         3.6046    2.6094   -0.5194 C.2       1 <0>         0.5749
     22 O1          3.4982    3.8128   -0.3854 O.2       1 <0>        -0.5031
     23 N6          4.8176    2.0588   -0.7245 N.am      1 <0>        -0.6295
     24 C17         5.9503    2.8695   -0.7830 C.2       1 <0>         0.2435
     25 C18         5.9955    4.2827   -0.6466 C.2       1 <0>        -0.2276
     26 C19         7.3079    4.5812   -0.7782 C.2       1 <0>        -0.0463
     27 O2          7.9478    3.4192   -0.9737 O.3       1 <0>         0.0987
     28 N7          7.1847    2.4812   -0.9686 N.2       1 <0>        -0.3891
     29 H1         -1.4856   -0.8630   -1.2791 H         1 <0>         0.0782
     30 H2         -0.7867   -1.7323    0.1080 H         1 <0>         0.0802
     31 H3         -1.8073   -0.2993    0.3783 H         1 <0>         0.0649
     32 H4          1.4953   -1.5025   -0.6715 H         1 <0>         0.1374
     33 H5          3.4943   -0.0761   -0.7755 H         1 <0>         0.1280
     34 H6          1.0486    3.3859   -0.1262 H         1 <0>         0.1662
     35 H7         -2.0289    1.6229   -0.3206 H         1 <0>         0.4226
     36 H8          0.4863    5.3771    2.3946 H         1 <0>         0.2081
     37 H9         -4.6648    5.4383    1.2696 H         1 <0>         0.4103
     38 H10        -3.1960    7.0103    3.2441 H         1 <0>         0.1002
     39 H11        -4.2216    8.2564    0.6533 H         1 <0>         0.0545
     40 H12        -3.5512    9.1486    2.0400 H         1 <0>         0.0698
     41 H13        -2.5109    8.0515    1.1005 H         1 <0>         0.0646
     42 H14        -5.5847    6.4563    3.6130 H         1 <0>         0.0627
     43 H15        -5.3462    8.2171    3.5072 H         1 <0>         0.0791
     44 H16        -6.0165    7.3248    2.1205 H         1 <0>         0.0608
     45 H17         4.9025    1.0985   -0.8315 H         1 <0>         0.4187
     46 H18         5.1726    4.9613   -0.4772 H         1 <0>         0.1917
     47 H19         7.7537    5.5640   -0.7347 H         1 <0>         0.2218
@<TRIPOS>BOND
     1    1    2 1
     2    1   29 1
     3    1   30 1
     4    1   31 1
     5    2    7 ar
     6    2    3 ar
     7    3    4 ar
     8    3   32 1
     9    4    5 ar
    10    4   33 1
    11    5    6 ar
    12    5   21 1
    13    6    7 ar
    14    6   34 1
    15    7    8 1
    16    8    9 1
    17    8   35 1
    18    9   14 ar
    19    9   10 ar
    20   10   11 ar
    21   10   19 1
    22   11   12 ar
    23   11   15 1
    24   12   13 ar
    25   13   14 ar
    26   13   36 1
    27   15   16 1
    28   15   37 1
    29   16   17 1
    30   16   18 1
    31   16   38 1
    32   17   39 1
    33   17   40 1
    34   17   41 1
    35   18   42 1
    36   18   43 1
    37   18   44 1
    38   19   20 3
    39   21   22 2
    40   21   23 am
    41   23   24 1
    42   23   45 1
    43   24   28 2
    44   24   25 1
    45   25   26 2
    46   25   46 1
    47   26   27 1
    48   26   47 1
    49   27   28 1
@<TRIPOS>MOLECULE
ZINC13284470
   39    41     0     0     0
SMALL
USER_CHARGES
4-phenoxy-N-(2-pyridylmethyl)benzamide
@<TRIPOS>ATOM
      1 C1         -2.2456   11.1119    8.5584 C.ar      1 <0>        -0.1495
      2 C2         -1.0720   10.9397    9.2690 C.ar      1 <0>        -0.0825
      3 C3         -0.0340   10.2091    8.7240 C.ar      1 <0>        -0.1427
      4 C4         -0.1698    9.6478    7.4624 C.ar      1 <0>         0.1175
      5 C5         -1.3466    9.8265    6.7492 C.ar      1 <0>        -0.1942
      6 C6         -2.3835   10.5536    7.3009 C.ar      1 <0>        -0.0817
      7 O1          0.8500    8.9291    6.9238 O.3       1 <0>        -0.2574
      8 C7          0.7233    8.5065    5.6406 C.ar      1 <0>         0.1168
      9 C8          0.7178    9.4320    4.6032 C.ar      1 <0>        -0.1469
     10 C9          0.5899    9.0070    3.2997 C.ar      1 <0>        -0.0396
     11 C10         0.4656    7.6435    3.0203 C.ar      1 <0>        -0.1380
     12 C11         0.4663    6.7168    4.0662 C.ar      1 <0>        -0.0673
     13 C12         0.5999    7.1491    5.3666 C.ar      1 <0>        -0.1291
     14 C13         0.3279    7.1838    1.6245 C.2       1 <0>         0.5625
     15 O2          0.3224    7.9919    0.7160 O.2       1 <0>        -0.5300
     16 N1          0.2081    5.8683    1.3569 N.am      1 <0>        -0.7192
     17 C14         0.0713    5.4121   -0.0285 C.3       1 <0>         0.1731
     18 C15        -0.0447    3.9098   -0.0535 C.ar      1 <0>         0.1018
     19 C16        -1.2953    3.3216   -0.0811 C.ar      1 <0>        -0.1527
     20 C17        -1.3910    1.9389   -0.1092 C.ar      1 <0>        -0.0750
     21 C18        -0.2201    1.1960   -0.0976 C.ar      1 <0>        -0.1637
     22 C19         0.9946    1.8540   -0.0690 C.ar      1 <0>         0.1007
     23 N2          1.0478    3.1716   -0.0483 N.ar      1 <0>        -0.4694
     24 H1         -3.0558   11.6837    8.9861 H         1 <0>         0.1267
     25 H2         -0.9669   11.3765   10.2511 H         1 <0>         0.1328
     26 H3          0.8826   10.0752    9.2793 H         1 <0>         0.1337
     27 H4         -1.4532    9.3941    5.7653 H         1 <0>         0.1291
     28 H5         -3.3010   10.6898    6.7478 H         1 <0>         0.1274
     29 H6          0.8142   10.4856    4.8199 H         1 <0>         0.1395
     30 H7          0.5860    9.7266    2.4944 H         1 <0>         0.1462
     31 H8          0.3664    5.6624    3.8544 H         1 <0>         0.1339
     32 H9          0.6050    6.4332    6.1752 H         1 <0>         0.1409
     33 H10         0.2125    5.2237    2.0817 H         1 <0>         0.4013
     34 H11         0.9475    5.7184   -0.6000 H         1 <0>         0.0901
     35 H12        -0.8226    5.8530   -0.4696 H         1 <0>         0.0885
     36 H13        -2.1866    3.9316   -0.0855 H         1 <0>         0.1385
     37 H14        -2.3546    1.4518   -0.1356 H         1 <0>         0.1388
     38 H15        -0.2571    0.1167   -0.1152 H         1 <0>         0.1390
     39 H16         1.9111    1.2827   -0.0640 H         1 <0>         0.1602
@<TRIPOS>BOND
     1    1    6 ar
     2    1    2 ar
     3    1   24 1
     4    2    3 ar
     5    2   25 1
     6    3    4 ar
     7    3   26 1
     8    4    5 ar
     9    4    7 1
    10    5    6 ar
    11    5   27 1
    12    6   28 1
    13    7    8 1
    14    8   13 ar
    15    8    9 ar
    16    9   10 ar
    17    9   29 1
    18   10   11 ar
    19   10   30 1
    20   11   12 ar
    21   11   14 1
    22   12   13 ar
    23   12   31 1
    24   13   32 1
    25   14   15 2
    26   14   16 am
    27   16   17 1
    28   16   33 1
    29   17   18 1
    30   17   34 1
    31   17   35 1
    32   18   23 ar
    33   18   19 ar
    34   19   20 ar
    35   19   36 1
    36   20   21 ar
    37   20   37 1
    38   21   22 ar
    39   21   38 1
    40   22   23 ar
    41   22   39 1
@<TRIPOS>MOLECULE
ZINC28528239
   51    54     0     0     0
SMALL
USER_CHARGES
N-[3-[4-(4-fluorophenyl)-5-(4-pyridyl)imidazol-1-yl]propyl]benzamide
@<TRIPOS>ATOM
      1 C1          0.0868    3.2661   -9.8361 C.ar      1 <0>        -0.0923
      2 C2         -0.6992    2.1330   -9.9477 C.ar      1 <0>        -0.1259
      3 C3         -1.4621    1.7110   -8.8786 C.ar      1 <0>        -0.0603
      4 C4         -1.4401    2.4301   -7.6825 C.ar      1 <0>        -0.1370
      5 C5         -0.6494    3.5756   -7.5785 C.ar      1 <0>        -0.0872
      6 C6          0.1132    3.9836   -8.6534 C.ar      1 <0>        -0.1270
      7 C7         -2.2556    1.9840   -6.5328 C.2       1 <0>         0.5613
      8 O1         -2.9471    0.9889   -6.6279 O.2       1 <0>        -0.5369
      9 N1         -2.2322    2.6806   -5.3793 N.am      1 <0>        -0.7384
     10 C8         -3.0402    2.2385   -4.2401 C.3       1 <0>         0.1259
     11 C9         -2.8332    3.1968   -3.0655 C.3       1 <0>        -0.1475
     12 C10        -3.6770    2.7351   -1.8757 C.3       1 <0>         0.1015
     13 N2         -3.5714    3.7156   -0.7923 N.pl3     1 <0>        -0.4443
     14 C11        -4.4407    4.7146   -0.5305 C.2       1 <0>         0.2037
     15 N3         -4.0270    5.3935    0.5033 N.2       1 <0>        -0.4758
     16 C12        -2.8775    4.8637    0.9597 C.2       1 <0>         0.0727
     17 C13        -2.5684    3.7868    0.1481 C.2       1 <0>         0.0153
     18 C14        -1.3965    2.8976    0.2632 C.ar      1 <0>         0.0312
     19 C15        -1.5526    1.5078    0.3520 C.ar      1 <0>        -0.1670
     20 C16        -0.4302    0.7154    0.4628 C.ar      1 <0>         0.1071
     21 N4          0.7774    1.2482    0.4759 N.ar      1 <0>        -0.4793
     22 C17         0.9699    2.5512    0.3896 C.ar      1 <0>         0.1073
     23 C18        -0.0957    3.4187    0.2811 C.ar      1 <0>        -0.1465
     24 C19        -2.0887    5.3444    2.1180 C.ar      1 <0>        -0.0168
     25 C20        -1.4192    4.4336    2.9349 C.ar      1 <0>        -0.0735
     26 C21        -0.6824    4.8865    4.0096 C.ar      1 <0>        -0.1513
     27 C22        -0.6151    6.2430    4.2841 C.ar      1 <0>         0.1027
     28 C23        -1.2825    7.1515    3.4782 C.ar      1 <0>        -0.1529
     29 C24        -2.0179    6.7088    2.3983 C.ar      1 <0>        -0.0616
     30 F1          0.1031    6.6813    5.3411 F         1 <0>        -0.1381
     31 H1          0.6822    3.5923  -10.6761 H         1 <0>         0.1291
     32 H2         -0.7153    1.5774  -10.8737 H         1 <0>         0.1317
     33 H3         -2.0753    0.8263   -8.9669 H         1 <0>         0.1363
     34 H4         -0.6315    4.1390   -6.6573 H         1 <0>         0.1240
     35 H5          0.7288    4.8672   -8.5728 H         1 <0>         0.1302
     36 H6         -1.6064    3.5811   -5.2932 H         1 <0>         0.4205
     37 H7         -4.1027    2.2316   -4.5249 H         1 <0>         0.0737
     38 H8         -2.7333    1.2244   -3.9444 H         1 <0>         0.0721
     39 H9         -1.7707    3.2037   -2.7808 H         1 <0>         0.0789
     40 H10        -3.1401    4.2109   -3.3611 H         1 <0>         0.0827
     41 H11        -4.7284    2.6430   -2.1856 H         1 <0>         0.1080
     42 H12        -3.3116    1.7591   -1.5238 H         1 <0>         0.0983
     43 H13        -5.3387    4.9224   -1.0933 H         1 <0>         0.2121
     44 H14        -2.5374    1.0646    0.3378 H         1 <0>         0.1336
     45 H15        -0.5401   -0.3565    0.5355 H         1 <0>         0.1596
     46 H16         1.9762    2.9429    0.4040 H         1 <0>         0.1605
     47 H17         0.0693    4.4838    0.2113 H         1 <0>         0.1377
     48 H18        -1.4744    3.3758    2.7242 H         1 <0>         0.1277
     49 H19        -0.1606    4.1823    4.6406 H         1 <0>         0.1373
     50 H20        -1.2270    8.2078    3.6961 H         1 <0>         0.1390
     51 H21        -2.5382    7.4175    1.7712 H         1 <0>         0.1381
@<TRIPOS>BOND
     1    1    6 ar
     2    1    2 ar
     3    1   31 1
     4    2    3 ar
     5    2   32 1
     6    3    4 ar
     7    3   33 1
     8    4    5 ar
     9    4    7 1
    10    5    6 ar
    11    5   34 1
    12    6   35 1
    13    7    8 2
    14    7    9 am
    15    9   10 1
    16    9   36 1
    17   10   11 1
    18   10   37 1
    19   10   38 1
    20   11   12 1
    21   11   39 1
    22   11   40 1
    23   12   13 1
    24   12   41 1
    25   12   42 1
    26   13   17 1
    27   13   14 1
    28   14   15 2
    29   14   43 1
    30   15   16 1
    31   16   17 2
    32   16   24 1
    33   17   18 1
    34   18   23 ar
    35   18   19 ar
    36   19   20 ar
    37   19   44 1
    38   20   21 ar
    39   20   45 1
    40   21   22 ar
    41   22   23 ar
    42   22   46 1
    43   23   47 1
    44   24   29 ar
    45   24   25 ar
    46   25   26 ar
    47   25   48 1
    48   26   27 ar
    49   26   49 1
    50   27   28 ar
    51   27   30 1
    52   28   29 ar
    53   28   50 1
    54   29   51 1
@<TRIPOS>MOLECULE
ZINC13684484
   55    59     0     0     0
SMALL
USER_CHARGES
4-[4-[3-(2-pyridyl)-1H-pyrazol-4-yl]-2-pyridyl]-N-tetrahydropyran-4-yl-benzamide
@<TRIPOS>ATOM
      1 C1         -9.6818    4.7282  -10.3765 C.ar      1 <0>        -0.0755
      2 C2         -9.9540    5.0319   -9.0497 C.ar      1 <0>        -0.1624
      3 C3         -8.9548    4.8961   -8.1042 C.ar      1 <0>         0.1040
      4 N1         -7.7525    4.4784   -8.4455 N.ar      1 <0>        -0.4563
      5 C4         -7.4501    4.1828   -9.7032 C.ar      1 <0>         0.1901
      6 C5         -8.4095    4.2969  -10.7079 C.ar      1 <0>        -0.1395
      7 C6         -6.0825    3.7217  -10.0415 C.2       1 <0>         0.1398
      8 C7         -4.9000    4.0069   -9.3121 C.2       1 <0>        -0.1822
      9 C8         -3.8641    3.4016   -9.9594 C.2       1 <0>         0.0819
     10 N2         -4.3661    2.7617  -11.0345 N.pl3     1 <0>        -0.4628
     11 H1         -3.8395    2.2254  -11.6941 H         1 <0>         0.4547
     12 N3         -5.7492    2.9748  -11.0714 N.2       1 <0>        -0.2689
     13 C9         -4.8067    4.8197   -8.0756 C.ar      1 <0>         0.0622
     14 C10        -5.3941    6.0876   -8.0041 C.ar      1 <0>        -0.1353
     15 C11        -5.2869    6.8150   -6.8361 C.ar      1 <0>         0.1082
     16 N4         -4.6462    6.3311   -5.7908 N.ar      1 <0>        -0.4773
     17 C12        -4.0684    5.1361   -5.8135 C.ar      1 <0>         0.1595
     18 C13        -4.1306    4.3398   -6.9522 C.ar      1 <0>        -0.1501
     19 C14        -3.3546    4.6428   -4.6107 C.ar      1 <0>        -0.0149
     20 C15        -3.2883    5.4361   -3.4654 C.ar      1 <0>        -0.0881
     21 C16        -2.6258    4.9790   -2.3481 C.ar      1 <0>        -0.0614
     22 C17        -2.0201    3.7204   -2.3619 C.ar      1 <0>        -0.1312
     23 C18        -2.0826    2.9291   -3.5112 C.ar      1 <0>        -0.0881
     24 C19        -2.7497    3.3860   -4.6258 C.ar      1 <0>        -0.1110
     25 C20        -1.3085    3.2291   -1.1636 C.2       1 <0>         0.5603
     26 O1         -1.2500    3.9203   -0.1653 O.2       1 <0>        -0.5325
     27 N5         -0.7242    2.0146   -1.1775 N.am      1 <0>        -0.7230
     28 C21        -0.0187    1.5275    0.0104 C.3       1 <0>         0.1438
     29 C22         1.4223    2.0468   -0.0005 C.3       1 <0>        -0.1672
     30 C23         2.1738    1.4693    1.2018 C.3       1 <0>         0.0627
     31 O2          2.1285    0.0420    1.1493 O.3       1 <0>        -0.3812
     32 C24         0.8084   -0.5023    1.2042 C.3       1 <0>         0.0640
     33 C25         0.0021   -0.0041    0.0020 C.3       1 <0>        -0.1645
     34 H2        -10.4460    4.8268  -11.1333 H         1 <0>         0.1396
     35 H3        -10.9371    5.3714   -8.7588 H         1 <0>         0.1390
     36 H4         -9.1636    5.1313   -7.0710 H         1 <0>         0.1603
     37 H5         -8.1632    4.0524  -11.7306 H         1 <0>         0.1397
     38 H6         -2.8261    3.4280   -9.6623 H         1 <0>         0.1863
     39 H7         -5.9250    6.4924   -8.8530 H         1 <0>         0.1255
     40 H8         -5.7390    7.7939   -6.7761 H         1 <0>         0.1566
     41 H9         -3.6634    3.3662   -6.9672 H         1 <0>         0.1339
     42 H10        -3.7564    6.4093   -3.4550 H         1 <0>         0.1440
     43 H11        -2.5749    5.5932   -1.4612 H         1 <0>         0.1398
     44 H12        -1.6112    1.9575   -3.5243 H         1 <0>         0.1276
     45 H13        -2.8014    2.7727   -5.5132 H         1 <0>         0.1327
     46 H14        -0.7708    1.4631   -1.9741 H         1 <0>         0.4002
     47 H15        -0.5266    1.8804    0.9080 H         1 <0>         0.0922
     48 H16         1.9148    1.7353   -0.9217 H         1 <0>         0.0745
     49 H17         1.4178    3.1351    0.0612 H         1 <0>         0.0807
     50 H18         1.7049    1.8143    2.1234 H         1 <0>         0.0549
     51 H19         3.2116    1.8013    1.1754 H         1 <0>         0.0988
     52 H20         0.3216   -0.1832    2.1258 H         1 <0>         0.0551
     53 H21         0.8624   -1.5907    1.1798 H         1 <0>         0.1004
     54 H22        -1.0181   -0.3825    0.0655 H         1 <0>         0.0819
     55 H23         0.4658   -0.3570   -0.9191 H         1 <0>         0.0786
@<TRIPOS>BOND
     1    1    6 ar
     2    1    2 ar
     3    1   34 1
     4    2    3 ar
     5    2   35 1
     6    3    4 ar
     7    3   36 1
     8    4    5 ar
     9    5    6 ar
    10    5    7 1
    11    6   37 1
    12    7   12 2
    13    7    8 1
    14    8    9 2
    15    8   13 1
    16    9   10 1
    17    9   38 1
    18   10   11 1
    19   10   12 1
    20   13   18 ar
    21   13   14 ar
    22   14   15 ar
    23   14   39 1
    24   15   16 ar
    25   15   40 1
    26   16   17 ar
    27   17   18 ar
    28   17   19 1
    29   18   41 1
    30   19   24 ar
    31   19   20 ar
    32   20   21 ar
    33   20   42 1
    34   21   22 ar
    35   21   43 1
    36   22   23 ar
    37   22   25 1
    38   23   24 ar
    39   23   44 1
    40   24   45 1
    41   25   26 2
    42   25   27 am
    43   27   28 1
    44   27   46 1
    45   28   33 1
    46   28   29 1
    47   28   47 1
    48   29   30 1
    49   29   48 1
    50   29   49 1
    51   30   31 1
    52   30   50 1
    53   30   51 1
    54   31   32 1
    55   32   33 1
    56   32   52 1
    57   32   53 1
    58   33   54 1
    59   33   55 1
@<TRIPOS>MOLECULE
ZINC12365464
   33    35     0     0     0
SMALL
USER_CHARGES
(5-amino-1-phenyl-pyrazol-4-yl)-phenyl-methanone
@<TRIPOS>ATOM
      1 C1          1.0023   10.6386   -0.3987 C.ar      1 <0>        -0.0956
      2 C2          1.6812   10.5089    0.8000 C.ar      1 <0>        -0.1280
      3 C3          2.1208    9.2694    1.2165 C.ar      1 <0>        -0.0682
      4 C4          1.8789    8.1447    0.4261 C.ar      1 <0>        -0.1441
      5 C5          1.1977    8.2832   -0.7844 C.ar      1 <0>        -0.0880
      6 C6          0.7597    9.5278   -1.1872 C.ar      1 <0>        -0.1285
      7 C7          2.3479    6.8127    0.8662 C.2       1 <0>         0.4799
      8 O1          3.3254    6.7187    1.5851 O.2       1 <0>        -0.4882
      9 C8          1.6351    5.6057    0.4365 C.2       1 <0>        -0.3860
     10 C9          0.4244    5.5575   -0.2962 C.2       1 <0>         0.1233
     11 N1          0.1141    4.3070   -0.4894 N.2       1 <0>        -0.2935
     12 N2          1.0834    3.4926    0.1055 N.pl3     1 <0>        -0.3490
     13 C10         2.0205    4.2851    0.6716 C.2       1 <0>         0.4434
     14 N3          3.1442    3.8679    1.3523 N.pl3     1 <0>        -0.8237
     15 C11         1.0856    2.0913    0.1088 C.ar      1 <0>         0.1517
     16 C12        -0.1123    1.3939    0.1904 C.ar      1 <0>        -0.1071
     17 C13        -0.1069    0.0128    0.1929 C.ar      1 <0>        -0.0947
     18 C14         1.0899   -0.6755    0.1143 C.ar      1 <0>        -0.1205
     19 C15         2.2846    0.0162    0.0334 C.ar      1 <0>        -0.0920
     20 C16         2.2857    1.3973    0.0304 C.ar      1 <0>        -0.1485
     21 H1          0.6605   11.6113   -0.7204 H         1 <0>         0.1267
     22 H2          1.8676   11.3799    1.4106 H         1 <0>         0.1285
     23 H3          2.6512    9.1696    2.1520 H         1 <0>         0.1307
     24 H4          1.0114    7.4176   -1.4027 H         1 <0>         0.1349
     25 H5          0.2298    9.6359   -2.1221 H         1 <0>         0.1295
     26 H6         -0.1418    6.4105   -0.6401 H         1 <0>         0.2010
     27 H7          3.3216    2.9205    1.4610 H         1 <0>         0.4052
     28 H8          3.7575    4.5218    1.7226 H         1 <0>         0.4311
     29 H9         -1.0476    1.9309    0.2473 H         1 <0>         0.1371
     30 H10        -1.0383   -0.5302    0.2560 H         1 <0>         0.1356
     31 H11         1.0916   -1.7555    0.1165 H         1 <0>         0.1324
     32 H12         3.2177   -0.5242   -0.0271 H         1 <0>         0.1357
     33 H13         3.2191    1.9370   -0.0324 H         1 <0>         0.1288
@<TRIPOS>BOND
     1    1    6 ar
     2    1    2 ar
     3    1   21 1
     4    2    3 ar
     5    2   22 1
     6    3    4 ar
     7    3   23 1
     8    4    5 ar
     9    4    7 1
    10    5    6 ar
    11    5   24 1
    12    6   25 1
    13    7    8 2
    14    7    9 1
    15    9   13 2
    16    9   10 1
    17   10   11 2
    18   10   26 1
    19   11   12 1
    20   12   13 1
    21   12   15 1
    22   13   14 1
    23   14   27 1
    24   14   28 1
    25   15   20 ar
    26   15   16 ar
    27   16   17 ar
    28   16   29 1
    29   17   18 ar
    30   17   30 1
    31   18   19 ar
    32   18   31 1
    33   19   20 ar
    34   19   32 1
    35   20   33 1
@<TRIPOS>MOLECULE
ZINC13683103
   45    47     0     0     0
SMALL
USER_CHARGES
[5-amino-1-(4-fluorophenyl)pyrazol-4-yl]-[3-[(2R)-2,3-dihydroxypropoxy]phenyl]methanone
@<TRIPOS>ATOM
      1 C1          1.9480    7.8126    1.0338 C.ar      1 <0>        -0.0857
      2 C2          3.2519    8.2544    0.9387 C.ar      1 <0>        -0.1244
      3 C3          4.2936    7.3326    0.8227 C.ar      1 <0>        -0.1022
      4 C4          4.0107    5.9664    0.8033 C.ar      1 <0>        -0.0982
      5 C5          2.6990    5.5341    0.8993 C.ar      1 <0>         0.1226
      6 C6          1.6688    6.4587    1.0091 C.ar      1 <0>        -0.1877
      7 O1          2.4190    4.2043    0.8803 O.3       1 <0>        -0.2995
      8 C7          1.0439    3.8293    0.9834 C.3       1 <0>         0.0297
      9 C8          0.9269    2.3043    0.9447 C.3       1 <0>         0.1090
     10 H1          1.5549    1.8718    1.7235 H         1 <0>         0.1175
     11 C9         -0.5294    1.8984    1.1798 C.3       1 <0>         0.0490
     12 O2         -0.6201    0.4746    1.2596 O.3       1 <0>        -0.5601
     13 O3          1.3544    1.8261   -0.3323 O.3       1 <0>        -0.5409
     14 C10         5.6925    7.8025    0.7201 C.2       1 <0>         0.4810
     15 O4          6.6001    7.1067    1.1362 O.2       1 <0>        -0.4812
     16 C11         5.9855    9.1063    0.1172 C.2       1 <0>        -0.3833
     17 C12         5.0602    9.9666   -0.5220 C.2       1 <0>         0.1275
     18 N1          5.7000   11.0287   -0.9221 N.2       1 <0>        -0.2931
     19 N2          7.0511   10.9114   -0.5793 N.pl3     1 <0>        -0.3496
     20 C13         7.2309    9.7337    0.0584 C.2       1 <0>         0.4448
     21 N3          8.4195    9.2446    0.5571 N.pl3     1 <0>        -0.8231
     22 C14         8.0504   11.8563   -0.8518 C.ar      1 <0>         0.1432
     23 C15         9.0831   12.0569    0.0543 C.ar      1 <0>        -0.1188
     24 C16        10.0692   12.9846   -0.2183 C.ar      1 <0>        -0.1253
     25 C17        10.0229   13.7218   -1.3897 C.ar      1 <0>         0.1004
     26 C18         8.9908   13.5269   -2.2922 C.ar      1 <0>        -0.1281
     27 C19         8.0055   12.5967   -2.0255 C.ar      1 <0>        -0.0766
     28 F1         10.9856   14.6326   -1.6521 F         1 <0>        -0.1313
     29 H2          1.1429    8.5267    1.1235 H         1 <0>         0.1333
     30 H3          3.4663    9.3128    0.9545 H         1 <0>         0.1375
     31 H4          4.8125    5.2485    0.7134 H         1 <0>         0.1405
     32 H5          0.6461    6.1189    1.0797 H         1 <0>         0.1302
     33 H6          0.4870    4.2578    0.1501 H         1 <0>         0.0699
     34 H7          0.6354    4.2013    1.9230 H         1 <0>         0.0754
     35 H8         -1.1442    2.2559    0.3537 H         1 <0>         0.0536
     36 H9         -0.8830    2.3379    2.1125 H         1 <0>         0.0592
     37 H10        -1.5171    0.1453    1.4082 H         1 <0>         0.3845
     38 H11         0.8388    2.1708   -1.0742 H         1 <0>         0.3735
     39 H12         4.0051    9.7764   -0.6529 H         1 <0>         0.2022
     40 H13         8.4410    8.3824    1.0009 H         1 <0>         0.4324
     41 H14         9.2342    9.7627    0.4641 H         1 <0>         0.4051
     42 H15         9.1171   11.4853    0.9700 H         1 <0>         0.1397
     43 H16        10.8747   13.1383    0.4846 H         1 <0>         0.1495
     44 H17         8.9562   14.1030   -3.2050 H         1 <0>         0.1493
     45 H18         7.2004   12.4455   -2.7292 H         1 <0>         0.1485
@<TRIPOS>BOND
     1    1    6 ar
     2    1    2 ar
     3    1   29 1
     4    2    3 ar
     5    2   30 1
     6    3    4 ar
     7    3   14 1
     8    4    5 ar
     9    4   31 1
    10    5    6 ar
    11    5    7 1
    12    6   32 1
    13    7    8 1
    14    8    9 1
    15    8   33 1
    16    8   34 1
    17    9   10 1
    18    9   11 1
    19    9   13 1
    20   11   12 1
    21   11   35 1
    22   11   36 1
    23   12   37 1
    24   13   38 1
    25   14   15 2
    26   14   16 1
    27   16   20 2
    28   16   17 1
    29   17   18 2
    30   17   39 1
    31   18   19 1
    32   19   20 1
    33   19   22 1
    34   20   21 1
    35   21   40 1
    36   21   41 1
    37   22   27 ar
    38   22   23 ar
    39   23   24 ar
    40   23   42 1
    41   24   25 ar
    42   24   43 1
    43   25   26 ar
    44   25   28 1
    45   26   27 ar
    46   26   44 1
    47   27   45 1
@<TRIPOS>MOLECULE
ZINC34802946
   67    71     0     0     0
SMALL
USER_CHARGES

@<TRIPOS>ATOM
      1 C1         -0.0483    1.5024    0.0098 C.3       1 <0>        -0.1268
      2 C2         -0.0195   -0.0043    0.0016 C.ar      1 <0>        -0.0386
      3 C3         -0.0178   -0.6868   -1.1996 C.ar      1 <0>        -0.1235
      4 C4          0.0085   -2.0667   -1.2158 C.ar      1 <0>        -0.0785
      5 C5          0.0330   -2.7811   -0.0158 C.ar      1 <0>        -0.1428
      6 C6          0.0314   -2.0969    1.1984 C.ar      1 <0>        -0.0380
      7 C7          0.0111   -0.7058    1.2063 C.ar      1 <0>        -0.0517
      8 C8          0.0158    0.0300    2.4946 C.ar      1 <0>        -0.0766
      9 C9          0.9293    1.0770    2.6951 C.ar      1 <0>        -0.0509
     10 C10         0.9551    1.7681    3.8654 C.ar      1 <0>        -0.1204
     11 C11         0.0589    1.4368    4.8939 C.ar      1 <0>         0.2183
     12 C12        -0.8687    0.3799    4.7012 C.ar      1 <0>        -0.2144
     13 C13        -0.8839   -0.3174    3.4865 C.ar      1 <0>        -0.0354
     14 C14        -1.7564    0.0690    5.7490 C.ar      1 <0>         0.2451
     15 N1         -1.6869    0.7718    6.8601 N.ar      1 <0>        -0.5576
     16 C15        -0.8035    1.7573    7.0067 C.ar      1 <0>         0.5740
     17 N2          0.0519    2.0930    6.0606 N.ar      1 <0>        -0.5737
     18 N3         -0.7822    2.4573    8.1995 N.pl3     1 <0>        -0.6964
     19 C16        -1.7195    2.1088    9.2701 C.3       1 <0>         0.1398
     20 C17        -1.4872    3.0285   10.4706 C.3       1 <0>         0.0428
     21 N4         -2.4271    2.6791   11.5442 N.3       1 <0>        -0.5321
     22 C18        -3.8120    2.9741   11.1487 C.3       1 <0>         0.0117
     23 C19        -4.7604    2.5406   12.2697 C.3       1 <0>         0.0630
     24 O1         -4.3910    3.2025   13.4824 O.3       1 <0>        -0.3850
     25 C20        -3.0483    2.9369   13.8974 C.3       1 <0>         0.0630
     26 C21        -2.0826    3.3743   12.7929 C.3       1 <0>         0.0183
     27 C22         0.0602   -4.2590   -0.0337 C.2       1 <0>         0.5622
     28 O2          0.0816   -4.8792    1.0117 O.2       1 <0>        -0.5109
     29 N5          0.0613   -4.9189   -1.2088 N.am      1 <0>        -0.6699
     30 C23         0.1847   -6.3117   -1.2285 C.ar      1 <0>         0.1443
     31 C24         0.8894   -6.9337   -2.2514 C.ar      1 <0>        -0.1118
     32 C25         1.0099   -8.3092   -2.2677 C.ar      1 <0>        -0.0994
     33 C26         0.4298   -9.0675   -1.2671 C.ar      1 <0>        -0.0865
     34 C27        -0.2722   -8.4516   -0.2475 C.ar      1 <0>        -0.1641
     35 C28        -0.3920   -7.0758   -0.2225 C.ar      1 <0>        -0.0722
     36 C29        -0.9025   -9.2820    0.8407 C.3       1 <0>         0.5092
     37 F1         -0.6426  -10.6360    0.6040 F         1 <0>        -0.1761
     38 F2         -0.3653   -8.9135    2.0788 F         1 <0>        -0.1725
     39 F3         -2.2849   -9.0671    0.8497 F         1 <0>        -0.1757
     40 H1          0.9721    1.8854   -0.0029 H         1 <0>         0.0793
     41 H2         -0.5817    1.8604   -0.8708 H         1 <0>         0.0726
     42 H3         -0.5562    1.8513    0.9089 H         1 <0>         0.0756
     43 H4         -0.0375   -0.1384   -2.1297 H         1 <0>         0.1346
     44 H5          0.0097   -2.5949   -2.1579 H         1 <0>         0.1271
     45 H6          0.0504   -2.6442    2.1292 H         1 <0>         0.1408
     46 H7          1.6219    1.3369    1.9082 H         1 <0>         0.1341
     47 H8          1.6644    2.5707    4.0039 H         1 <0>         0.1396
     48 H9         -1.5883   -1.1204    3.3272 H         1 <0>         0.1367
     49 H10        -2.4780   -0.7275    5.6434 H         1 <0>         0.1790
     50 H11        -0.1467    3.1789    8.3270 H         1 <0>         0.4144
     51 H12        -2.7417    2.2301    8.9119 H         1 <0>         0.0688
     52 H13        -1.5600    1.0730    9.5698 H         1 <0>         0.0789
     53 H14        -0.4650    2.9072   10.8288 H         1 <0>         0.0845
     54 H15        -1.6467    4.0643   10.1709 H         1 <0>         0.0436
     55 H16        -3.9204    4.0444   10.9738 H         1 <0>         0.0453
     56 H17        -4.0538    2.4291   10.2363 H         1 <0>         0.0911
     57 H18        -5.7831    2.8094   12.0054 H         1 <0>         0.1000
     58 H19        -4.6911    1.4617   12.4082 H         1 <0>         0.0622
     59 H20        -2.8329    3.4922   14.8102 H         1 <0>         0.1003
     60 H21        -2.9293    1.8694   14.0832 H         1 <0>         0.0619
     61 H22        -1.0621    3.1215   13.0806 H         1 <0>         0.0888
     62 H23        -2.1634    4.4511   12.6442 H         1 <0>         0.0455
     63 H24        -0.0236   -4.4277   -2.0409 H         1 <0>         0.4141
     64 H25         1.3423   -6.3421   -3.0333 H         1 <0>         0.1370
     65 H26         1.5573   -8.7933   -3.0629 H         1 <0>         0.1416
     66 H27         0.5252  -10.1432   -1.2823 H         1 <0>         0.1414
     67 H28        -0.9370   -6.5950    0.5764 H         1 <0>         0.1510
@<TRIPOS>BOND
     1    1    2 1
     2    1   40 1
     3    1   41 1
     4    1   42 1
     5    2    7 ar
     6    2    3 ar
     7    3    4 ar
     8    3   43 1
     9    4    5 ar
    10    4   44 1
    11    5    6 ar
    12    5   27 1
    13    6    7 ar
    14    6   45 1
    15    7    8 1
    16    8   13 ar
    17    8    9 ar
    18    9   10 ar
    19    9   46 1
    20   10   11 ar
    21   10   47 1
    22   11   17 ar
    23   11   12 ar
    24   12   13 ar
    25   12   14 ar
    26   13   48 1
    27   14   15 ar
    28   14   49 1
    29   15   16 ar
    30   16   17 ar
    31   16   18 1
    32   18   19 1
    33   18   50 1
    34   19   20 1
    35   19   51 1
    36   19   52 1
    37   20   21 1
    38   20   53 1
    39   20   54 1
    40   21   26 1
    41   21   22 1
    42   22   23 1
    43   22   55 1
    44   22   56 1
    45   23   24 1
    46   23   57 1
    47   23   58 1
    48   24   25 1
    49   25   26 1
    50   25   59 1
    51   25   60 1
    52   26   61 1
    53   26   62 1
    54   27   28 2
    55   27   29 am
    56   29   30 1
    57   29   63 1
    58   30   35 ar
    59   30   31 ar
    60   31   32 ar
    61   31   64 1
    62   32   33 ar
    63   32   65 1
    64   33   34 ar
    65   33   66 1
    66   34   35 ar
    67   34   36 1
    68   35   67 1
    69   36   37 1
    70   36   38 1
    71   36   39 1
@<TRIPOS>MOLECULE
ZINC34802946
   68    72     0     0     0
SMALL
USER_CHARGES

@<TRIPOS>ATOM
      1 C1         -0.0483    1.5024    0.0098 C.3       1 <0>        -0.1276
      2 C2         -0.0195   -0.0043    0.0016 C.ar      1 <0>        -0.0366
      3 C3         -0.0178   -0.6868   -1.1996 C.ar      1 <0>        -0.1221
      4 C4          0.0085   -2.0667   -1.2158 C.ar      1 <0>        -0.0731
      5 C5          0.0330   -2.7811   -0.0158 C.ar      1 <0>        -0.1410
      6 C6          0.0314   -2.0969    1.1984 C.ar      1 <0>        -0.0362
      7 C7          0.0111   -0.7058    1.2063 C.ar      1 <0>        -0.0635
      8 C8          0.0158    0.0300    2.4946 C.ar      1 <0>        -0.0553
      9 C9          0.9293    1.0770    2.6951 C.ar      1 <0>        -0.0467
     10 C10         0.9551    1.7681    3.8654 C.ar      1 <0>        -0.1170
     11 C11         0.0589    1.4368    4.8939 C.ar      1 <0>         0.2111
     12 C12        -0.8687    0.3799    4.7012 C.ar      1 <0>        -0.2001
     13 C13        -0.8839   -0.3174    3.4865 C.ar      1 <0>        -0.0453
     14 C14        -1.7564    0.0690    5.7490 C.ar      1 <0>         0.2479
     15 N1         -1.6869    0.7718    6.8601 N.ar      1 <0>        -0.5684
     16 C15        -0.8035    1.7573    7.0067 C.ar      1 <0>         0.5623
     17 N2          0.0519    2.0930    6.0606 N.ar      1 <0>        -0.5576
     18 N3         -0.7822    2.4573    8.1995 N.pl3     1 <0>        -0.7040
     19 C16        -1.7195    2.1088    9.2701 C.3       1 <0>         0.1188
     20 C17        -1.4872    3.0285   10.4706 C.3       1 <0>        -0.0230
     21 N4         -2.4271    2.6791   11.5442 N.4       1 <0>        -0.3805
     22 C18        -3.8007    2.9572   11.1027 C.3       1 <0>        -0.0511
     23 C19        -4.7779    2.5921   12.2228 C.3       1 <0>         0.0367
     24 O1         -4.4442    3.3332   13.3998 O.3       1 <0>        -0.3561
     25 C20        -3.1064    3.1140   13.8559 C.3       1 <0>         0.0359
     26 C21        -2.1261    3.4800   12.7388 C.3       1 <0>        -0.0426
     27 C22         0.0602   -4.2590   -0.0337 C.2       1 <0>         0.5618
     28 O2          0.0816   -4.8792    1.0117 O.2       1 <0>        -0.5123
     29 N5          0.0613   -4.9189   -1.2088 N.am      1 <0>        -0.6683
     30 C23         0.1847   -6.3117   -1.2285 C.ar      1 <0>         0.1414
     31 C24         0.8894   -6.9337   -2.2514 C.ar      1 <0>        -0.1102
     32 C25         1.0099   -8.3092   -2.2677 C.ar      1 <0>        -0.0984
     33 C26         0.4298   -9.0675   -1.2671 C.ar      1 <0>        -0.0844
     34 C27        -0.2722   -8.4516   -0.2475 C.ar      1 <0>        -0.1647
     35 C28        -0.3920   -7.0758   -0.2225 C.ar      1 <0>        -0.0721
     36 C29        -0.9025   -9.2820    0.8407 C.3       1 <0>         0.5095
     37 F1         -0.6426  -10.6360    0.6040 F         1 <0>        -0.1749
     38 F2         -0.3653   -8.9135    2.0788 F         1 <0>        -0.1737
     39 F3         -2.2849   -9.0671    0.8497 F         1 <0>        -0.1759
     40 H1          0.9721    1.8854   -0.0029 H         1 <0>         0.0806
     41 H2         -0.5817    1.8604   -0.8708 H         1 <0>         0.0754
     42 H3         -0.5562    1.8513    0.9089 H         1 <0>         0.0730
     43 H4         -0.0375   -0.1384   -2.1297 H         1 <0>         0.1371
     44 H5          0.0097   -2.5949   -2.1579 H         1 <0>         0.1298
     45 H6          0.0504   -2.6442    2.1292 H         1 <0>         0.1405
     46 H7          1.6219    1.3369    1.9082 H         1 <0>         0.1398
     47 H8          1.6644    2.5707    4.0039 H         1 <0>         0.1435
     48 H9         -1.5883   -1.1204    3.3272 H         1 <0>         0.1410
     49 H10        -2.4780   -0.7275    5.6434 H         1 <0>         0.1829
     50 H11        -0.1467    3.1789    8.3270 H         1 <0>         0.4205
     51 H12        -2.7417    2.2301    8.9119 H         1 <0>         0.0871
     52 H13        -1.5600    1.0730    9.5698 H         1 <0>         0.0876
     53 H14        -0.4650    2.9072   10.8288 H         1 <0>         0.1408
     54 H15        -1.6467    4.0643   10.1709 H         1 <0>         0.1388
     55 H16        -3.8989    4.0165   10.8654 H         1 <0>         0.1412
     56 H17        -4.0250    2.3635   10.2165 H         1 <0>         0.1457
     57 H18        -5.7940    2.8378   11.9139 H         1 <0>         0.1434
     58 H19        -4.7086    1.5248   12.4329 H         1 <0>         0.0831
     59 H20        -2.9127    3.7373   14.7289 H         1 <0>         0.1435
     60 H21        -2.9799    2.0645   14.1218 H         1 <0>         0.0826
     61 H22        -1.1073    3.2744   13.0672 H         1 <0>         0.1445
     62 H23        -2.2249    4.5391   12.5009 H         1 <0>         0.1407
     63 H24        -0.0236   -4.4277   -2.0409 H         1 <0>         0.4145
     64 H25         1.3423   -6.3421   -3.0333 H         1 <0>         0.1377
     65 H26         1.5573   -8.7933   -3.0629 H         1 <0>         0.1430
     66 H27         0.5252  -10.1432   -1.2823 H         1 <0>         0.1425
     67 H28        -0.9370   -6.5950    0.5764 H         1 <0>         0.1500
     68 H29        -2.3364    1.6987   11.7648 H         1 <0>         0.4260
@<TRIPOS>BOND
     1    1    2 1
     2    1   40 1
     3    1   41 1
     4    1   42 1
     5    2    7 ar
     6    2    3 ar
     7    3    4 ar
     8    3   43 1
     9    4    5 ar
    10    4   44 1
    11    5    6 ar
    12    5   27 1
    13    6    7 ar
    14    6   45 1
    15    7    8 1
    16    8   13 ar
    17    8    9 ar
    18    9   10 ar
    19    9   46 1
    20   10   11 ar
    21   10   47 1
    22   11   17 ar
    23   11   12 ar
    24   12   13 ar
    25   12   14 ar
    26   13   48 1
    27   14   15 ar
    28   14   49 1
    29   15   16 ar
    30   16   17 ar
    31   16   18 1
    32   18   19 1
    33   18   50 1
    34   19   20 1
    35   19   51 1
    36   19   52 1
    37   20   21 1
    38   20   53 1
    39   20   54 1
    40   21   26 1
    41   21   22 1
    42   21   68 1
    43   22   23 1
    44   22   55 1
    45   22   56 1
    46   23   24 1
    47   23   57 1
    48   23   58 1
    49   24   25 1
    50   25   26 1
    51   25   59 1
    52   25   60 1
    53   26   61 1
    54   26   62 1
    55   27   28 2
    56   27   29 am
    57   29   30 1
    58   29   63 1
    59   30   35 ar
    60   30   31 ar
    61   31   32 ar
    62   31   64 1
    63   32   33 ar
    64   32   65 1
    65   33   34 ar
    66   33   66 1
    67   34   35 ar
    68   34   36 1
    69   35   67 1
    70   36   37 1
    71   36   38 1
    72   36   39 1
@<TRIPOS>MOLECULE
ZINC06718471
   50    52     0     0     0
SMALL
USER_CHARGES
N-ethyl-5-[5-(methoxycarbamoyl)-2-methyl-phenyl]amino-7-methyl-1,2,4-triazabicyclo[4.3.0]nona-2,4,6,8-tetraene-8-carboxamide
@<TRIPOS>ATOM
      1 C1          5.2139    4.2230   -1.3766 C.3       1 <0>        -0.1672
      2 C2          3.6861    4.3027   -1.3567 C.3       1 <0>         0.1153
      3 N1          3.1336    2.9957   -0.9920 N.am      1 <0>        -0.7293
      4 C3          1.7989    2.8271   -0.9108 C.2       1 <0>         0.5946
      5 O1          1.0532    3.7598   -1.1404 O.2       1 <0>        -0.5343
      6 C4          1.2429    1.5115   -0.5437 C.2       1 <0>        -0.2092
      7 C5          1.9655    0.3648   -0.2568 C.2       1 <0>         0.1034
      8 N2          1.1079   -0.6246    0.0309 N.pl3     1 <0>        -0.2279
      9 C6         -0.1849   -0.1420   -0.0631 C.2       1 <0>        -0.1167
     10 C7         -0.1234    1.1859   -0.4197 C.2       1 <0>        -0.0204
     11 C8         -1.2916    2.1119   -0.6413 C.3       1 <0>        -0.1055
     12 C9         -1.2579   -1.0290    0.2030 C.2       1 <0>         0.5307
     13 N3         -0.9926   -2.2821    0.5307 N.2       1 <0>        -0.6098
     14 C10         0.2583   -2.7315    0.6170 C.2       1 <0>         0.3438
     15 N4          1.2910   -1.9696    0.3854 N.2       1 <0>        -0.3556
     16 N5         -2.5637   -0.5901    0.1206 N.pl3     1 <0>        -0.6215
     17 C11        -3.6168   -1.4991    0.2598 C.ar      1 <0>         0.1388
     18 C12        -3.4510   -2.8182   -0.1347 C.ar      1 <0>        -0.0419
     19 C13        -4.5046   -3.7208    0.0063 C.ar      1 <0>        -0.1133
     20 C14        -5.7192   -3.2904    0.5437 C.ar      1 <0>        -0.0960
     21 C15        -5.8742   -1.9758    0.9333 C.ar      1 <0>        -0.1047
     22 C16        -4.8280   -1.0822    0.7989 C.ar      1 <0>        -0.0786
     23 C17        -5.0036    0.3504    1.2326 C.3       1 <0>        -0.1258
     24 C18        -4.3358   -5.1291   -0.4116 C.2       1 <0>         0.5732
     25 O2         -3.2773   -5.5017   -0.8788 O.2       1 <0>        -0.5105
     26 N6         -5.3555   -5.9995   -0.2743 N.am      1 <0>        -0.5979
     27 O3         -5.1938   -7.3482   -0.6744 O.3       1 <0>        -0.1416
     28 C19        -6.3541   -8.1575   -0.4722 C.3       1 <0>        -0.0021
     29 H1          5.5757    3.9385   -0.3886 H         1 <0>         0.0624
     30 H2          5.5294    3.4784   -2.1074 H         1 <0>         0.0625
     31 H3          5.6249    5.1954   -1.6479 H         1 <0>         0.0758
     32 H4          3.3242    4.5872   -2.3447 H         1 <0>         0.0695
     33 H5          3.3705    5.0473   -0.6258 H         1 <0>         0.0695
     34 H6          3.7285    2.2517   -0.8089 H         1 <0>         0.3994
     35 H7          3.0423    0.2816   -0.2640 H         1 <0>         0.1864
     36 H8         -1.6252    2.5115    0.3163 H         1 <0>         0.0800
     37 H9         -0.9867    2.9323   -1.2910 H         1 <0>         0.1039
     38 H10        -2.1077    1.5616   -1.1096 H         1 <0>         0.0603
     39 H11         0.4232   -3.7639    0.8881 H         1 <0>         0.2239
     40 H12        -2.7509    0.3490   -0.0340 H         1 <0>         0.4267
     41 H13        -2.5090   -3.1454   -0.5494 H         1 <0>         0.1605
     42 H14        -6.5376   -3.9864    0.6541 H         1 <0>         0.1275
     43 H15        -6.8146   -1.6450    1.3487 H         1 <0>         0.1383
     44 H16        -5.3807    0.9395    0.3967 H         1 <0>         0.0805
     45 H17        -5.7136    0.3955    2.0584 H         1 <0>         0.0807
     46 H18        -4.0436    0.7522    1.5566 H         1 <0>         0.0661
     47 H19        -6.2002   -5.7022    0.0986 H         1 <0>         0.4061
     48 H20        -7.1862   -7.7494   -1.0458 H         1 <0>         0.0574
     49 H21        -6.1491   -9.1756   -0.8034 H         1 <0>         0.1148
     50 H22        -6.6118   -8.1649    0.5869 H         1 <0>         0.0576
@<TRIPOS>BOND
     1    1    2 1
     2    1   29 1
     3    1   30 1
     4    1   31 1
     5    2    3 1
     6    2   32 1
     7    2   33 1
     8    3    4 am
     9    3   34 1
    10    4    5 2
    11    4    6 1
    12    6   10 1
    13    6    7 2
    14    7    8 1
    15    7   35 1
    16    8   15 1
    17    8    9 1
    18    9   10 2
    19    9   12 1
    20   10   11 1
    21   11   36 1
    22   11   37 1
    23   11   38 1
    24   12   13 2
    25   12   16 1
    26   13   14 1
    27   14   15 2
    28   14   39 1
    29   16   17 1
    30   16   40 1
    31   17   22 ar
    32   17   18 ar
    33   18   19 ar
    34   18   41 1
    35   19   20 ar
    36   19   24 1
    37   20   21 ar
    38   20   42 1
    39   21   22 ar
    40   21   43 1
    41   22   23 1
    42   23   44 1
    43   23   45 1
    44   23   46 1
    45   24   25 2
    46   24   26 am
    47   26   27 1
    48   26   47 1
    49   27   28 1
    50   28   48 1
    51   28   49 1
    52   28   50 1
@<TRIPOS>MOLECULE
ZINC29130833
   48    51     0     0     0
SMALL
USER_CHARGES

@<TRIPOS>ATOM
      1 C1         -0.0184    1.5028    0.0103 C.3       1 <0>        -0.1240
      2 C2          0.0021   -0.0041    0.0020 C.ar      1 <0>        -0.0494
      3 C3          0.0058   -0.6868   -1.1984 C.ar      1 <0>        -0.1232
      4 C4          0.0245   -2.0675   -1.2136 C.ar      1 <0>        -0.0639
      5 C5          0.0402   -2.7806   -0.0155 C.ar      1 <0>        -0.0223
      6 C6          0.0370   -2.0987    1.1969 C.ar      1 <0>        -0.0620
      7 C7          0.0231   -0.7065    1.2064 C.ar      1 <0>        -0.0641
      8 C8          0.0253    0.0277    2.4948 C.ar      1 <0>        -0.0130
      9 C9          0.9352    1.0640    2.7049 C.ar      1 <0>        -0.1120
     10 C10         0.9382    1.7463    3.9006 C.ar      1 <0>        -0.0566
     11 C11         0.0292    1.4008    4.9036 C.ar      1 <0>        -0.1355
     12 C12        -0.8820    0.3632    4.6920 C.ar      1 <0>        -0.0834
     13 C13        -0.8864   -0.3146    3.4937 C.ar      1 <0>        -0.1132
     14 C14         0.0317    2.1319    6.1872 C.2       1 <0>         0.5583
     15 O1          0.8251    3.0345    6.3711 O.2       1 <0>        -0.5352
     16 N1         -0.8455    1.7983    7.1545 N.am      1 <0>        -0.7247
     17 C15        -0.8429    2.5233    8.4275 C.3       1 <0>         0.1503
     18 C16        -1.9276    1.9512    9.3425 C.3       1 <0>        -0.1746
     19 C17        -3.0769    2.8790    9.7415 C.3       1 <0>        -0.1761
     20 C18        -2.0092    2.4980   10.7691 C.3       1 <0>        -0.1686
     21 C19         0.0598   -4.2645   -0.0337 C.2       1 <0>         0.2723
     22 N2          0.0642   -5.0319   -1.1319 N.2       1 <0>        -0.5323
     23 H1          0.1057   -7.1740    1.0902 H         1 <0>         0.4427
     24 C20         0.0835   -6.2931   -0.7900 C.2       1 <0>         0.2893
     25 N3          0.0920   -6.3663    0.5532 N.pl3     1 <0>        -0.4811
     26 N4          0.0814   -5.0437    1.0252 N.2       1 <0>        -0.3058
     27 C21         0.0939   -7.4645   -1.7380 C.3       1 <0>        -0.0801
     28 H2          1.0042    1.8801    0.0026 H         1 <0>         0.0769
     29 H3         -0.5455    1.8639   -0.8728 H         1 <0>         0.0709
     30 H4         -0.5286    1.8543    0.9071 H         1 <0>         0.0730
     31 H5         -0.0064   -0.1388   -2.1290 H         1 <0>         0.1332
     32 H6          0.0265   -2.5962   -2.1553 H         1 <0>         0.1380
     33 H7          0.0488   -2.6471    2.1272 H         1 <0>         0.1335
     34 H8          1.6379    1.3308    1.9294 H         1 <0>         0.1343
     35 H9          1.6433    2.5480    4.0633 H         1 <0>         0.1394
     36 H10        -1.5852    0.0953    5.4667 H         1 <0>         0.1271
     37 H11        -1.5934   -1.1140    3.3283 H         1 <0>         0.1314
     38 H12        -1.4785    1.0781    7.0078 H         1 <0>         0.4009
     39 H13         0.1305    2.4144    8.9058 H         1 <0>         0.0741
     40 H14        -1.0417    3.5793    8.2446 H         1 <0>         0.0719
     41 H15        -2.1601    0.8967    9.1936 H         1 <0>         0.1105
     42 H16        -3.0602    3.8970    9.3523 H         1 <0>         0.0977
     43 H17        -4.0658    2.4350    9.8552 H         1 <0>         0.0970
     44 H18        -2.2957    1.8034   11.5587 H         1 <0>         0.0992
     45 H19        -1.2901    3.2654   11.0558 H         1 <0>         0.0989
     46 H20         1.1240   -7.7331   -1.9723 H         1 <0>         0.0947
     47 H21        -0.4060   -8.3136   -1.2719 H         1 <0>         0.0853
     48 H22        -0.4288   -7.1941   -2.6555 H         1 <0>         0.1006
@<TRIPOS>BOND
     1    1    2 1
     2    1   28 1
     3    1   29 1
     4    1   30 1
     5    2    7 ar
     6    2    3 ar
     7    3    4 ar
     8    3   31 1
     9    4    5 ar
    10    4   32 1
    11    5    6 ar
    12    5   21 1
    13    6    7 ar
    14    6   33 1
    15    7    8 1
    16    8   13 ar
    17    8    9 ar
    18    9   10 ar
    19    9   34 1
    20   10   11 ar
    21   10   35 1
    22   11   12 ar
    23   11   14 1
    24   12   13 ar
    25   12   36 1
    26   13   37 1
    27   14   15 2
    28   14   16 am
    29   16   17 1
    30   16   38 1
    31   17   18 1
    32   17   39 1
    33   17   40 1
    34   18   20 1
    35   18   19 1
    36   18   41 1
    37   19   20 1
    38   19   42 1
    39   19   43 1
    40   20   44 1
    41   20   45 1
    42   21   22 1
    43   21   26 2
    44   22   24 2
    45   23   25 1
    46   24   27 1
    47   24   25 1
    48   25   26 1
    49   27   46 1
    50   27   47 1
    51   27   48 1
@<TRIPOS>MOLECULE
ZINC28565323
   38    42     0     0     0
SMALL
USER_CHARGES

@<TRIPOS>ATOM
      1 C1         -0.0902    1.2402   -0.1765 C.ar      1 <0>        -0.1048
      2 C2          0.4224    0.7916    1.0274 C.ar      1 <0>        -0.1183
      3 C3          1.6463    0.1550    1.0650 C.ar      1 <0>        -0.0805
      4 C4          2.3660   -0.0359   -0.1132 C.ar      1 <0>        -0.0162
      5 C5          1.8444    0.4178   -1.3235 C.ar      1 <0>        -0.0839
      6 C6          0.6197    1.0535   -1.3490 C.ar      1 <0>        -0.1198
      7 C7          3.6819   -0.7188   -0.0793 C.2       1 <0>         0.1864
      8 C8          3.9962   -1.8600    0.6828 C.2       1 <0>        -0.1993
      9 C9          5.3358   -2.1727    0.4215 C.2       1 <0>         0.1317
     10 C10         6.1858   -3.1894    0.8872 C.2       1 <0>        -0.1233
     11 C11         7.4726   -3.2375    0.4421 C.2       1 <0>        -0.0680
     12 C12         7.9250   -2.2726   -0.4716 C.2       1 <0>        -0.1627
     13 C13         7.0938   -1.3023   -0.9081 C.2       1 <0>         0.1193
     14 N1          5.8020   -1.2425   -0.4707 N.pl3     1 <0>        -0.2666
     15 N2          4.7531   -0.3619   -0.7629 N.2       1 <0>        -0.3037
     16 C14         3.0835   -2.5907    1.5888 C.ar      1 <0>         0.1041
     17 C15         3.5041   -2.9380    2.8729 C.ar      1 <0>        -0.0230
     18 C16         2.5977   -3.6264    3.6812 C.ar      1 <0>        -0.1857
     19 C17         2.6234   -4.1621    5.0402 C.2       1 <0>         0.3698
     20 N3          1.4623   -4.7186    5.2659 N.2       1 <0>        -0.2878
     21 N4          0.6426   -4.5949    4.1396 N.pl3     1 <0>        -0.4823
     22 H1         -0.2651   -4.9293    4.0671 H         1 <0>         0.4510
     23 C18         1.3208   -3.9275    3.1558 C.ar      1 <0>         0.2677
     24 N5          1.0216   -3.5509    1.9199 N.ar      1 <0>        -0.2413
     25 N6          1.8567   -2.9133    1.1816 N.ar      1 <0>        -0.1573
     26 N7          3.6942   -4.0930    5.9352 N.pl3     1 <0>        -0.8260
     27 H2         -1.0503    1.7341   -0.2018 H         1 <0>         0.1250
     28 H3         -0.1361    0.9401    1.9398 H         1 <0>         0.1241
     29 H4          2.0459   -0.1942    2.0056 H         1 <0>         0.1141
     30 H5          2.3979    0.2729   -2.2395 H         1 <0>         0.1262
     31 H6          0.2147    1.4058   -2.2861 H         1 <0>         0.1274
     32 H7          5.8235   -3.9245    1.5905 H         1 <0>         0.1458
     33 H8          8.1398   -4.0121    0.7901 H         1 <0>         0.1458
     34 H9          8.9442   -2.3065   -0.8273 H         1 <0>         0.1598
     35 H10         7.4546   -0.5659   -1.6108 H         1 <0>         0.1735
     36 H11         4.4922   -2.6845    3.2275 H         1 <0>         0.1500
     37 H12         4.5194   -3.6566    5.6714 H         1 <0>         0.4150
     38 H13         3.6124   -4.4814    6.8203 H         1 <0>         0.4138
@<TRIPOS>BOND
     1    1    6 ar
     2    1    2 ar
     3    1   27 1
     4    2    3 ar
     5    2   28 1
     6    3    4 ar
     7    3   29 1
     8    4    5 ar
     9    4    7 1
    10    5    6 ar
    11    5   30 1
    12    6   31 1
    13    7   15 2
    14    7    8 1
    15    8    9 2
    16    8   16 1
    17    9   14 1
    18    9   10 1
    19   10   11 2
    20   10   32 1
    21   11   12 1
    22   11   33 1
    23   12   13 2
    24   12   34 1
    25   13   14 1
    26   13   35 1
    27   14   15 1
    28   16   25 ar
    29   16   17 ar
    30   17   18 ar
    31   17   36 1
    32   18   23 ar
    33   18   19 1
    34   19   20 2
    35   19   26 1
    36   20   21 1
    37   21   22 1
    38   21   23 1
    39   23   24 ar
    40   24   25 ar
    41   26   37 1
    42   26   38 1
@<TRIPOS>MOLECULE
ZINC28565323
   38    42     0     0     0
SMALL
USER_CHARGES

@<TRIPOS>ATOM
      1 C1         -0.0886    1.2433   -0.1724 C.ar      1 <0>        -0.1057
      2 C2          0.4240    0.7938    1.0312 C.ar      1 <0>        -0.1183
      3 C3          1.6475    0.1564    1.0681 C.ar      1 <0>        -0.0793
      4 C4          2.3669   -0.0342   -0.1105 C.ar      1 <0>        -0.0139
      5 C5          1.8453    0.4209   -1.3204 C.ar      1 <0>        -0.0850
      6 C6          0.6209    1.0570   -1.3452 C.ar      1 <0>        -0.1204
      7 C7          3.6823   -0.7179   -0.0773 C.2       1 <0>         0.1806
      8 C8          3.9958   -1.8597    0.6838 C.2       1 <0>        -0.1843
      9 C9          5.3350   -2.1733    0.4226 C.2       1 <0>         0.1231
     10 C10         6.1843   -3.1908    0.8875 C.2       1 <0>        -0.1199
     11 C11         7.4710   -3.2394    0.4426 C.2       1 <0>        -0.0733
     12 C12         7.9246   -2.2742   -0.4705 C.2       1 <0>        -0.1646
     13 C13         7.0946   -1.3029   -0.9066 C.2       1 <0>         0.1188
     14 N1          5.8022   -1.2423   -0.4693 N.pl3     1 <0>        -0.2687
     15 N2          4.7539   -0.3611   -0.7612 N.2       1 <0>        -0.3047
     16 C14         3.0825   -2.5901    1.5898 C.ar      1 <0>         0.0549
     17 C15         3.5124   -2.9304    2.8660 C.ar      1 <0>         0.0093
     18 C16         2.6090   -3.6233    3.6886 C.ar      1 <0>        -0.2747
     19 C17         2.6288   -4.1358    4.9826 C.2       1 <0>         0.4219
     20 N3          1.4342   -4.7069    5.2102 N.pl3     1 <0>        -0.4345
     21 H1          1.1748   -5.1434    6.0366 H         1 <0>         0.4475
     22 N4          0.6193   -4.5794    4.0800 N.2       1 <0>        -0.2867
     23 C18         1.2778   -3.9354    3.1358 C.ar      1 <0>         0.2289
     24 N5          0.9977   -3.5440    1.8832 N.ar      1 <0>        -0.2003
     25 N6          1.8555   -2.9077    1.1707 N.ar      1 <0>        -0.1332
     26 N7          3.6873   -4.0698    5.8729 N.pl3     1 <0>        -0.8273
     27 H2         -1.0486    1.7376   -0.1972 H         1 <0>         0.1243
     28 H3         -0.1340    0.9423    1.9438 H         1 <0>         0.1236
     29 H4          2.0470   -0.1938    2.0084 H         1 <0>         0.1148
     30 H5          2.3985    0.2763   -2.2366 H         1 <0>         0.1255
     31 H6          0.2156    1.4097   -2.2821 H         1 <0>         0.1266
     32 H7          5.8214   -3.9262    1.5903 H         1 <0>         0.1441
     33 H8          8.1376   -4.0149    0.7901 H         1 <0>         0.1435
     34 H9          8.9438   -2.3088   -0.8260 H         1 <0>         0.1580
     35 H10         7.4563   -0.5664   -1.6088 H         1 <0>         0.1720
     36 H11         4.5024   -2.6726    3.2121 H         1 <0>         0.1405
     37 H12         4.5138   -3.6339    5.6123 H         1 <0>         0.4247
     38 H13         3.6024   -4.4595    6.7571 H         1 <0>         0.4122
@<TRIPOS>BOND
     1    1    6 ar
     2    1    2 ar
     3    1   27 1
     4    2    3 ar
     5    2   28 1
     6    3    4 ar
     7    3   29 1
     8    4    5 ar
     9    4    7 1
    10    5    6 ar
    11    5   30 1
    12    6   31 1
    13    7   15 2
    14    7    8 1
    15    8    9 2
    16    8   16 1
    17    9   14 1
    18    9   10 1
    19   10   11 2
    20   10   32 1
    21   11   12 1
    22   11   33 1
    23   12   13 2
    24   12   34 1
    25   13   14 1
    26   13   35 1
    27   14   15 1
    28   16   25 ar
    29   16   17 ar
    30   17   18 ar
    31   17   36 1
    32   18   23 ar
    33   18   19 2
    34   19   20 1
    35   19   26 1
    36   20   21 1
    37   20   22 1
    38   22   23 2
    39   23   24 ar
    40   24   25 ar
    41   26   37 1
    42   26   38 1
@<TRIPOS>MOLECULE
ZINC15894680
   33    36     0     0     0
SMALL
USER_CHARGES

@<TRIPOS>ATOM
      1 C1         -0.0164    1.3585    0.0095 C.ar      1 <0>        -0.1340
      2 C2          1.1699    2.0882    0.0021 C.ar      1 <0>        -0.0948
      3 C3          2.3787    1.4625   -0.0128 C.ar      1 <0>        -0.1054
      4 C4          2.4370    0.0577   -0.0208 C.ar      1 <0>         0.1307
      5 C5          1.2290   -0.6802   -0.0132 C.ar      1 <0>        -0.0659
      6 C6          0.0021   -0.0041    0.0020 C.ar      1 <0>        -0.0425
      7 C7          1.2912   -2.0970   -0.0213 C.ar      1 <0>         0.0689
      8 C8          2.5477   -2.6907   -0.0364 C.ar      1 <0>        -0.1771
      9 C9          3.6839   -1.8927   -0.0430 C.ar      1 <0>         0.1302
     10 N1          3.6110   -0.5824   -0.0349 N.ar      1 <0>        -0.4801
     11 C10         0.0591   -2.9160   -0.0134 C.2       1 <0>        -0.1846
     12 C11        -0.3572   -3.7539    0.9818 C.2       1 <0>         0.0835
     13 N2         -1.5227   -4.3084    0.6008 N.pl3     1 <0>        -0.4658
     14 H1         -2.0377   -4.9435    1.1227 H         1 <0>         0.4465
     15 N3         -1.8768   -3.8272   -0.6635 N.2       1 <0>        -0.2642
     16 C12        -0.9543   -2.9811   -1.0681 C.2       1 <0>         0.1395
     17 C13        -0.9414   -2.2374   -2.3501 C.ar      1 <0>         0.1900
     18 C14        -1.6373   -2.7406   -3.4483 C.ar      1 <0>        -0.1393
     19 C15        -1.6159   -2.0350   -4.6384 C.ar      1 <0>        -0.0755
     20 C16        -0.8987   -0.8478   -4.6922 C.ar      1 <0>        -0.1621
     21 C17        -0.2313   -0.4070   -3.5647 C.ar      1 <0>         0.1057
     22 N4         -0.2722   -1.0953   -2.4418 N.ar      1 <0>        -0.4511
     23 H2         -0.9626    1.8790    0.0259 H         1 <0>         0.1199
     24 H3          1.1302    3.1675    0.0079 H         1 <0>         0.1253
     25 H4          3.2895    2.0428   -0.0187 H         1 <0>         0.1314
     26 H5         -0.9240   -0.5597    0.0082 H         1 <0>         0.1176
     27 H6          2.6399   -3.7668   -0.0426 H         1 <0>         0.1333
     28 H7          4.6556   -2.3638   -0.0543 H         1 <0>         0.1567
     29 H8          0.1592   -3.9393    1.9120 H         1 <0>         0.1876
     30 H9         -2.1850   -3.6682   -3.3713 H         1 <0>         0.1392
     31 H10        -2.1452   -2.4001   -5.5062 H         1 <0>         0.1394
     32 H11        -0.8622   -0.2740   -5.6064 H         1 <0>         0.1384
     33 H12         0.3278    0.5162   -3.6035 H         1 <0>         0.1588
@<TRIPOS>BOND
     1    1    6 ar
     2    1    2 ar
     3    1   23 1
     4    2    3 ar
     5    2   24 1
     6    3    4 ar
     7    3   25 1
     8    4   10 ar
     9    4    5 ar
    10    5    6 ar
    11    5    7 ar
    12    6   26 1
    13    7    8 ar
    14    7   11 1
    15    8    9 ar
    16    8   27 1
    17    9   10 ar
    18    9   28 1
    19   11   16 1
    20   11   12 2
    21   12   13 1
    22   12   29 1
    23   13   14 1
    24   13   15 1
    25   15   16 2
    26   16   17 1
    27   17   22 ar
    28   17   18 ar
    29   18   19 ar
    30   18   30 1
    31   19   20 ar
    32   19   31 1
    33   20   21 ar
    34   20   32 1
    35   21   22 ar
    36   21   33 1
@<TRIPOS>MOLECULE
ZINC15894680
   33    36     0     0     0
SMALL
USER_CHARGES

@<TRIPOS>ATOM
      1 C1         -0.0164    1.3586    0.0095 C.ar      1 <0>        -0.1350
      2 C2          1.1699    2.0883    0.0021 C.ar      1 <0>        -0.0957
      3 C3          2.3786    1.4625   -0.0128 C.ar      1 <0>        -0.1047
      4 C4          2.4369    0.0577   -0.0208 C.ar      1 <0>         0.1303
      5 C5          1.2288   -0.6801   -0.0132 C.ar      1 <0>        -0.0630
      6 C6          0.0021   -0.0041    0.0020 C.ar      1 <0>        -0.0425
      7 C7          1.2910   -2.0973   -0.0213 C.ar      1 <0>         0.0648
      8 C8          2.5481   -2.6911   -0.0364 C.ar      1 <0>        -0.1734
      9 C9          3.6840   -1.8927   -0.0430 C.ar      1 <0>         0.1301
     10 N1          3.6109   -0.5824   -0.0349 N.ar      1 <0>        -0.4796
     11 C10         0.0597   -2.9159   -0.0135 C.2       1 <0>        -0.1662
     12 C11        -0.3636   -3.7778    1.0157 C.2       1 <0>         0.0717
     13 N2         -1.4949   -4.3246    0.6599 N.2       1 <0>        -0.2696
     14 N3         -1.8572   -3.8487   -0.6053 N.pl3     1 <0>        -0.4604
     15 H1         -2.6543   -4.0959   -1.0996 H         1 <0>         0.4431
     16 C12        -0.8996   -2.9734   -1.0192 C.2       1 <0>         0.1437
     17 C13        -0.8815   -2.2290   -2.2945 C.ar      1 <0>         0.1723
     18 C14        -1.5753   -2.7286   -3.3982 C.ar      1 <0>        -0.1576
     19 C15        -1.5488   -2.0193   -4.5855 C.ar      1 <0>        -0.0687
     20 C16        -0.8298   -0.8326   -4.6331 C.ar      1 <0>        -0.1604
     21 C17        -0.1651   -0.3953   -3.5020 C.ar      1 <0>         0.1117
     22 N4         -0.2095   -1.0861   -2.3814 N.ar      1 <0>        -0.4450
     23 H2         -0.9626    1.8791    0.0259 H         1 <0>         0.1193
     24 H3          1.1302    3.1675    0.0079 H         1 <0>         0.1251
     25 H4          3.2895    2.0428   -0.0187 H         1 <0>         0.1314
     26 H5         -0.9240   -0.5597    0.0078 H         1 <0>         0.1159
     27 H6          2.6405   -3.7671   -0.0426 H         1 <0>         0.1347
     28 H7          4.6559   -2.3636   -0.0543 H         1 <0>         0.1572
     29 H8          0.1595   -3.9572    1.9434 H         1 <0>         0.1936
     30 H9         -2.1245   -3.6558   -3.3262 H         1 <0>         0.1328
     31 H10        -2.0756   -2.3808   -5.4563 H         1 <0>         0.1413
     32 H11        -0.7897   -0.2562   -5.5456 H         1 <0>         0.1410
     33 H12         0.3951    0.5274   -3.5369 H         1 <0>         0.1616
@<TRIPOS>BOND
     1    1    6 ar
     2    1    2 ar
     3    1   23 1
     4    2    3 ar
     5    2   24 1
     6    3    4 ar
     7    3   25 1
     8    4   10 ar
     9    4    5 ar
    10    5    6 ar
    11    5    7 ar
    12    6   26 1
    13    7    8 ar
    14    7   11 1
    15    8    9 ar
    16    8   27 1
    17    9   10 ar
    18    9   28 1
    19   11   16 2
    20   11   12 1
    21   12   13 2
    22   12   29 1
    23   13   14 1
    24   14   15 1
    25   14   16 1
    26   16   17 1
    27   17   22 ar
    28   17   18 ar
    29   18   19 ar
    30   18   30 1
    31   19   20 ar
    32   19   31 1
    33   20   21 ar
    34   20   32 1
    35   21   22 ar
    36   21   33 1
