@<TRIPOS>MOLECULE
ZINC03815700
   43    46     0     0     0
SMALL
USER_CHARGES

@<TRIPOS>ATOM
      1 C1         -0.4417    2.5108    0.1274 C.3       1 <0>        -0.4980
      2 S1         -0.2285    0.7138    0.0013 S.o       1 <0>         1.3317
      3 O1          0.3381    0.2184    1.2066 O.2       1 <0>        -0.8500
      4 C2         -1.8753    0.0872    0.0153 C.ar      1 <0>        -0.4539
      5 C3         -2.4807   -0.2316    1.2179 C.ar      1 <0>        -0.0505
      6 C4         -3.7698   -0.7226    1.2359 C.ar      1 <0>        -0.0905
      7 C5         -4.4635   -0.8973    0.0374 C.ar      1 <0>         0.0183
      8 C6         -3.8471   -0.5733   -1.1722 C.ar      1 <0>        -0.1282
      9 C7         -2.5593   -0.0786   -1.1759 C.ar      1 <0>        -0.0372
     10 C8         -5.8450   -1.4235    0.0492 C.2       1 <0>         0.2539
     11 N1         -6.6187   -1.6414   -1.0552 N.pl3     1 <0>        -0.5494
     12 H1         -6.3641   -1.4808   -1.9773 H         1 <0>         0.4258
     13 C9         -7.8254   -2.1307   -0.6157 C.2       1 <0>         0.0559
     14 C10        -7.7421   -2.1946    0.7659 C.2       1 <0>         0.0600
     15 N2         -6.5217   -1.7612    1.1224 N.2       1 <0>        -0.4460
     16 C11        -8.8052   -2.6624    1.6841 C.ar      1 <0>         0.0397
     17 C12        -9.5683   -3.7960    1.3824 C.ar      1 <0>        -0.1547
     18 C13       -10.5481   -4.1969    2.2660 C.ar      1 <0>         0.1020
     19 N3        -10.7699   -3.5273    3.3814 N.ar      1 <0>        -0.4829
     20 C14       -10.0734   -2.4536    3.7038 C.ar      1 <0>         0.1009
     21 C15        -9.0708   -1.9865    2.8804 C.ar      1 <0>        -0.1469
     22 C16        -8.9814   -2.5126   -1.4503 C.ar      1 <0>        -0.0400
     23 C17       -10.2631   -2.0665   -1.1192 C.ar      1 <0>        -0.0563
     24 C18       -11.3392   -2.4265   -1.9026 C.ar      1 <0>        -0.1471
     25 C19       -11.1511   -3.2299   -3.0163 C.ar      1 <0>         0.1129
     26 C20        -9.8817   -3.6756   -3.3498 C.ar      1 <0>        -0.1491
     27 C21        -8.7972   -3.3169   -2.5775 C.ar      1 <0>        -0.0765
     28 F1        -12.2093   -3.5802   -3.7797 F         1 <0>        -0.1335
     29 H2          0.5355    2.9936    0.1264 H         1 <0>         0.1086
     30 H3         -1.0243    2.8681   -0.7218 H         1 <0>         0.1118
     31 H4         -0.9645    2.7506    1.0533 H         1 <0>         0.0820
     32 H5         -1.9427   -0.0960    2.1446 H         1 <0>         0.1340
     33 H6         -4.2409   -0.9717    2.1752 H         1 <0>         0.1409
     34 H7         -4.3783   -0.7065   -2.1030 H         1 <0>         0.1252
     35 H8         -2.0825    0.1760   -2.1109 H         1 <0>         0.1447
     36 H9         -9.3927   -4.3483    0.4711 H         1 <0>         0.1333
     37 H10       -11.1422   -5.0705    2.0420 H         1 <0>         0.1579
     38 H11       -10.2890   -1.9361    4.6268 H         1 <0>         0.1588
     39 H12        -8.5017   -1.1100    3.1527 H         1 <0>         0.1379
     40 H13       -10.4110   -1.4411   -0.2513 H         1 <0>         0.1357
     41 H14       -12.3306   -2.0822   -1.6477 H         1 <0>         0.1434
     42 H15        -9.7412   -4.3013   -4.2187 H         1 <0>         0.1424
     43 H16        -7.8079   -3.6609   -2.8410 H         1 <0>         0.1331
@<TRIPOS>BOND
     1    1    2 1
     2    1   29 1
     3    1   30 1
     4    1   31 1
     5    2    3 2
     6    2    4 1
     7    4    9 ar
     8    4    5 ar
     9    5    6 ar
    10    5   32 1
    11    6    7 ar
    12    6   33 1
    13    7    8 ar
    14    7   10 1
    15    8    9 ar
    16    8   34 1
    17    9   35 1
    18   10   15 2
    19   10   11 1
    20   11   12 1
    21   11   13 1
    22   13   14 2
    23   13   22 1
    24   14   15 1
    25   14   16 1
    26   16   21 ar
    27   16   17 ar
    28   17   18 ar
    29   17   36 1
    30   18   19 ar
    31   18   37 1
    32   19   20 ar
    33   20   21 ar
    34   20   38 1
    35   21   39 1
    36   22   27 ar
    37   22   23 ar
    38   23   24 ar
    39   23   40 1
    40   24   25 ar
    41   24   41 1
    42   25   26 ar
    43   25   28 1
    44   26   27 ar
    45   26   42 1
    46   27   43 1
@<TRIPOS>MOLECULE
ZINC18274812
   43    46     0     0     0
SMALL
USER_CHARGES

@<TRIPOS>ATOM
      1 C1          0.0458    2.4645   -0.3714 C.3       1 <0>        -0.4977
      2 S1          0.1034    0.6635   -0.1624 S.o       1 <0>         1.3328
      3 O1          0.9995    0.3374    0.8912 O.2       1 <0>        -0.8522
      4 C2          0.9248    0.0922   -1.6127 C.ar      1 <0>        -0.4531
      5 C3          0.1894   -0.2245   -2.7411 C.ar      1 <0>        -0.0385
      6 C4          0.8263   -0.6720   -3.8801 C.ar      1 <0>        -0.0921
      7 C5          2.2157   -0.8050   -3.8925 C.ar      1 <0>         0.0171
      8 C6          2.9515   -0.4838   -2.7508 C.ar      1 <0>        -0.1253
      9 C7          2.3027   -0.0324   -1.6200 C.ar      1 <0>        -0.0497
     10 C8          2.9049   -1.2844   -5.1094 C.2       1 <0>         0.2582
     11 N1          4.2515   -1.4590   -5.2384 N.pl3     1 <0>        -0.5486
     12 H1          4.9216   -1.2936   -4.5568 H         1 <0>         0.4252
     13 C9          4.4814   -1.9147   -6.5171 C.2       1 <0>         0.0337
     14 C10         3.2416   -2.0017   -7.1294 C.2       1 <0>         0.0807
     15 N2          2.3171   -1.6154   -6.2370 N.2       1 <0>        -0.4488
     16 C11         2.9826   -2.4473   -8.5186 C.ar      1 <0>        -0.0206
     17 C12         3.6496   -3.5590   -9.0325 C.ar      1 <0>        -0.0694
     18 C13         3.4051   -3.9700  -10.3265 C.ar      1 <0>        -0.1511
     19 C14         2.4988   -3.2799  -11.1154 C.ar      1 <0>         0.1060
     20 C15         1.8337   -2.1747  -10.6093 C.ar      1 <0>        -0.1526
     21 C16         2.0668   -1.7598   -9.3145 C.ar      1 <0>        -0.0599
     22 F1          2.2634   -3.6856  -12.3824 F         1 <0>        -0.1371
     23 C17         5.7881   -2.2443   -7.1163 C.ar      1 <0>         0.0226
     24 C18         6.1399   -1.7662   -8.3862 C.ar      1 <0>        -0.1423
     25 C19         7.3716   -2.0992   -8.9074 C.ar      1 <0>         0.1081
     26 N3          8.2131   -2.8565   -8.2286 N.ar      1 <0>        -0.4784
     27 C20         7.9224   -3.3278   -7.0303 C.ar      1 <0>         0.1071
     28 C21         6.7158   -3.0398   -6.4296 C.ar      1 <0>        -0.1652
     29 H2          1.0609    2.8540   -0.4489 H         1 <0>         0.0810
     30 H3         -0.5069    2.7075   -1.2790 H         1 <0>         0.1130
     31 H4         -0.4514    2.9143    0.4881 H         1 <0>         0.1088
     32 H5         -0.8856   -0.1215   -2.7301 H         1 <0>         0.1470
     33 H6          0.2512   -0.9192   -4.7602 H         1 <0>         0.1462
     34 H7          4.0268   -0.5845   -2.7539 H         1 <0>         0.1202
     35 H8          2.8713    0.2203   -0.7373 H         1 <0>         0.1322
     36 H9          4.3566   -4.0971   -8.4186 H         1 <0>         0.1287
     37 H10         3.9211   -4.8308  -10.7253 H         1 <0>         0.1387
     38 H11         1.1282   -1.6400  -11.2280 H         1 <0>         0.1401
     39 H12         1.5446   -0.9009   -8.9194 H         1 <0>         0.1377
     40 H13         5.4562   -1.1467   -8.9476 H         1 <0>         0.1400
     41 H14         7.6520   -1.7358   -9.8850 H         1 <0>         0.1626
     42 H15         8.6418   -3.9441   -6.5116 H         1 <0>         0.1610
     43 H16         6.4868   -3.4248   -5.4469 H         1 <0>         0.1340
@<TRIPOS>BOND
     1    1    2 1
     2    1   29 1
     3    1   30 1
     4    1   31 1
     5    2    3 2
     6    2    4 1
     7    4    9 ar
     8    4    5 ar
     9    5    6 ar
    10    5   32 1
    11    6    7 ar
    12    6   33 1
    13    7    8 ar
    14    7   10 1
    15    8    9 ar
    16    8   34 1
    17    9   35 1
    18   10   15 2
    19   10   11 1
    20   11   12 1
    21   11   13 1
    22   13   14 2
    23   13   23 1
    24   14   15 1
    25   14   16 1
    26   16   21 ar
    27   16   17 ar
    28   17   18 ar
    29   17   36 1
    30   18   19 ar
    31   18   37 1
    32   19   20 ar
    33   19   22 1
    34   20   21 ar
    35   20   38 1
    36   21   39 1
    37   23   28 ar
    38   23   24 ar
    39   24   25 ar
    40   24   40 1
    41   25   26 ar
    42   25   41 1
    43   26   27 ar
    44   27   28 ar
    45   27   42 1
    46   28   43 1
@<TRIPOS>MOLECULE
ZINC18274812
   43    46     0     0     0
SMALL
USER_CHARGES

@<TRIPOS>ATOM
      1 C1          0.0761    2.5207   -0.3946 C.3       1 <0>        -0.4977
      2 S1          0.1067    0.7194   -0.1829 S.o       1 <0>         1.3328
      3 O1          0.9925    0.3819    0.8757 O.2       1 <0>        -0.8523
      4 C2          0.9273    0.1342   -1.6283 C.ar      1 <0>        -0.4535
      5 C3          0.1933   -0.1734   -2.7600 C.ar      1 <0>        -0.0382
      6 C4          0.8295   -0.6320   -3.8950 C.ar      1 <0>        -0.0929
      7 C5          2.2169   -0.7850   -3.8999 C.ar      1 <0>         0.0183
      8 C6          2.9514   -0.4724   -2.7550 C.ar      1 <0>        -0.1257
      9 C7          2.3033   -0.0102   -1.6282 C.ar      1 <0>        -0.0496
     10 C8          2.9053   -1.2765   -5.1125 C.2       1 <0>         0.2536
     11 N1          4.2517   -1.4710   -5.2346 N.pl3     1 <0>        -0.5504
     12 H1          4.9205   -1.3136   -4.5499 H         1 <0>         0.4255
     13 C9          4.4817   -1.9314   -6.5089 C.2       1 <0>         0.0556
     14 C10         3.2446   -2.0022   -7.1288 C.2       1 <0>         0.0602
     15 N2          2.3192   -1.6008   -6.2417 N.2       1 <0>        -0.4443
     16 C11         2.9879   -2.4463   -8.5176 C.ar      1 <0>         0.0401
     17 C12         3.6482   -3.5593   -9.0502 C.ar      1 <0>        -0.1549
     18 C13         3.3789   -3.9386  -10.3482 C.ar      1 <0>         0.1021
     19 N3          2.5133   -3.2676  -11.0845 N.ar      1 <0>        -0.4831
     20 C14         1.8693   -2.2129  -10.6212 C.ar      1 <0>         0.1008
     21 C15         2.0741   -1.7682   -9.3321 C.ar      1 <0>        -0.1466
     22 C16         5.7882   -2.2812   -7.1001 C.ar      1 <0>        -0.0406
     23 C17         6.1350   -1.8042   -8.3665 C.ar      1 <0>        -0.0561
     24 C18         7.3568   -2.1344   -8.9137 C.ar      1 <0>        -0.1471
     25 C19         8.2399   -2.9383   -8.2101 C.ar      1 <0>         0.1131
     26 C20         7.9012   -3.4146   -6.9533 C.ar      1 <0>        -0.1492
     27 C21         6.6848   -3.0860   -6.3932 C.ar      1 <0>        -0.0767
     28 F1          9.4352   -3.2593   -8.7516 F         1 <0>        -0.1334
     29 H2          1.0971    2.8954   -0.4674 H         1 <0>         0.0810
     30 H3         -0.4683    2.7703   -1.3054 H         1 <0>         0.1130
     31 H4         -0.4189    2.9788    0.4616 H         1 <0>         0.1087
     32 H5         -0.8802   -0.0546   -2.7549 H         1 <0>         0.1468
     33 H6          0.2554   -0.8725   -4.7775 H         1 <0>         0.1457
     34 H7          4.0251   -0.5889   -2.7522 H         1 <0>         0.1204
     35 H8          2.8708    0.2356   -0.7429 H         1 <0>         0.1321
     36 H9          4.3583   -4.1127   -8.4536 H         1 <0>         0.1329
     37 H10         3.8834   -4.7962  -10.7681 H         1 <0>         0.1577
     38 H11         1.1696   -1.6933  -11.2591 H         1 <0>         0.1590
     39 H12         1.5402   -0.9072   -8.9580 H         1 <0>         0.1385
     40 H13         5.4474   -1.1783   -8.9159 H         1 <0>         0.1360
     41 H14         7.6261   -1.7662   -9.8926 H         1 <0>         0.1436
     42 H15         8.5933   -4.0406   -6.4097 H         1 <0>         0.1423
     43 H16         6.4240   -3.4537   -5.4118 H         1 <0>         0.1327
@<TRIPOS>BOND
     1    1    2 1
     2    1   29 1
     3    1   30 1
     4    1   31 1
     5    2    3 2
     6    2    4 1
     7    4    9 ar
     8    4    5 ar
     9    5    6 ar
    10    5   32 1
    11    6    7 ar
    12    6   33 1
    13    7    8 ar
    14    7   10 1
    15    8    9 ar
    16    8   34 1
    17    9   35 1
    18   10   15 2
    19   10   11 1
    20   11   12 1
    21   11   13 1
    22   13   14 2
    23   13   22 1
    24   14   15 1
    25   14   16 1
    26   16   21 ar
    27   16   17 ar
    28   17   18 ar
    29   17   36 1
    30   18   19 ar
    31   18   37 1
    32   19   20 ar
    33   20   21 ar
    34   20   38 1
    35   21   39 1
    36   22   27 ar
    37   22   23 ar
    38   23   24 ar
    39   23   40 1
    40   24   25 ar
    41   24   41 1
    42   25   26 ar
    43   25   28 1
    44   26   27 ar
    45   26   42 1
    46   27   43 1
@<TRIPOS>MOLECULE
ZINC24044436
   76    80     0     0     0
SMALL
USER_CHARGES
1-[5-tert-butyl-2-(p-tolyl)pyrazol-3-yl]-3-[4-(2-morpholinoethoxy)-1-naphthyl]urea
@<TRIPOS>ATOM
      1 C1          3.3307    9.5387   -0.3298 C.3       1 <0>        -0.1193
      2 C2          2.0898    8.6848   -0.2813 C.ar      1 <0>        -0.0892
      3 C3          0.9612    9.0673   -0.9828 C.ar      1 <0>        -0.0934
      4 C4         -0.1775    8.2868   -0.9403 C.ar      1 <0>        -0.1062
      5 C5         -0.1884    7.1174   -0.1919 C.ar      1 <0>         0.1564
      6 C6          0.9444    6.7392    0.5163 C.ar      1 <0>        -0.1500
      7 C7          2.0821    7.5207    0.4649 C.ar      1 <0>        -0.0924
      8 N1         -1.3424    6.3233   -0.1469 N.pl3     1 <0>        -0.3448
      9 C8         -1.3788    4.9645   -0.0790 C.2       1 <0>         0.3309
     10 C9         -2.6878    4.5925   -0.0483 C.2       1 <0>        -0.2629
     11 C10        -3.4651    5.7529   -0.1047 C.2       1 <0>         0.1115
     12 N2         -2.6643    6.7861   -0.1672 N.2       1 <0>        -0.2779
     13 C11        -4.9712    5.8052   -0.0954 C.3       1 <0>         0.0134
     14 C12        -5.4824    5.5257    1.3193 C.3       1 <0>        -0.1388
     15 C13        -5.4360    7.1933   -0.5406 C.3       1 <0>        -0.1390
     16 C14        -5.5242    4.7499   -1.0553 C.3       1 <0>        -0.1399
     17 N3         -0.2771    4.1104   -0.0417 N.am      1 <0>        -0.6731
     18 C15        -0.4603    2.7771    0.0314 C.2       1 <0>         0.7165
     19 O1         -1.5862    2.3190    0.0649 O.2       1 <0>        -0.5445
     20 N4          0.6045    1.9516    0.0675 N.am      1 <0>        -0.6819
     21 C16         0.4162    0.5655    0.0407 C.ar      1 <0>         0.1254
     22 C17        -0.6813    0.0024    0.6542 C.ar      1 <0>        -0.0743
     23 C18        -0.8835   -1.3742    0.6299 C.ar      1 <0>        -0.2061
     24 C19         0.0048   -2.2051    0.0082 C.ar      1 <0>         0.1395
     25 C20         1.1426   -1.6672   -0.6254 C.ar      1 <0>        -0.0565
     26 C21         1.3517   -0.2661   -0.6096 C.ar      1 <0>        -0.0251
     27 C22         2.4862    0.2686   -1.2409 C.ar      1 <0>        -0.1232
     28 C23         3.3687   -0.5639   -1.8588 C.ar      1 <0>        -0.0971
     29 C24         3.1636   -1.9422   -1.8742 C.ar      1 <0>        -0.1313
     30 C25         2.0750   -2.4951   -1.2724 C.ar      1 <0>        -0.0739
     31 O2         -0.2080   -3.5475    0.0012 O.3       1 <0>        -0.2916
     32 C26        -1.3823   -4.0216    0.6634 C.3       1 <0>         0.0605
     33 C27        -1.4510   -5.5459    0.5508 C.3       1 <0>         0.0539
     34 N5         -0.3065   -6.1409    1.2538 N.3       1 <0>        -0.5287
     35 C28        -0.1978   -7.5776    0.9617 C.3       1 <0>         0.0167
     36 C29         1.0390   -8.1436    1.6645 C.3       1 <0>         0.0615
     37 O3          0.9456   -7.8818    3.0674 O.3       1 <0>        -0.3849
     38 C30         0.8389   -6.4921    3.3879 C.3       1 <0>         0.0625
     39 C31        -0.3999   -5.9094    2.7026 C.3       1 <0>         0.0120
     40 H1          3.1476   10.4156   -0.9682 H         1 <0>         0.0687
     41 H2          4.1639    8.9515   -0.7434 H         1 <0>         0.0732
     42 H3          3.5863    9.8722    0.6868 H         1 <0>         0.0734
     43 H4          0.9703    9.9770   -1.5648 H         1 <0>         0.1335
     44 H5         -1.0587    8.5861   -1.4884 H         1 <0>         0.1355
     45 H6          0.9374    5.8324    1.1029 H         1 <0>         0.1262
     46 H7          2.9651    7.2245    1.0118 H         1 <0>         0.1343
     47 H8         -3.0598    3.5802    0.0092 H         1 <0>         0.1784
     48 H9         -6.5817    5.5639    1.3261 H         1 <0>         0.0656
     49 H10        -5.0849    6.2845    2.0094 H         1 <0>         0.0565
     50 H11        -5.1481    4.5278    1.6395 H         1 <0>         0.0614
     51 H12        -6.5353    7.2315   -0.5338 H         1 <0>         0.0604
     52 H13        -5.0684    7.3943   -1.5577 H         1 <0>         0.0568
     53 H14        -5.0385    7.9519    0.1496 H         1 <0>         0.0614
     54 H15        -6.6235    4.7882   -1.0484 H         1 <0>         0.0647
     55 H16        -5.1900    3.7520   -0.7351 H         1 <0>         0.0637
     56 H17        -5.1566    4.9509   -2.0724 H         1 <0>         0.0570
     57 H18         0.7414    4.5248   -0.0719 H         1 <0>         0.4294
     58 H19         1.6215    2.3677    0.1180 H         1 <0>         0.4280
     59 H20        -1.3959    0.6376    1.1566 H         1 <0>         0.1450
     60 H21        -1.7537   -1.7925    1.1139 H         1 <0>         0.1296
     61 H22         2.6580    1.3348   -1.2361 H         1 <0>         0.1222
     62 H23         4.2405   -0.1501   -2.3437 H         1 <0>         0.1243
     63 H24         3.8790   -2.5810   -2.3706 H         1 <0>         0.1250
     64 H25         1.9286   -3.5650   -1.2926 H         1 <0>         0.1353
     65 H26        -1.3465   -3.7335    1.7244 H         1 <0>         0.0659
     66 H27        -2.2726   -3.5787    0.1931 H         1 <0>         0.0716
     67 H28        -2.3868   -5.9052    1.0039 H         1 <0>         0.0605
     68 H29        -1.4216   -5.8370   -0.5096 H         1 <0>         0.0912
     69 H30        -1.0977   -8.0949    1.3258 H         1 <0>         0.0437
     70 H31        -0.1044   -7.7249   -0.1244 H         1 <0>         0.0891
     71 H32         1.0925   -9.2291    1.4949 H         1 <0>         0.1001
     72 H33         1.9424   -7.6643    1.2595 H         1 <0>         0.0618
     73 H34         0.7475   -6.3731    4.4776 H         1 <0>         0.0994
     74 H35         1.7375   -5.9645    3.0355 H         1 <0>         0.0616
     75 H36        -0.4553   -4.8284    2.8983 H         1 <0>         0.0869
     76 H37        -1.3031   -6.3997    3.0948 H         1 <0>         0.0443
@<TRIPOS>BOND
     1    1    2 1
     2    1   40 1
     3    1   41 1
     4    1   42 1
     5    2    7 ar
     6    2    3 ar
     7    3    4 ar
     8    3   43 1
     9    4    5 ar
    10    4   44 1
    11    5    6 ar
    12    5    8 1
    13    6    7 ar
    14    6   45 1
    15    7   46 1
    16    8   12 1
    17    8    9 1
    18    9   10 2
    19    9   17 1
    20   10   11 1
    21   10   47 1
    22   11   12 2
    23   11   13 1
    24   13   14 1
    25   13   15 1
    26   13   16 1
    27   14   48 1
    28   14   49 1
    29   14   50 1
    30   15   51 1
    31   15   52 1
    32   15   53 1
    33   16   54 1
    34   16   55 1
    35   16   56 1
    36   17   18 am
    37   17   57 1
    38   18   19 2
    39   18   20 am
    40   20   21 1
    41   20   58 1
    42   21   26 ar
    43   21   22 ar
    44   22   23 ar
    45   22   59 1
    46   23   24 ar
    47   23   60 1
    48   24   25 ar
    49   24   31 1
    50   25   30 ar
    51   25   26 ar
    52   26   27 ar
    53   27   28 ar
    54   27   61 1
    55   28   29 ar
    56   28   62 1
    57   29   30 ar
    58   29   63 1
    59   30   64 1
    60   31   32 1
    61   32   33 1
    62   32   65 1
    63   32   66 1
    64   33   34 1
    65   33   67 1
    66   33   68 1
    67   34   39 1
    68   34   35 1
    69   35   36 1
    70   35   69 1
    71   35   70 1
    72   36   37 1
    73   36   71 1
    74   36   72 1
    75   37   38 1
    76   38   39 1
    77   38   73 1
    78   38   74 1
    79   39   75 1
    80   39   76 1
@<TRIPOS>MOLECULE
ZINC00007453
   40    43     0     0     0
SMALL
USER_CHARGES
8-(4-fluorophenyl)-5-methoxy-7-(4-pyridyl)-2,9-diazabicyclo[4.3.0]nona-1,3,5,7-tetraen-3-amine
@<TRIPOS>ATOM
      1 C1         -4.7770   -0.4905   -0.1085 C.3       1 <0>         0.0234
      2 O1         -4.8286    0.9376   -0.1132 O.3       1 <0>        -0.2966
      3 C2         -3.6500    1.5971    0.0192 C.ar      1 <0>         0.2565
      4 C3         -2.4564    0.9047    0.1522 C.ar      1 <0>        -0.3493
      5 C4         -1.2682    1.6179    0.2852 C.ar      1 <0>         0.4794
      6 N1         -1.2546    2.9402    0.2927 N.ar      1 <0>        -0.5866
      7 C5         -2.3699    3.6531    0.1630 C.ar      1 <0>         0.3770
      8 C6         -3.6042    2.9995    0.0249 C.ar      1 <0>        -0.2094
      9 C7         -4.6243    4.0512   -0.0886 C.2       1 <0>        -0.0794
     10 C8         -3.9514    5.2536   -0.0129 C.2       1 <0>         0.1178
     11 N2         -2.6074    5.0077    0.1371 N.pl3     1 <0>        -0.5648
     12 H1         -1.9240    5.6918    0.2140 H         1 <0>         0.4233
     13 C9         -4.5750    6.5896   -0.0815 C.ar      1 <0>        -0.0428
     14 C10        -5.7150    6.8711    0.6753 C.ar      1 <0>        -0.0579
     15 C11        -6.2903    8.1225    0.6108 C.ar      1 <0>        -0.1487
     16 C12        -5.7463    9.0968   -0.2114 C.ar      1 <0>         0.1100
     17 C13        -4.6182    8.8219   -0.9683 C.ar      1 <0>        -0.1502
     18 C14        -4.0310    7.5758   -0.9080 C.ar      1 <0>        -0.0753
     19 F1         -6.3176   10.3194   -0.2749 F         1 <0>        -0.1353
     20 C15        -6.0811    3.8593   -0.2514 C.ar      1 <0>         0.0434
     21 C16        -6.7306    4.2454   -1.4305 C.ar      1 <0>        -0.1566
     22 C17        -8.0898    4.0442   -1.5413 C.ar      1 <0>         0.0996
     23 N3         -8.7781    3.5053   -0.5522 N.ar      1 <0>        -0.4870
     24 C18        -8.2063    3.1316    0.5773 C.ar      1 <0>         0.0990
     25 C19        -6.8511    3.2917    0.7715 C.ar      1 <0>        -0.1503
     26 N4         -0.0707    0.9250    0.4186 N.pl3     1 <0>        -0.8446
     27 H2         -4.3525   -0.8356    0.8342 H         1 <0>         0.0604
     28 H3         -5.7845   -0.8908   -0.2216 H         1 <0>         0.1040
     29 H4         -4.1546   -0.8343   -0.9347 H         1 <0>         0.0597
     30 H5         -2.4484   -0.1753    0.1529 H         1 <0>         0.1403
     31 H6         -6.1423    6.1113    1.3129 H         1 <0>         0.1361
     32 H7         -7.1690    8.3427    1.1988 H         1 <0>         0.1415
     33 H8         -4.1985    9.5851   -1.6069 H         1 <0>         0.1411
     34 H9         -3.1524    7.3625   -1.4988 H         1 <0>         0.1348
     35 H10        -6.1745    4.6911   -2.2420 H         1 <0>         0.1312
     36 H11        -8.5991    4.3352   -2.4480 H         1 <0>         0.1542
     37 H12        -8.8086    2.6949    1.3602 H         1 <0>         0.1542
     38 H13        -6.3899    2.9837    1.6983 H         1 <0>         0.1316
     39 H14        -0.0690   -0.0450    0.4184 H         1 <0>         0.4107
     40 H15         0.7638    1.4114    0.5080 H         1 <0>         0.4059
@<TRIPOS>BOND
     1    1    2 1
     2    1   27 1
     3    1   28 1
     4    1   29 1
     5    2    3 1
     6    3    8 ar
     7    3    4 ar
     8    4    5 ar
     9    4   30 1
    10    5    6 ar
    11    5   26 1
    12    6    7 ar
    13    7   11 1
    14    7    8 ar
    15    8    9 1
    16    9   10 2
    17    9   20 1
    18   10   11 1
    19   10   13 1
    20   11   12 1
    21   13   18 ar
    22   13   14 ar
    23   14   15 ar
    24   14   31 1
    25   15   16 ar
    26   15   32 1
    27   16   17 ar
    28   16   19 1
    29   17   18 ar
    30   17   33 1
    31   18   34 1
    32   20   25 ar
    33   20   21 ar
    34   21   22 ar
    35   21   35 1
    36   22   23 ar
    37   22   36 1
    38   23   24 ar
    39   24   25 ar
    40   24   37 1
    41   25   38 1
    42   26   39 1
    43   26   40 1
@<TRIPOS>MOLECULE
ZINC13493055
   37    40     0     0     0
SMALL
USER_CHARGES
5-(2,6-dichlorophenyl)-2-(2,4-difluorophenyl)sulfanyl-pyrimido[6,1-f]pyridazin-6-one
@<TRIPOS>ATOM
      1 C1          0.7819    4.3410    0.0524 C.ar      1 <0>        -0.0865
      2 C2         -0.4275    5.0027   -0.0644 C.ar      1 <0>        -0.1052
      3 C3         -1.6103    4.2903   -0.0692 C.ar      1 <0>        -0.0078
      4 C4         -1.5836    2.8981    0.0381 C.ar      1 <0>        -0.0051
      5 C5         -0.3594    2.2372    0.1611 C.ar      1 <0>        -0.0079
      6 C6          0.8156    2.9624    0.1649 C.ar      1 <0>        -0.1052
      7 Cl1        -0.3147    0.5075    0.3018 Cl        1 <0>        -0.0496
      8 C7         -2.8461    2.1276    0.0266 C.2       1 <0>        -0.1962
      9 C8         -3.3978    1.6608   -1.1750 C.2       1 <0>         0.1634
     10 C9         -2.7630    1.9018   -2.4066 C.2       1 <0>        -0.0494
     11 C10        -3.3310    1.4261   -3.5469 C.2       1 <0>        -0.1079
     12 C11        -4.5373    0.6985   -3.4809 C.2       1 <0>         0.1181
     13 N1         -5.1260    0.4712   -2.3297 N.2       1 <0>        -0.2574
     14 N2         -4.5673    0.9472   -1.1371 N.pl3     1 <0>        -0.3270
     15 C12        -5.1778    0.7109    0.0511 C.2       1 <0>         0.4228
     16 N3         -4.6823    1.1412    1.1775 N.2       1 <0>        -0.5427
     17 C13        -3.5381    1.8434    1.2263 C.2       1 <0>         0.5151
     18 O1         -3.0989    2.2338    2.2995 O.2       1 <0>        -0.4890
     19 S1         -5.2649    0.0865   -4.9643 S.3       1 <0>         0.1498
     20 C14        -6.6196   -0.8905   -4.4031 C.ar      1 <0>        -0.2138
     21 C15        -7.9169   -0.4067   -4.5085 C.ar      1 <0>         0.0058
     22 C16        -8.9776   -1.1741   -4.0680 C.ar      1 <0>        -0.1725
     23 C17        -8.7491   -2.4257   -3.5211 C.ar      1 <0>         0.1750
     24 C18        -7.4569   -2.9119   -3.4142 C.ar      1 <0>        -0.2011
     25 C19        -6.3919   -2.1502   -3.8590 C.ar      1 <0>         0.1941
     26 F1         -5.1316   -2.6265   -3.7599 F         1 <0>        -0.1130
     27 F2         -9.7887   -3.1735   -3.0908 F         1 <0>        -0.1191
     28 Cl2        -3.1267    5.1227   -0.2165 Cl        1 <0>        -0.0501
     29 H1          1.7040    4.9031    0.0556 H         1 <0>         0.1468
     30 H2         -0.4464    6.0789   -0.1525 H         1 <0>         0.1450
     31 H3          1.7632    2.4523    0.2554 H         1 <0>         0.1450
     32 H4         -1.8394    2.4601   -2.4465 H         1 <0>         0.1694
     33 H5         -2.8589    1.6049   -4.5017 H         1 <0>         0.1688
     34 H6         -6.1009    0.1504    0.0642 H         1 <0>         0.2171
     35 H7         -8.0965    0.5691   -4.9351 H         1 <0>         0.1572
     36 H8         -9.9865   -0.7976   -4.1504 H         1 <0>         0.1548
     37 H9         -7.2812   -3.8884   -2.9877 H         1 <0>         0.1586
@<TRIPOS>BOND
     1    1    6 ar
     2    1    2 ar
     3    1   29 1
     4    2    3 ar
     5    2   30 1
     6    3    4 ar
     7    3   28 1
     8    4    5 ar
     9    4    8 1
    10    5    6 ar
    11    5    7 1
    12    6   31 1
    13    8   17 1
    14    8    9 2
    15    9   14 1
    16    9   10 1
    17   10   11 2
    18   10   32 1
    19   11   12 1
    20   11   33 1
    21   12   13 2
    22   12   19 1
    23   13   14 1
    24   14   15 1
    25   15   16 2
    26   15   34 1
    27   16   17 1
    28   17   18 2
    29   19   20 1
    30   20   25 ar
    31   20   21 ar
    32   21   22 ar
    33   21   35 1
    34   22   23 ar
    35   22   36 1
    36   23   24 ar
    37   23   27 1
    38   24   25 ar
    39   24   37 1
    40   25   26 1
@<TRIPOS>MOLECULE
ZINC00602685
   47    50     0     0     0
SMALL
USER_CHARGES
4-[4-(4-fluorophenyl)-5-(4-pyridyl)oxazol-2-yl]-1-methyl-piperidin-4-ol
@<TRIPOS>ATOM
      1 C1          7.6834   -4.0978    2.6361 C.3       1 <0>        -0.0418
      2 C2          6.6968   -3.1113    0.6577 C.3       1 <0>         0.0044
      3 C3          5.9967   -1.8614    0.1197 C.3       1 <0>        -0.1385
      4 C4          4.6461   -1.6966    0.8220 C.3       1 <0>         0.2371
      5 C5          4.8730   -1.6100    2.3338 C.3       1 <0>        -0.1704
      6 C6          5.6057   -2.8672    2.8076 C.3       1 <0>         0.0050
      7 C7          3.9784   -0.4346    0.3398 C.2       1 <0>         0.1462
      8 N1          2.8174   -0.0007    0.7382 N.2       1 <0>        -0.4433
      9 C8          2.5376    1.1524    0.0965 C.2       1 <0>         0.0682
     10 C9          3.6019    1.4160   -0.7423 C.2       1 <0>         0.0259
     11 O1          4.4883    0.4114   -0.5644 O.3       1 <0>        -0.1784
     12 C10         3.7452    2.5689   -1.6506 C.ar      1 <0>         0.0129
     13 C11         2.7014    2.9457   -2.5071 C.ar      1 <0>        -0.1358
     14 C12         2.8775    4.0325   -3.3363 C.ar      1 <0>         0.1128
     15 N2          4.0116    4.7079   -3.3376 N.ar      1 <0>        -0.4667
     16 C13         5.0212    4.3848   -2.5511 C.ar      1 <0>         0.1091
     17 C14         4.9311    3.3154   -1.6862 C.ar      1 <0>        -0.1485
     18 C15         1.3168    1.9763    0.2567 C.ar      1 <0>        -0.0432
     19 C16         0.0669    1.3643    0.3485 C.ar      1 <0>        -0.0546
     20 C17        -1.0674    2.1360    0.4919 C.ar      1 <0>        -0.1524
     21 C18        -0.9655    3.5165    0.5554 C.ar      1 <0>         0.1208
     22 C19         0.2740    4.1292    0.4647 C.ar      1 <0>        -0.1499
     23 C20         1.4137    3.3663    0.3159 C.ar      1 <0>        -0.0643
     24 F1         -2.0789    4.2678    0.7007 F         1 <0>        -0.1300
     25 O2          3.8139   -2.8201    0.5264 O.3       1 <0>        -0.5334
     26 H1          8.6600   -4.1124    2.1522 H         1 <0>         0.1237
     27 H2          7.8125   -3.9751    3.7115 H         1 <0>         0.1235
     28 H3          7.1653   -5.0359    2.4371 H         1 <0>         0.1252
     29 H4          6.0830   -3.9883    0.4521 H         1 <0>         0.1429
     30 H5          7.6652   -3.2235    0.1701 H         1 <0>         0.1371
     31 H6          5.8384   -1.9665   -0.9536 H         1 <0>         0.1278
     32 H7          6.6162   -0.9854    0.3121 H         1 <0>         0.1093
     33 H8          5.4750   -0.7303    2.5616 H         1 <0>         0.1040
     34 H9          3.9118   -1.5355    2.8424 H         1 <0>         0.1296
     35 H10         4.9970   -3.7453    2.5920 H         1 <0>         0.1404
     36 H11         5.7815   -2.8022    3.8814 H         1 <0>         0.1374
     37 H12         1.7723    2.3952   -2.5144 H         1 <0>         0.1422
     38 H13         2.0780    4.3331   -3.9973 H         1 <0>         0.1688
     39 H14         5.9307    4.9662   -2.5861 H         1 <0>         0.1666
     40 H15         5.7612    3.0568   -1.0456 H         1 <0>         0.1390
     41 H16        -0.0131    0.2883    0.3028 H         1 <0>         0.1374
     42 H17        -2.0362    1.6633    0.5586 H         1 <0>         0.1449
     43 H18         0.3480    5.2057    0.5103 H         1 <0>         0.1444
     44 H19         2.3794    3.8448    0.2449 H         1 <0>         0.1305
     45 H20         2.9413   -2.7831    0.9413 H         1 <0>         0.4043
     46 N3          6.9077   -2.9545    2.1125 N.4       1 <0>        -0.3987
     47 H21         7.4340   -2.0892    2.2813 H         1 <0>         0.4282
@<TRIPOS>BOND
     1    1   26 1
     2    1   27 1
     3    1   28 1
     4    1   46 1
     5    2    3 1
     6    2   29 1
     7    2   30 1
     8    2   46 1
     9    3    4 1
    10    3   31 1
    11    3   32 1
    12    4    5 1
    13    4    7 1
    14    4   25 1
    15    5    6 1
    16    5   33 1
    17    5   34 1
    18    6   35 1
    19    6   36 1
    20    6   46 1
    21    7   11 1
    22    7    8 2
    23    8    9 1
    24    9   10 2
    25    9   18 1
    26   10   11 1
    27   10   12 1
    28   12   17 ar
    29   12   13 ar
    30   13   14 ar
    31   13   37 1
    32   14   15 ar
    33   14   38 1
    34   15   16 ar
    35   16   17 ar
    36   16   39 1
    37   17   40 1
    38   18   23 ar
    39   18   19 ar
    40   19   20 ar
    41   19   41 1
    42   20   21 ar
    43   20   42 1
    44   21   22 ar
    45   21   24 1
    46   22   23 ar
    47   22   43 1
    48   23   44 1
    49   25   45 1
    50   46   47 1
@<TRIPOS>MOLECULE
ZINC00007301
   28    30     0     0     0
SMALL
USER_CHARGES
4-[5-(4-fluorophenyl)-3H-imidazol-4-yl]pyridine
@<TRIPOS>ATOM
      1 C1         -0.0126    1.0758    0.0080 C.ar      1 <0>        -0.0609
      2 C2          1.1719    1.7829    0.0004 C.ar      1 <0>        -0.1530
      3 C3          1.1544    3.1684    0.0076 C.ar      1 <0>         0.1035
      4 C4         -0.0516    3.8505    0.0229 C.ar      1 <0>        -0.1516
      5 C5         -1.2414    3.1524    0.0314 C.ar      1 <0>        -0.0738
      6 C6         -1.2291    1.7578    0.0174 C.ar      1 <0>        -0.0195
      7 C7         -2.5040    1.0033    0.0193 C.2       1 <0>         0.0742
      8 C8         -3.6712    1.3683    0.6662 C.2       1 <0>         0.0152
      9 N1         -4.5870    0.3774    0.3922 N.pl3     1 <0>        -0.5598
     10 H1         -5.5334    0.3404    0.7130 H         1 <0>         0.4317
     11 C9         -3.9714   -0.5349   -0.3895 C.2       1 <0>         0.2081
     12 N2         -2.7423   -0.1605   -0.6126 N.2       1 <0>        -0.4786
     13 C10        -3.8906    2.5764    1.4845 C.ar      1 <0>         0.0270
     14 C11        -2.9469    2.9819    2.4379 C.ar      1 <0>        -0.1463
     15 C12        -3.1905    4.1199    3.1766 C.ar      1 <0>         0.1070
     16 N3         -4.2977    4.8171    3.0028 N.ar      1 <0>        -0.4807
     17 C13        -5.2147    4.4681    2.1198 C.ar      1 <0>         0.1063
     18 C14        -5.0512    3.3473    1.3343 C.ar      1 <0>        -0.1677
     19 F1          2.3170    3.8565   -0.0007 F         1 <0>        -0.1378
     20 H2          0.0021   -0.0041    0.0020 H         1 <0>         0.1386
     21 H3          2.1144    1.2557   -0.0114 H         1 <0>         0.1394
     22 H4         -0.0602    4.9304    0.0284 H         1 <0>         0.1381
     23 H5         -2.1809    3.6849    0.0436 H         1 <0>         0.1289
     24 H6         -4.4281   -1.4346   -0.7747 H         1 <0>         0.2163
     25 H7         -2.0409    2.4137    2.5887 H         1 <0>         0.1396
     26 H8         -2.4676    4.4427    3.9112 H         1 <0>         0.1618
     27 H9         -6.1056    5.0689    2.0116 H         1 <0>         0.1601
     28 H10        -5.8057    3.0678    0.6139 H         1 <0>         0.1338
@<TRIPOS>BOND
     1    1    6 ar
     2    1    2 ar
     3    1   20 1
     4    2    3 ar
     5    2   21 1
     6    3    4 ar
     7    3   19 1
     8    4    5 ar
     9    4   22 1
    10    5    6 ar
    11    5   23 1
    12    6    7 1
    13    7   12 1
    14    7    8 2
    15    8    9 1
    16    8   13 1
    17    9   10 1
    18    9   11 1
    19   11   12 2
    20   11   24 1
    21   13   18 ar
    22   13   14 ar
    23   14   15 ar
    24   14   25 1
    25   15   16 ar
    26   15   26 1
    27   16   17 ar
    28   17   18 ar
    29   17   27 1
    30   18   28 1
@<TRIPOS>MOLECULE
ZINC00007301
   29    31     0     0     0
SMALL
USER_CHARGES
4-[5-(4-fluorophenyl)-3H-imidazol-4-yl]pyridine
@<TRIPOS>ATOM
      1 C1         -0.0126    1.0758    0.0080 C.ar      1 <0>        -0.0620
      2 C2          1.1719    1.7829    0.0004 C.ar      1 <0>        -0.1474
      3 C3          1.1544    3.1684    0.0076 C.ar      1 <0>         0.1433
      4 C4         -0.0516    3.8505    0.0229 C.ar      1 <0>        -0.1465
      5 C5         -1.2414    3.1524    0.0314 C.ar      1 <0>        -0.0465
      6 C6         -1.2291    1.7578    0.0174 C.ar      1 <0>        -0.0854
      7 C7         -2.5040    1.0033    0.0193 C.2       1 <0>         0.1093
      8 C8         -3.6712    1.3683    0.6662 C.2       1 <0>         0.1083
      9 N1         -4.5870    0.3774    0.3922 N.pl3     1 <0>        -0.5069
     10 H1         -5.5334    0.3404    0.7130 H         1 <0>         0.4760
     11 C9         -3.9714   -0.5349   -0.3895 C.cat     1 <0>         0.3153
     12 C10        -3.8906    2.5764    1.4845 C.ar      1 <0>        -0.0221
     13 C11        -2.9469    2.9819    2.4379 C.ar      1 <0>        -0.1327
     14 C12        -3.1905    4.1199    3.1766 C.ar      1 <0>         0.1168
     15 N2         -4.2977    4.8171    3.0028 N.ar      1 <0>        -0.4577
     16 C13        -5.2147    4.4681    2.1198 C.ar      1 <0>         0.1168
     17 C14        -5.0512    3.3473    1.3343 C.ar      1 <0>        -0.1484
     18 F1          2.3170    3.8565   -0.0007 F         1 <0>        -0.1203
     19 H2          0.0021   -0.0041    0.0020 H         1 <0>         0.1381
     20 H3          2.1144    1.2557   -0.0114 H         1 <0>         0.1528
     21 H4         -0.0602    4.9304    0.0284 H         1 <0>         0.1528
     22 H5         -2.1809    3.6849    0.0436 H         1 <0>         0.1397
     23 H6         -4.4281   -1.4346   -0.7747 H         1 <0>         0.2704
     24 H7         -2.0409    2.4137    2.5887 H         1 <0>         0.1461
     25 H8         -2.4676    4.4427    3.9112 H         1 <0>         0.1721
     26 H9         -6.1056    5.0689    2.0116 H         1 <0>         0.1715
     27 H10        -5.8057    3.0678    0.6139 H         1 <0>         0.1425
     28 N3         -2.7419   -0.1608   -0.6129 N.pl3     1 <0>        -0.4793
     29 H11        -2.0605   -0.6752   -1.1833 H         1 <0>         0.4836
@<TRIPOS>BOND
     1    1    6 ar
     2    1    2 ar
     3    1   19 1
     4    2    3 ar
     5    2   20 1
     6    3    4 ar
     7    3   18 1
     8    4    5 ar
     9    4   21 1
    10    5    6 ar
    11    5   22 1
    12    6    7 1
    13    7    8 2
    14    7   28 1
    15    8    9 1
    16    8   12 1
    17    9   10 1
    18    9   11 1
    19   11   23 1
    20   11   28 2
    21   12   17 ar
    22   12   13 ar
    23   13   14 ar
    24   13   24 1
    25   14   15 ar
    26   14   25 1
    27   15   16 ar
    28   16   17 ar
    29   16   26 1
    30   17   27 1
    31   28   29 1
@<TRIPOS>MOLECULE
ZINC03832073
   39    42     0     0     0
SMALL
USER_CHARGES

@<TRIPOS>ATOM
      1 C1          0.4374    0.9197    0.3645 C.ar      1 <0>        -0.0693
      2 C2          1.7301    1.3958    0.4360 C.ar      1 <0>        -0.1506
      3 C3          2.7999    0.5258    0.3005 C.ar      1 <0>         0.1017
      4 C4          2.5777   -0.8261    0.0927 C.ar      1 <0>        -0.1512
      5 C5          1.2889   -1.3124    0.0196 C.ar      1 <0>        -0.0734
      6 C6          0.2082   -0.4406    0.1555 C.ar      1 <0>        -0.0067
      7 C7         -1.1771   -0.9571    0.0784 C.2       1 <0>        -0.2402
      8 C8         -1.7925   -1.5086   -1.0319 C.2       1 <0>         0.2412
      9 N1         -3.0722   -1.8595   -0.6780 N.pl3     1 <0>        -0.4871
     10 N2         -3.2874   -1.5349    0.6650 N.am      1 <0>        -0.3483
     11 C9         -2.1609   -0.9894    1.1656 C.2       1 <0>         0.5466
     12 O1         -1.9928   -0.5949    2.3051 O.2       1 <0>        -0.5036
     13 C10        -4.4746   -1.7467    1.3740 C.ar      1 <0>         0.1667
     14 C11        -4.5640   -1.3727    2.7086 C.ar      1 <0>        -0.1264
     15 C12        -5.7372   -1.5830    3.4062 C.ar      1 <0>        -0.0733
     16 C13        -6.8231   -2.1657    2.7767 C.ar      1 <0>        -0.0529
     17 C14        -6.7367   -2.5392    1.4470 C.ar      1 <0>        -0.0769
     18 C15        -5.5678   -2.3260    0.7430 C.ar      1 <0>        -0.1459
     19 Cl1        -8.2961   -2.4290    3.6567 Cl        1 <0>        -0.0601
     20 C16        -1.1805   -1.6879   -2.3638 C.ar      1 <0>        -0.0076
     21 C17        -1.3085   -2.8974   -3.0583 C.ar      1 <0>        -0.1514
     22 C18        -0.7205   -3.0205   -4.3008 C.ar      1 <0>         0.1068
     23 N3         -0.0466   -2.0198   -4.8336 N.ar      1 <0>        -0.4700
     24 C19         0.0985   -0.8643   -4.2146 C.ar      1 <0>         0.1090
     25 C20        -0.4605   -0.6511   -2.9709 C.ar      1 <0>        -0.1268
     26 F1          4.0641    0.9971    0.3707 F         1 <0>        -0.1386
     27 H1         -0.3958    1.5980    0.4747 H         1 <0>         0.1330
     28 H2          1.9086    2.4487    0.5975 H         1 <0>         0.1383
     29 H3          3.4150   -1.5000   -0.0127 H         1 <0>         0.1371
     30 H4          1.1167   -2.3662   -0.1427 H         1 <0>         0.1295
     31 H5         -3.7250   -2.2682   -1.2677 H         1 <0>         0.4460
     32 H6         -3.7167   -0.9183    3.2005 H         1 <0>         0.1682
     33 H7         -5.8071   -1.2927    4.4441 H         1 <0>         0.1465
     34 H8         -7.5857   -2.9937    0.9580 H         1 <0>         0.1434
     35 H9         -5.5025   -2.6133   -0.2960 H         1 <0>         0.1302
     36 H10        -1.8586   -3.7212   -2.6280 H         1 <0>         0.1400
     37 H11        -0.8132   -3.9493   -4.8441 H         1 <0>         0.1645
     38 H12         0.6590   -0.0726   -4.6893 H         1 <0>         0.1660
     39 H13        -0.3412    0.2991   -2.4717 H         1 <0>         0.1454
@<TRIPOS>BOND
     1    1    6 ar
     2    1    2 ar
     3    1   27 1
     4    2    3 ar
     5    2   28 1
     6    3    4 ar
     7    3   26 1
     8    4    5 ar
     9    4   29 1
    10    5    6 ar
    11    5   30 1
    12    6    7 1
    13    7    8 2
    14    7   11 1
    15    8    9 1
    16    8   20 1
    17    9   10 1
    18    9   31 1
    19   10   11 am
    20   10   13 1
    21   11   12 2
    22   13   18 ar
    23   13   14 ar
    24   14   15 ar
    25   14   32 1
    26   15   16 ar
    27   15   33 1
    28   16   17 ar
    29   16   19 1
    30   17   18 ar
    31   17   34 1
    32   18   35 1
    33   20   25 ar
    34   20   21 ar
    35   21   22 ar
    36   21   36 1
    37   22   23 ar
    38   22   37 1
    39   23   24 ar
    40   24   25 ar
    41   24   38 1
    42   25   39 1
