@<TRIPOS>MOLECULE
ZINC03780014
   56    57     0     0     0
SMALL
USER_CHARGES

@<TRIPOS>ATOM
      1 C1         -4.9014   -2.7959   -0.2874 C.3       1 <0>        -0.1475
      2 C2         -3.5376   -2.8042   -0.9809 C.3       1 <0>        -0.0930
      3 C3         -3.1945   -1.3884   -1.4484 C.3       1 <0>        -0.1554
      4 C4         -2.4693   -3.2902    0.0006 C.3       1 <0>        -0.1061
      5 C5         -1.1289   -3.4171   -0.7262 C.3       1 <0>        -0.1051
      6 H1         -0.8997   -2.4792   -1.2321 H         1 <0>         0.1276
      7 C6         -1.2122   -4.5451   -1.7565 C.3       1 <0>        -0.1172
      8 C7         -1.5195   -3.9649   -3.1129 C.2       1 <0>         0.5263
      9 O1         -1.2277   -2.8140   -3.3604 O.2       1 <0>        -0.5111
     10 N1         -2.1186   -4.7249   -4.0510 N.am      1 <0>        -0.5983
     11 O2         -2.4073   -4.1798   -5.3255 O.3       1 <0>        -0.3184
     12 C8         -0.0436   -3.7277    0.2721 C.2       1 <0>         0.5307
     13 O3          0.4797   -4.8218    0.2782 O.2       1 <0>        -0.5430
     14 N2          0.3456   -2.7896    1.1581 N.am      1 <0>        -0.6970
     15 C9          1.4614   -3.0597    2.0683 C.3       1 <0>         0.1359
     16 H2          2.1702   -3.7318    1.5846 H         1 <0>         0.1120
     17 C10         2.1624   -1.7460    2.4196 C.3       1 <0>        -0.0434
     18 C11         2.7912   -1.1648    1.1795 C.2       1 <0>        -0.1770
     19 C12         4.0613   -1.3280    0.7767 C.2       1 <0>         0.0630
     20 N3          4.2699   -0.6520   -0.3945 N.pl3     1 <0>        -0.5937
     21 H3          5.1101   -0.6216   -0.8783 H         1 <0>         0.4168
     22 C13         3.1096   -0.0211   -0.7839 C.ar      1 <0>         0.0948
     23 C14         2.1307   -0.3199    0.1817 C.ar      1 <0>        -0.0926
     24 C15         0.8375    0.1869    0.0425 C.ar      1 <0>        -0.0773
     25 C16         0.5277    0.9690   -1.0346 C.ar      1 <0>        -0.1349
     26 C17         1.4886    1.2632   -1.9919 C.ar      1 <0>        -0.0949
     27 C18         2.7736    0.7811   -1.8692 C.ar      1 <0>        -0.1271
     28 C19         0.9385   -3.7024    3.3271 C.2       1 <0>         0.5025
     29 O4         -0.2172   -3.5389    3.6565 O.2       1 <0>        -0.5287
     30 N4          1.7552   -4.4590    4.0868 N.am      1 <0>        -0.7323
     31 C20         1.2469   -5.0838    5.3105 C.3       1 <0>         0.0869
     32 H4         -5.6625   -2.4497   -0.9866 H         1 <0>         0.0552
     33 H5         -5.1458   -3.8046    0.0457 H         1 <0>         0.0533
     34 H6         -4.8674   -2.1275    0.5729 H         1 <0>         0.0568
     35 H7         -3.5716   -3.4727   -1.8412 H         1 <0>         0.0647
     36 H8         -3.2493   -0.7032   -0.6024 H         1 <0>         0.0525
     37 H9         -2.1857   -1.3764   -1.8609 H         1 <0>         0.0736
     38 H10        -3.9042   -1.0768   -2.2148 H         1 <0>         0.0517
     39 H11        -2.3735   -2.5744    0.8171 H         1 <0>         0.0747
     40 H12        -2.7588   -4.2617    0.4012 H         1 <0>         0.0715
     41 H13        -0.2596   -5.0735   -1.7946 H         1 <0>         0.1205
     42 H14        -2.0020   -5.2401   -1.4712 H         1 <0>         0.0973
     43 H15        -2.3519   -5.6454   -3.8530 H         1 <0>         0.4079
     44 H16        -2.8369   -4.7999   -5.9305 H         1 <0>         0.3870
     45 H17        -0.1130   -1.9356    1.1932 H         1 <0>         0.4054
     46 H18         1.4341   -1.0418    2.8219 H         1 <0>         0.0844
     47 H19         2.9354   -1.9346    3.1647 H         1 <0>         0.0914
     48 H20         4.8080   -1.9070    1.2999 H         1 <0>         0.1699
     49 H21         0.0845   -0.0385    0.7831 H         1 <0>         0.1149
     50 H22        -0.4730    1.3609   -1.1419 H         1 <0>         0.1230
     51 H23         1.2283    1.8821   -2.8378 H         1 <0>         0.1250
     52 H24         3.5139    1.0147   -2.6201 H         1 <0>         0.1186
     53 H25         2.6795   -4.5898    3.8233 H         1 <0>         0.4024
     54 H26         2.0457   -5.6518    5.7873 H         1 <0>         0.0763
     55 H27         0.8932   -4.3111    5.9931 H         1 <0>         0.0605
     56 H28         0.4236   -5.7533    5.0616 H         1 <0>         0.0594
@<TRIPOS>BOND
     1    1    2 1
     2    1   32 1
     3    1   33 1
     4    1   34 1
     5    2    3 1
     6    2    4 1
     7    2   35 1
     8    3   36 1
     9    3   37 1
    10    3   38 1
    11    4    5 1
    12    4   39 1
    13    4   40 1
    14    5    6 1
    15    5    7 1
    16    5   12 1
    17    7    8 1
    18    7   41 1
    19    7   42 1
    20    8    9 2
    21    8   10 am
    22   10   11 1
    23   10   43 1
    24   11   44 1
    25   12   13 2
    26   12   14 am
    27   14   15 1
    28   14   45 1
    29   15   16 1
    30   15   17 1
    31   15   28 1
    32   17   18 1
    33   17   46 1
    34   17   47 1
    35   18   23 1
    36   18   19 2
    37   19   20 1
    38   19   48 1
    39   20   21 1
    40   20   22 1
    41   22   27 ar
    42   22   23 ar
    43   23   24 ar
    44   24   25 ar
    45   24   49 1
    46   25   26 ar
    47   25   50 1
    48   26   27 ar
    49   26   51 1
    50   27   52 1
    51   28   29 2
    52   28   30 am
    53   30   31 1
    54   30   53 1
    55   31   54 1
    56   31   55 1
    57   31   56 1
@<TRIPOS>MOLECULE
ZINC34801833
   79    81     0     0     0
SMALL
USER_CHARGES

@<TRIPOS>ATOM
      1 C1          0.8360   -1.2830   -2.3872 C.3       1 <0>        -0.1477
      2 C2          0.3647   -1.0920   -0.9442 C.3       1 <0>        -0.1318
      3 C3          1.1800   -1.9962   -0.0176 C.3       1 <0>        -0.1149
      4 C4          0.7087   -1.8053    1.4255 C.3       1 <0>        -0.0735
      5 H1         -0.3657   -1.9797    1.4829 H         1 <0>         0.1081
      6 C5          1.4359   -2.7976    2.3350 C.3       1 <0>        -0.1038
      7 H2          1.0332   -2.7269    3.3454 H         1 <0>         0.0969
      8 C6          1.2344   -4.2183    1.8040 C.3       1 <0>        -0.1058
      9 C7          1.8505   -5.2206    2.7822 C.3       1 <0>        -0.1134
     10 C8          1.1005   -5.1599    4.1144 C.3       1 <0>        -0.1555
     11 C9          1.7441   -6.6318    2.2008 C.3       1 <0>        -0.1422
     12 C10         2.9075   -2.4737    2.3570 C.2       1 <0>         0.5184
     13 O1          3.3836   -1.7575    1.5017 O.2       1 <0>        -0.5075
     14 N1          3.6946   -2.9797    3.3270 N.am      1 <0>        -0.7104
     15 C11         5.1039   -2.5875    3.4058 C.3       1 <0>         0.1312
     16 H3          5.2115   -1.5455    3.1046 H         1 <0>         0.1113
     17 C12         5.6069   -2.7627    4.8408 C.3       1 <0>        -0.1212
     18 C13         6.7891   -1.8497    5.1112 C.3       1 <0>        -0.1192
     19 C14         8.0328   -2.2063    4.3177 C.3       1 <0>        -0.1427
     20 C15         7.8143   -1.9637    2.8231 C.3       1 <0>         0.1049
     21 N2          7.2015   -3.1661    2.2354 N.am      1 <0>        -0.5999
     22 C16         5.9292   -3.4690    2.4921 C.2       1 <0>         0.5106
     23 O2          5.4323   -4.4578    1.9957 O.2       1 <0>        -0.5284
     24 C17         7.9937   -4.0322    1.3587 C.3       1 <0>         0.1526
     25 C18         8.6793   -5.0904    2.1840 C.ar      1 <0>        -0.0914
     26 C19         9.9366   -4.8511    2.7079 C.ar      1 <0>        -0.1040
     27 C20        10.5681   -5.8196    3.4658 C.ar      1 <0>        -0.1068
     28 C21         9.9444   -7.0297    3.7014 C.ar      1 <0>        -0.1190
     29 C22         8.6831   -7.2723    3.1770 C.ar      1 <0>         0.0824
     30 C23         8.0490   -6.2962    2.4213 C.ar      1 <0>        -0.1068
     31 O3          8.0675   -8.4617    3.4072 O.3       1 <0>        -0.2594
     32 C24         8.0287   -9.3665    2.3942 C.ar      1 <0>         0.1223
     33 C25         8.7067   -9.1138    1.2103 C.ar      1 <0>        -0.1928
     34 C26         8.6656  -10.0353    0.1820 C.ar      1 <0>        -0.0819
     35 C27         7.9493  -11.2085    0.3316 C.ar      1 <0>        -0.1524
     36 C28         7.2724  -11.4626    1.5102 C.ar      1 <0>        -0.0825
     37 C29         7.3157  -10.5474    2.5441 C.ar      1 <0>        -0.1462
     38 C30         1.0138   -0.3985    1.8715 C.2       1 <0>         0.5295
     39 O4          1.5228    0.3857    1.0990 O.2       1 <0>        -0.4899
     40 N3          0.7208   -0.0118    3.1290 N.am      1 <0>        -0.6048
     41 O5          0.9087    1.3371    3.5168 O.3       1 <0>        -0.3187
     42 H4          0.6968   -2.3236   -2.6802 H         1 <0>         0.0492
     43 H5          0.2551   -0.6388   -3.0474 H         1 <0>         0.0512
     44 H6          1.8917   -1.0226   -2.4621 H         1 <0>         0.0543
     45 H7          0.5039   -0.0514   -0.6512 H         1 <0>         0.0801
     46 H8         -0.6911   -1.3525   -0.8693 H         1 <0>         0.0508
     47 H9          1.0408   -3.0368   -0.3106 H         1 <0>         0.0699
     48 H10         2.2358   -1.7358   -0.0925 H         1 <0>         0.1047
     49 H11         0.1681   -4.4198    1.7008 H         1 <0>         0.0815
     50 H12         1.7181   -4.3149    0.8320 H         1 <0>         0.0800
     51 H13         2.8994   -4.9724    2.9441 H         1 <0>         0.0857
     52 H14         1.1763   -4.1545    4.5285 H         1 <0>         0.0506
     53 H15         0.0515   -5.4081    3.9524 H         1 <0>         0.0607
     54 H16         1.5394   -5.8740    4.8112 H         1 <0>         0.0587
     55 H17         2.2784   -6.6750    1.2517 H         1 <0>         0.0559
     56 H18         2.1830   -7.3459    2.8977 H         1 <0>         0.0552
     57 H19         0.6952   -6.8800    2.0389 H         1 <0>         0.0540
     58 H20         3.3279   -3.6035    3.9729 H         1 <0>         0.4040
     59 H21         4.8018   -2.5224    5.5352 H         1 <0>         0.0833
     60 H22         5.9118   -3.7984    4.9903 H         1 <0>         0.0732
     61 H23         6.5019   -0.8270    4.8670 H         1 <0>         0.0682
     62 H24         7.0289   -1.8964    6.1735 H         1 <0>         0.0739
     63 H25         8.8657   -1.5934    4.6623 H         1 <0>         0.0807
     64 H26         8.2717   -3.2575    4.4790 H         1 <0>         0.0743
     65 H27         7.1509   -1.1101    2.6843 H         1 <0>         0.0800
     66 H28         8.7718   -1.7681    2.3405 H         1 <0>         0.0894
     67 H29         7.3381   -4.5082    0.6295 H         1 <0>         0.0949
     68 H30         8.7428   -3.4351    0.8386 H         1 <0>         0.0903
     69 H31        10.4261   -3.9061    2.5243 H         1 <0>         0.1270
     70 H32        11.5499   -5.6302    3.8738 H         1 <0>         0.1321
     71 H33        10.4384   -7.7862    4.2930 H         1 <0>         0.1312
     72 H34         7.0653   -6.4810    2.0154 H         1 <0>         0.1354
     73 H35         9.2658   -8.1973    1.0926 H         1 <0>         0.1266
     74 H36         9.1932   -9.8390   -0.7397 H         1 <0>         0.1258
     75 H37         7.9182  -11.9274   -0.4737 H         1 <0>         0.1255
     76 H38         6.7133  -12.3795    1.6244 H         1 <0>         0.1313
     77 H39         6.7908  -10.7485    3.4662 H         1 <0>         0.1315
     78 H40         0.3812   -0.6574    3.7683 H         1 <0>         0.4013
     79 H41         0.6715    1.5186    4.4365 H         1 <0>         0.3841
@<TRIPOS>BOND
     1    1    2 1
     2    1   42 1
     3    1   43 1
     4    1   44 1
     5    2    3 1
     6    2   45 1
     7    2   46 1
     8    3    4 1
     9    3   47 1
    10    3   48 1
    11    4    5 1
    12    4    6 1
    13    4   38 1
    14    6    7 1
    15    6    8 1
    16    6   12 1
    17    8    9 1
    18    8   49 1
    19    8   50 1
    20    9   10 1
    21    9   11 1
    22    9   51 1
    23   10   52 1
    24   10   53 1
    25   10   54 1
    26   11   55 1
    27   11   56 1
    28   11   57 1
    29   12   13 2
    30   12   14 am
    31   14   15 1
    32   14   58 1
    33   15   16 1
    34   15   22 1
    35   15   17 1
    36   17   18 1
    37   17   59 1
    38   17   60 1
    39   18   19 1
    40   18   61 1
    41   18   62 1
    42   19   20 1
    43   19   63 1
    44   19   64 1
    45   20   21 1
    46   20   65 1
    47   20   66 1
    48   21   22 am
    49   21   24 1
    50   22   23 2
    51   24   25 1
    52   24   67 1
    53   24   68 1
    54   25   30 ar
    55   25   26 ar
    56   26   27 ar
    57   26   69 1
    58   27   28 ar
    59   27   70 1
    60   28   29 ar
    61   28   71 1
    62   29   30 ar
    63   29   31 1
    64   30   72 1
    65   31   32 1
    66   32   37 ar
    67   32   33 ar
    68   33   34 ar
    69   33   73 1
    70   34   35 ar
    71   34   74 1
    72   35   36 ar
    73   35   75 1
    74   36   37 ar
    75   36   76 1
    76   37   77 1
    77   38   39 2
    78   38   40 am
    79   40   41 1
    80   40   78 1
    81   41   79 1
@<TRIPOS>MOLECULE
ZINC03817204
   57    60     0     0     0
SMALL
USER_CHARGES
N-[3-(hydroxycarbamoyl)tetrahydropyran-4-yl]-4-[(2-methyl-4-quinolyl)methoxy]benzamide
@<TRIPOS>ATOM
      1 C1         12.4141    3.1742   -1.7598 C.3       1 <0>        -0.1089
      2 C2         11.4831    4.0380   -0.9486 C.ar      1 <0>         0.1630
      3 C3         10.1409    3.6784   -0.8463 C.ar      1 <0>        -0.1467
      4 C4          9.2827    4.4491   -0.1149 C.ar      1 <0>        -0.0354
      5 C5          9.7948    5.5997    0.5139 C.ar      1 <0>        -0.0976
      6 C6          8.9742    6.4369    1.2871 C.ar      1 <0>        -0.1045
      7 C7          9.5085    7.5375    1.8842 C.ar      1 <0>        -0.1108
      8 C8         10.8611    7.8420    1.7429 C.ar      1 <0>        -0.1006
      9 C9         11.6858    7.0499    1.0053 C.ar      1 <0>        -0.0898
     10 C10        11.1713    5.9044    0.3731 C.ar      1 <0>         0.1347
     11 N1         11.9576    5.1075   -0.3575 N.ar      1 <0>        -0.4737
     12 C11         7.8266    4.0813    0.0102 C.3       1 <0>         0.1004
     13 O1          7.5734    2.8819   -0.7242 O.3       1 <0>        -0.3048
     14 C12         6.3008    2.4105   -0.7146 C.ar      1 <0>         0.1580
     15 C13         5.9870    1.2481   -1.4090 C.ar      1 <0>        -0.1557
     16 C14         4.6969    0.7666   -1.4017 C.ar      1 <0>        -0.0164
     17 C15         3.7027    1.4483   -0.6950 C.ar      1 <0>        -0.1704
     18 C16         4.0211    2.6197   -0.0030 C.ar      1 <0>        -0.0409
     19 C17         5.3149    3.0913   -0.0101 C.ar      1 <0>        -0.2169
     20 C18         2.3186    0.9357   -0.6846 C.2       1 <0>         0.5733
     21 O2          2.0423   -0.0810   -1.2914 O.2       1 <0>        -0.5348
     22 N2          1.3611    1.5946   -0.0024 N.am      1 <0>        -0.7140
     23 C19        -0.0127    1.0858    0.0080 C.3       1 <0>         0.1668
     24 H1          0.0021   -0.0041    0.0020 H         1 <0>         0.1056
     25 C20        -0.7571    1.5950   -1.2301 C.3       1 <0>        -0.1669
     26 C21        -0.8432    3.1225   -1.1717 C.3       1 <0>         0.0562
     27 O3         -1.4965    3.5173    0.0364 O.3       1 <0>        -0.3681
     28 C22        -0.8185    3.1096    1.2264 C.3       1 <0>         0.0694
     29 C23        -0.7333    1.5816    1.2655 C.3       1 <0>        -0.1429
     30 H2         -1.7385    1.1615    1.2989 H         1 <0>         0.1298
     31 C24         0.0338    1.1498    2.4887 C.2       1 <0>         0.5253
     32 O4          1.0563    0.5087    2.3683 O.2       1 <0>        -0.4961
     33 N3         -0.4164    1.4762    3.7165 N.am      1 <0>        -0.5966
     34 O5          0.3044    1.0705    4.8658 O.3       1 <0>        -0.3156
     35 H3         12.4256    3.5227   -2.7926 H         1 <0>         0.0833
     36 H4         13.4202    3.2348   -1.3447 H         1 <0>         0.0807
     37 H5         12.0700    2.1405   -1.7290 H         1 <0>         0.0794
     38 H6          9.7794    2.7913   -1.3451 H         1 <0>         0.1477
     39 H7          7.9245    6.2112    1.4039 H         1 <0>         0.1273
     40 H8          8.8758    8.1833    2.4750 H         1 <0>         0.1297
     41 H9         11.2610    8.7211    2.2263 H         1 <0>         0.1324
     42 H10        12.7318    7.3001    0.9062 H         1 <0>         0.1378
     43 H11         7.2124    4.8883   -0.3891 H         1 <0>         0.0868
     44 H12         7.5808    3.9231    1.0603 H         1 <0>         0.0868
     45 H13         6.7560    0.7216   -1.9546 H         1 <0>         0.1410
     46 H14         4.4539   -0.1369   -1.9412 H         1 <0>         0.1457
     47 H15         3.2545    3.1519    0.5407 H         1 <0>         0.1241
     48 H16         5.5628    3.9938    0.5288 H         1 <0>         0.1337
     49 H17         1.5815    2.4058    0.4817 H         1 <0>         0.3938
     50 H18        -0.2187    1.2932   -2.1285 H         1 <0>         0.0910
     51 H19        -1.7628    1.1751   -1.2488 H         1 <0>         0.0883
     52 H20        -1.4106    3.4876   -2.0278 H         1 <0>         0.1034
     53 H21         0.1620    3.5433   -1.1956 H         1 <0>         0.0546
     54 H22        -1.3680    3.4655    2.0979 H         1 <0>         0.1044
     55 H23         0.1872    3.5301    1.2340 H         1 <0>         0.0563
     56 H24        -1.2341    1.9889    3.8127 H         1 <0>         0.4078
     57 H25        -0.0958    1.3509    5.7003 H         1 <0>         0.3895
@<TRIPOS>BOND
     1    1    2 1
     2    1   35 1
     3    1   36 1
     4    1   37 1
     5    2   11 ar
     6    2    3 ar
     7    3    4 ar
     8    3   38 1
     9    4    5 ar
    10    4   12 1
    11    5   10 ar
    12    5    6 ar
    13    6    7 ar
    14    6   39 1
    15    7    8 ar
    16    7   40 1
    17    8    9 ar
    18    8   41 1
    19    9   10 ar
    20    9   42 1
    21   10   11 ar
    22   12   13 1
    23   12   43 1
    24   12   44 1
    25   13   14 1
    26   14   19 ar
    27   14   15 ar
    28   15   16 ar
    29   15   45 1
    30   16   17 ar
    31   16   46 1
    32   17   18 ar
    33   17   20 1
    34   18   19 ar
    35   18   47 1
    36   19   48 1
    37   20   21 2
    38   20   22 am
    39   22   23 1
    40   22   49 1
    41   23   24 1
    42   23   29 1
    43   23   25 1
    44   25   26 1
    45   25   50 1
    46   25   51 1
    47   26   27 1
    48   26   52 1
    49   26   53 1
    50   27   28 1
    51   28   29 1
    52   28   54 1
    53   28   55 1
    54   29   30 1
    55   29   31 1
    56   31   32 2
    57   31   33 am
    58   33   34 1
    59   33   56 1
    60   34   57 1
