@<TRIPOS>MOLECULE
ZINC14977637
   59    62     0     0     0
SMALL
USER_CHARGES
6-[(3,5-dimethyl-1H-pyrazol-4-yl)methyl]-5-[(4S)-4-hydroxyisoxazolidine-2-carbonyl]-1-isobutyl-3-methyl-thieno[4,5-e]pyrimidine-2,4-dione
@<TRIPOS>ATOM
      1 C1          0.5304    6.6121    1.7516 C.3       1 <0>        -0.1100
      2 C2          1.8542    5.8925    1.7735 C.2       1 <0>         0.1193
      3 C3          2.2274    4.8833    0.9530 C.2       1 <0>        -0.2526
      4 C4          3.5254    4.4996    1.3053 C.2       1 <0>         0.0905
      5 N1          3.9197    5.2553    2.2980 N.2       1 <0>        -0.2914
      6 N2          2.8798    6.1387    2.6153 N.pl3     1 <0>        -0.4748
      7 H1          2.8948    6.8297    3.3380 H         1 <0>         0.4464
      8 C5          4.3329    3.4086    0.6505 C.3       1 <0>        -0.0801
      9 C6          1.3919    4.2794   -0.1463 C.3       1 <0>         0.0461
     10 C7          1.7497    4.9237   -1.4608 C.2       1 <0>        -0.1099
     11 C8          1.1280    5.9564   -2.0930 C.2       1 <0>        -0.0756
     12 C9          1.6661    6.4159   -3.3730 C.2       1 <0>        -0.2207
     13 C10         1.1888    7.5050   -4.2511 C.2       1 <0>         0.5728
     14 O1          0.2173    8.1679   -3.9365 O.2       1 <0>        -0.4882
     15 N3          1.8392    7.7559   -5.4009 N.am      1 <0>        -0.5535
     16 C11         2.9142    7.0436   -5.7769 C.2       1 <0>         0.7066
     17 O2          3.4686    7.3086   -6.8261 O.2       1 <0>        -0.5175
     18 N4          3.3893    6.0407   -5.0126 N.am      1 <0>        -0.4915
     19 C12         2.7851    5.7226   -3.8295 C.2       1 <0>         0.1130
     20 S1          3.0848    4.5129   -2.5682 S.3       1 <0>         0.1811
     21 C13         4.5641    5.2851   -5.4543 C.3       1 <0>         0.1090
     22 C14         4.1144    4.0900   -6.2973 C.3       1 <0>        -0.1138
     23 C15         3.4502    4.5923   -7.5808 C.3       1 <0>        -0.1431
     24 C16         5.3296    3.2316   -6.6542 C.3       1 <0>        -0.1449
     25 C17         1.3625    8.8366   -6.2675 C.3       1 <0>         0.0781
     26 C18        -0.0553    6.5977   -1.5009 C.2       1 <0>         0.6248
     27 O3          0.0600    7.6477   -0.8973 O.2       1 <0>        -0.4931
     28 N5         -1.2675    6.0224   -1.6270 N.am      1 <0>        -0.4758
     29 C19        -2.5104    6.4905   -0.9888 C.3       1 <0>         0.1024
     30 C20        -3.5860    5.4576   -1.4012 C.3       1 <0>         0.0740
     31 H2         -4.1666    5.8169   -2.2508 H         1 <0>         0.0913
     32 C21        -2.7148    4.2373   -1.7992 C.3       1 <0>        -0.0067
     33 O4         -1.5596    4.8668   -2.4029 O.3       1 <0>        -0.1448
     34 O5         -4.4390    5.1397   -0.2997 O.3       1 <0>        -0.5491
     35 H3          0.5934    7.4685    1.0803 H         1 <0>         0.1064
     36 H4         -0.2468    5.9326    1.4017 H         1 <0>         0.0777
     37 H5          0.2869    6.9557    2.7570 H         1 <0>         0.0725
     38 H6          4.9290    3.8329   -0.1574 H         1 <0>         0.0788
     39 H7          4.9931    2.9525    1.3882 H         1 <0>         0.0780
     40 H8          3.6607    2.6514    0.2470 H         1 <0>         0.0767
     41 H9          1.5848    3.2080   -0.2024 H         1 <0>         0.0977
     42 H10         0.3361    4.4479    0.0655 H         1 <0>         0.0916
     43 H11         5.2073    5.9303   -6.0528 H         1 <0>         0.1119
     44 H12         5.1154    4.9290   -4.5841 H         1 <0>         0.0957
     45 H13         3.4016    3.4923   -5.7292 H         1 <0>         0.0766
     46 H14         4.1630    5.1900   -8.1489 H         1 <0>         0.0665
     47 H15         3.1299    3.7409   -8.1813 H         1 <0>         0.0573
     48 H16         2.5845    5.2039   -7.3265 H         1 <0>         0.0468
     49 H17         5.8028    2.8737   -5.7398 H         1 <0>         0.0602
     50 H18         5.0092    2.3802   -7.2547 H         1 <0>         0.0654
     51 H19         6.0424    3.8292   -7.2223 H         1 <0>         0.0618
     52 H20         0.4894    9.3069   -5.8150 H         1 <0>         0.1042
     53 H21         2.1516    9.5783   -6.3908 H         1 <0>         0.0821
     54 H22         1.0917    8.4288   -7.2413 H         1 <0>         0.0819
     55 H23        -2.3968    6.5067    0.0951 H         1 <0>         0.0964
     56 H24        -2.7747    7.4821   -1.3562 H         1 <0>         0.0981
     57 H25        -2.4303    3.6608   -0.9189 H         1 <0>         0.0858
     58 H26        -3.2360    3.6080   -2.5206 H         1 <0>         0.1210
     59 H27        -5.1293    4.4960   -0.5098 H         1 <0>         0.3907
@<TRIPOS>BOND
     1    1    2 1
     2    1   35 1
     3    1   36 1
     4    1   37 1
     5    2    6 1
     6    2    3 2
     7    3    4 1
     8    3    9 1
     9    4    5 2
    10    4    8 1
    11    5    6 1
    12    6    7 1
    13    8   38 1
    14    8   39 1
    15    8   40 1
    16    9   10 1
    17    9   41 1
    18    9   42 1
    19   10   20 1
    20   10   11 2
    21   11   12 1
    22   11   26 1
    23   12   19 2
    24   12   13 1
    25   13   14 2
    26   13   15 am
    27   15   16 am
    28   15   25 1
    29   16   17 2
    30   16   18 am
    31   18   19 1
    32   18   21 1
    33   19   20 1
    34   21   22 1
    35   21   43 1
    36   21   44 1
    37   22   23 1
    38   22   24 1
    39   22   45 1
    40   23   46 1
    41   23   47 1
    42   23   48 1
    43   24   49 1
    44   24   50 1
    45   24   51 1
    46   25   52 1
    47   25   53 1
    48   25   54 1
    49   26   27 2
    50   26   28 am
    51   28   33 1
    52   28   29 1
    53   29   30 1
    54   29   55 1
    55   29   56 1
    56   30   31 1
    57   30   32 1
    58   30   34 1
    59   32   33 1
    60   32   57 1
    61   32   58 1
    62   34   59 1
