@<TRIPOS>MOLECULE
ZINC03815700
   43    46     0     0     0
SMALL
USER_CHARGES

@<TRIPOS>ATOM
      1 C1         -0.4417    2.5108    0.1274 C.3       1 <0>        -0.4980
      2 S1         -0.2285    0.7138    0.0013 S.o       1 <0>         1.3317
      3 O1          0.3381    0.2184    1.2066 O.2       1 <0>        -0.8500
      4 C2         -1.8753    0.0872    0.0153 C.ar      1 <0>        -0.4539
      5 C3         -2.4807   -0.2316    1.2179 C.ar      1 <0>        -0.0505
      6 C4         -3.7698   -0.7226    1.2359 C.ar      1 <0>        -0.0905
      7 C5         -4.4635   -0.8973    0.0374 C.ar      1 <0>         0.0183
      8 C6         -3.8471   -0.5733   -1.1722 C.ar      1 <0>        -0.1282
      9 C7         -2.5593   -0.0786   -1.1759 C.ar      1 <0>        -0.0372
     10 C8         -5.8450   -1.4235    0.0492 C.2       1 <0>         0.2539
     11 N1         -6.6187   -1.6414   -1.0552 N.pl3     1 <0>        -0.5494
     12 H1         -6.3641   -1.4808   -1.9773 H         1 <0>         0.4258
     13 C9         -7.8254   -2.1307   -0.6157 C.2       1 <0>         0.0559
     14 C10        -7.7421   -2.1946    0.7659 C.2       1 <0>         0.0600
     15 N2         -6.5217   -1.7612    1.1224 N.2       1 <0>        -0.4460
     16 C11        -8.8052   -2.6624    1.6841 C.ar      1 <0>         0.0397
     17 C12        -9.5683   -3.7960    1.3824 C.ar      1 <0>        -0.1547
     18 C13       -10.5481   -4.1969    2.2660 C.ar      1 <0>         0.1020
     19 N3        -10.7699   -3.5273    3.3814 N.ar      1 <0>        -0.4829
     20 C14       -10.0734   -2.4536    3.7038 C.ar      1 <0>         0.1009
     21 C15        -9.0708   -1.9865    2.8804 C.ar      1 <0>        -0.1469
     22 C16        -8.9814   -2.5126   -1.4503 C.ar      1 <0>        -0.0400
     23 C17       -10.2631   -2.0665   -1.1192 C.ar      1 <0>        -0.0563
     24 C18       -11.3392   -2.4265   -1.9026 C.ar      1 <0>        -0.1471
     25 C19       -11.1511   -3.2299   -3.0163 C.ar      1 <0>         0.1129
     26 C20        -9.8817   -3.6756   -3.3498 C.ar      1 <0>        -0.1491
     27 C21        -8.7972   -3.3169   -2.5775 C.ar      1 <0>        -0.0765
     28 F1        -12.2093   -3.5802   -3.7797 F         1 <0>        -0.1335
     29 H2          0.5355    2.9936    0.1264 H         1 <0>         0.1086
     30 H3         -1.0243    2.8681   -0.7218 H         1 <0>         0.1118
     31 H4         -0.9645    2.7506    1.0533 H         1 <0>         0.0820
     32 H5         -1.9427   -0.0960    2.1446 H         1 <0>         0.1340
     33 H6         -4.2409   -0.9717    2.1752 H         1 <0>         0.1409
     34 H7         -4.3783   -0.7065   -2.1030 H         1 <0>         0.1252
     35 H8         -2.0825    0.1760   -2.1109 H         1 <0>         0.1447
     36 H9         -9.3927   -4.3483    0.4711 H         1 <0>         0.1333
     37 H10       -11.1422   -5.0705    2.0420 H         1 <0>         0.1579
     38 H11       -10.2890   -1.9361    4.6268 H         1 <0>         0.1588
     39 H12        -8.5017   -1.1100    3.1527 H         1 <0>         0.1379
     40 H13       -10.4110   -1.4411   -0.2513 H         1 <0>         0.1357
     41 H14       -12.3306   -2.0822   -1.6477 H         1 <0>         0.1434
     42 H15        -9.7412   -4.3013   -4.2187 H         1 <0>         0.1424
     43 H16        -7.8079   -3.6609   -2.8410 H         1 <0>         0.1331
@<TRIPOS>BOND
     1    1    2 1
     2    1   29 1
     3    1   30 1
     4    1   31 1
     5    2    3 2
     6    2    4 1
     7    4    9 ar
     8    4    5 ar
     9    5    6 ar
    10    5   32 1
    11    6    7 ar
    12    6   33 1
    13    7    8 ar
    14    7   10 1
    15    8    9 ar
    16    8   34 1
    17    9   35 1
    18   10   15 2
    19   10   11 1
    20   11   12 1
    21   11   13 1
    22   13   14 2
    23   13   22 1
    24   14   15 1
    25   14   16 1
    26   16   21 ar
    27   16   17 ar
    28   17   18 ar
    29   17   36 1
    30   18   19 ar
    31   18   37 1
    32   19   20 ar
    33   20   21 ar
    34   20   38 1
    35   21   39 1
    36   22   27 ar
    37   22   23 ar
    38   23   24 ar
    39   23   40 1
    40   24   25 ar
    41   24   41 1
    42   25   26 ar
    43   25   28 1
    44   26   27 ar
    45   26   42 1
    46   27   43 1
@<TRIPOS>MOLECULE
ZINC18274812
   43    46     0     0     0
SMALL
USER_CHARGES

@<TRIPOS>ATOM
      1 C1          0.0458    2.4645   -0.3714 C.3       1 <0>        -0.4977
      2 S1          0.1034    0.6635   -0.1624 S.o       1 <0>         1.3328
      3 O1          0.9995    0.3374    0.8912 O.2       1 <0>        -0.8522
      4 C2          0.9248    0.0922   -1.6127 C.ar      1 <0>        -0.4531
      5 C3          0.1894   -0.2245   -2.7411 C.ar      1 <0>        -0.0385
      6 C4          0.8263   -0.6720   -3.8801 C.ar      1 <0>        -0.0921
      7 C5          2.2157   -0.8050   -3.8925 C.ar      1 <0>         0.0171
      8 C6          2.9515   -0.4838   -2.7508 C.ar      1 <0>        -0.1253
      9 C7          2.3027   -0.0324   -1.6200 C.ar      1 <0>        -0.0497
     10 C8          2.9049   -1.2844   -5.1094 C.2       1 <0>         0.2582
     11 N1          4.2515   -1.4590   -5.2384 N.pl3     1 <0>        -0.5486
     12 H1          4.9216   -1.2936   -4.5568 H         1 <0>         0.4252
     13 C9          4.4814   -1.9147   -6.5171 C.2       1 <0>         0.0337
     14 C10         3.2416   -2.0017   -7.1294 C.2       1 <0>         0.0807
     15 N2          2.3171   -1.6154   -6.2370 N.2       1 <0>        -0.4488
     16 C11         2.9826   -2.4473   -8.5186 C.ar      1 <0>        -0.0206
     17 C12         3.6496   -3.5590   -9.0325 C.ar      1 <0>        -0.0694
     18 C13         3.4051   -3.9700  -10.3265 C.ar      1 <0>        -0.1511
     19 C14         2.4988   -3.2799  -11.1154 C.ar      1 <0>         0.1060
     20 C15         1.8337   -2.1747  -10.6093 C.ar      1 <0>        -0.1526
     21 C16         2.0668   -1.7598   -9.3145 C.ar      1 <0>        -0.0599
     22 F1          2.2634   -3.6856  -12.3824 F         1 <0>        -0.1371
     23 C17         5.7881   -2.2443   -7.1163 C.ar      1 <0>         0.0226
     24 C18         6.1399   -1.7662   -8.3862 C.ar      1 <0>        -0.1423
     25 C19         7.3716   -2.0992   -8.9074 C.ar      1 <0>         0.1081
     26 N3          8.2131   -2.8565   -8.2286 N.ar      1 <0>        -0.4784
     27 C20         7.9224   -3.3278   -7.0303 C.ar      1 <0>         0.1071
     28 C21         6.7158   -3.0398   -6.4296 C.ar      1 <0>        -0.1652
     29 H2          1.0609    2.8540   -0.4489 H         1 <0>         0.0810
     30 H3         -0.5069    2.7075   -1.2790 H         1 <0>         0.1130
     31 H4         -0.4514    2.9143    0.4881 H         1 <0>         0.1088
     32 H5         -0.8856   -0.1215   -2.7301 H         1 <0>         0.1470
     33 H6          0.2512   -0.9192   -4.7602 H         1 <0>         0.1462
     34 H7          4.0268   -0.5845   -2.7539 H         1 <0>         0.1202
     35 H8          2.8713    0.2203   -0.7373 H         1 <0>         0.1322
     36 H9          4.3566   -4.0971   -8.4186 H         1 <0>         0.1287
     37 H10         3.9211   -4.8308  -10.7253 H         1 <0>         0.1387
     38 H11         1.1282   -1.6400  -11.2280 H         1 <0>         0.1401
     39 H12         1.5446   -0.9009   -8.9194 H         1 <0>         0.1377
     40 H13         5.4562   -1.1467   -8.9476 H         1 <0>         0.1400
     41 H14         7.6520   -1.7358   -9.8850 H         1 <0>         0.1626
     42 H15         8.6418   -3.9441   -6.5116 H         1 <0>         0.1610
     43 H16         6.4868   -3.4248   -5.4469 H         1 <0>         0.1340
@<TRIPOS>BOND
     1    1    2 1
     2    1   29 1
     3    1   30 1
     4    1   31 1
     5    2    3 2
     6    2    4 1
     7    4    9 ar
     8    4    5 ar
     9    5    6 ar
    10    5   32 1
    11    6    7 ar
    12    6   33 1
    13    7    8 ar
    14    7   10 1
    15    8    9 ar
    16    8   34 1
    17    9   35 1
    18   10   15 2
    19   10   11 1
    20   11   12 1
    21   11   13 1
    22   13   14 2
    23   13   23 1
    24   14   15 1
    25   14   16 1
    26   16   21 ar
    27   16   17 ar
    28   17   18 ar
    29   17   36 1
    30   18   19 ar
    31   18   37 1
    32   19   20 ar
    33   19   22 1
    34   20   21 ar
    35   20   38 1
    36   21   39 1
    37   23   28 ar
    38   23   24 ar
    39   24   25 ar
    40   24   40 1
    41   25   26 ar
    42   25   41 1
    43   26   27 ar
    44   27   28 ar
    45   27   42 1
    46   28   43 1
@<TRIPOS>MOLECULE
ZINC18274812
   43    46     0     0     0
SMALL
USER_CHARGES

@<TRIPOS>ATOM
      1 C1          0.0761    2.5207   -0.3946 C.3       1 <0>        -0.4977
      2 S1          0.1067    0.7194   -0.1829 S.o       1 <0>         1.3328
      3 O1          0.9925    0.3819    0.8757 O.2       1 <0>        -0.8523
      4 C2          0.9273    0.1342   -1.6283 C.ar      1 <0>        -0.4535
      5 C3          0.1933   -0.1734   -2.7600 C.ar      1 <0>        -0.0382
      6 C4          0.8295   -0.6320   -3.8950 C.ar      1 <0>        -0.0929
      7 C5          2.2169   -0.7850   -3.8999 C.ar      1 <0>         0.0183
      8 C6          2.9514   -0.4724   -2.7550 C.ar      1 <0>        -0.1257
      9 C7          2.3033   -0.0102   -1.6282 C.ar      1 <0>        -0.0496
     10 C8          2.9053   -1.2765   -5.1125 C.2       1 <0>         0.2536
     11 N1          4.2517   -1.4710   -5.2346 N.pl3     1 <0>        -0.5504
     12 H1          4.9205   -1.3136   -4.5499 H         1 <0>         0.4255
     13 C9          4.4817   -1.9314   -6.5089 C.2       1 <0>         0.0556
     14 C10         3.2446   -2.0022   -7.1288 C.2       1 <0>         0.0602
     15 N2          2.3192   -1.6008   -6.2417 N.2       1 <0>        -0.4443
     16 C11         2.9879   -2.4463   -8.5176 C.ar      1 <0>         0.0401
     17 C12         3.6482   -3.5593   -9.0502 C.ar      1 <0>        -0.1549
     18 C13         3.3789   -3.9386  -10.3482 C.ar      1 <0>         0.1021
     19 N3          2.5133   -3.2676  -11.0845 N.ar      1 <0>        -0.4831
     20 C14         1.8693   -2.2129  -10.6212 C.ar      1 <0>         0.1008
     21 C15         2.0741   -1.7682   -9.3321 C.ar      1 <0>        -0.1466
     22 C16         5.7882   -2.2812   -7.1001 C.ar      1 <0>        -0.0406
     23 C17         6.1350   -1.8042   -8.3665 C.ar      1 <0>        -0.0561
     24 C18         7.3568   -2.1344   -8.9137 C.ar      1 <0>        -0.1471
     25 C19         8.2399   -2.9383   -8.2101 C.ar      1 <0>         0.1131
     26 C20         7.9012   -3.4146   -6.9533 C.ar      1 <0>        -0.1492
     27 C21         6.6848   -3.0860   -6.3932 C.ar      1 <0>        -0.0767
     28 F1          9.4352   -3.2593   -8.7516 F         1 <0>        -0.1334
     29 H2          1.0971    2.8954   -0.4674 H         1 <0>         0.0810
     30 H3         -0.4683    2.7703   -1.3054 H         1 <0>         0.1130
     31 H4         -0.4189    2.9788    0.4616 H         1 <0>         0.1087
     32 H5         -0.8802   -0.0546   -2.7549 H         1 <0>         0.1468
     33 H6          0.2554   -0.8725   -4.7775 H         1 <0>         0.1457
     34 H7          4.0251   -0.5889   -2.7522 H         1 <0>         0.1204
     35 H8          2.8708    0.2356   -0.7429 H         1 <0>         0.1321
     36 H9          4.3583   -4.1127   -8.4536 H         1 <0>         0.1329
     37 H10         3.8834   -4.7962  -10.7681 H         1 <0>         0.1577
     38 H11         1.1696   -1.6933  -11.2591 H         1 <0>         0.1590
     39 H12         1.5402   -0.9072   -8.9580 H         1 <0>         0.1385
     40 H13         5.4474   -1.1783   -8.9159 H         1 <0>         0.1360
     41 H14         7.6261   -1.7662   -9.8926 H         1 <0>         0.1436
     42 H15         8.5933   -4.0406   -6.4097 H         1 <0>         0.1423
     43 H16         6.4240   -3.4537   -5.4118 H         1 <0>         0.1327
@<TRIPOS>BOND
     1    1    2 1
     2    1   29 1
     3    1   30 1
     4    1   31 1
     5    2    3 2
     6    2    4 1
     7    4    9 ar
     8    4    5 ar
     9    5    6 ar
    10    5   32 1
    11    6    7 ar
    12    6   33 1
    13    7    8 ar
    14    7   10 1
    15    8    9 ar
    16    8   34 1
    17    9   35 1
    18   10   15 2
    19   10   11 1
    20   11   12 1
    21   11   13 1
    22   13   14 2
    23   13   22 1
    24   14   15 1
    25   14   16 1
    26   16   21 ar
    27   16   17 ar
    28   17   18 ar
    29   17   36 1
    30   18   19 ar
    31   18   37 1
    32   19   20 ar
    33   20   21 ar
    34   20   38 1
    35   21   39 1
    36   22   27 ar
    37   22   23 ar
    38   23   24 ar
    39   23   40 1
    40   24   25 ar
    41   24   41 1
    42   25   26 ar
    43   25   28 1
    44   26   27 ar
    45   26   42 1
    46   27   43 1
@<TRIPOS>MOLECULE
ZINC02575702
   42    43     0     0     0
SMALL
USER_CHARGES

@<TRIPOS>ATOM
      1 C1          2.7792   -0.9284   -4.2869 C.ar      1 <0>        -0.0663
      2 C2          3.5243    0.1685   -3.8942 C.ar      1 <0>        -0.1632
      3 C3          4.1453    0.1812   -2.6595 C.ar      1 <0>        -0.0720
      4 C4          4.0217   -0.9084   -1.8096 C.ar      1 <0>        -0.1866
      5 C5          3.2696   -2.0147   -2.2057 C.ar      1 <0>         0.2459
      6 C6          2.6504   -2.0187   -3.4466 C.ar      1 <0>        -0.1854
      7 N1          3.1411   -3.1172   -1.3539 N.pl3     1 <0>        -0.8705
      8 S1          4.8127   -0.8954   -0.2352 S.3       1 <0>         0.0062
      9 C7          5.7412    0.6021   -0.2370 C.2       1 <0>         0.1816
     10 C8          7.1235    0.5588   -0.2665 C.2       1 <0>        -0.0347
     11 C9          7.7962   -0.6855   -0.4900 C.1       1 <0>         0.2757
     12 N2          8.3299   -1.6725   -0.6673 N.1       1 <0>        -0.3973
     13 C10         7.9101    1.8029   -0.0664 C.2       1 <0>        -0.0932
     14 C11         9.2841    1.7857   -0.2255 C.2       1 <0>         0.2045
     15 N3         10.0132    2.9389   -0.0400 N.pl3     1 <0>        -0.8282
     16 S2         10.1013    0.2879   -0.6656 S.3       1 <0>         0.0436
     17 C12        11.0309   -0.1287    0.7721 C.ar      1 <0>        -0.1954
     18 C13        10.8989    0.6257    1.9289 C.ar      1 <0>        -0.0710
     19 C14        11.6289    0.2966    3.0556 C.ar      1 <0>        -0.1630
     20 C15        12.4923   -0.7835    3.0342 C.ar      1 <0>        -0.0630
     21 C16        12.6303   -1.5410    1.8858 C.ar      1 <0>        -0.1852
     22 C17        11.8977   -1.2218    0.7524 C.ar      1 <0>         0.2542
     23 N4         12.0318   -1.9902   -0.4092 N.pl3     1 <0>        -0.8663
     24 C18         7.2460    3.0202    0.2913 C.1       1 <0>         0.2669
     25 N5          6.7191    3.9858    0.5750 N.1       1 <0>        -0.4225
     26 N6          5.0909    1.8154   -0.2091 N.pl3     1 <0>        -0.8426
     27 H1          2.2926   -0.9314   -5.2511 H         1 <0>         0.1254
     28 H2          3.6215    1.0176   -4.5545 H         1 <0>         0.1228
     29 H3          4.7270    1.0392   -2.3564 H         1 <0>         0.1245
     30 H4          2.0677   -2.8735   -3.7566 H         1 <0>         0.1270
     31 H5          3.5752   -3.1132   -0.4865 H         1 <0>         0.3994
     32 H6          2.6178   -3.8856   -1.6307 H         1 <0>         0.4026
     33 H7          9.5741    3.7452    0.2730 H         1 <0>         0.4022
     34 H8         10.9659    2.9449   -0.2223 H         1 <0>         0.4127
     35 H9         10.2261    1.4703    1.9490 H         1 <0>         0.1213
     36 H10        11.5249    0.8849    3.9552 H         1 <0>         0.1237
     37 H11        13.0608   -1.0358    3.9171 H         1 <0>         0.1265
     38 H12        13.3058   -2.3835    1.8727 H         1 <0>         0.1282
     39 H13        11.5217   -1.7633   -1.2024 H         1 <0>         0.3998
     40 H14        12.6349   -2.7499   -0.4213 H         1 <0>         0.4032
     41 H15         4.2134    1.8861    0.1980 H         1 <0>         0.4085
     42 H16         5.5104    2.5995   -0.5966 H         1 <0>         0.3999
@<TRIPOS>BOND
     1    1    6 ar
     2    1    2 ar
     3    1   27 1
     4    2    3 ar
     5    2   28 1
     6    3    4 ar
     7    3   29 1
     8    4    5 ar
     9    4    8 1
    10    5    6 ar
    11    5    7 1
    12    6   30 1
    13    7   31 1
    14    7   32 1
    15    8    9 1
    16    9   10 2
    17    9   26 1
    18   10   11 1
    19   10   13 1
    20   11   12 3
    21   13   14 2
    22   13   24 1
    23   14   15 1
    24   14   16 1
    25   15   33 1
    26   15   34 1
    27   16   17 1
    28   17   22 ar
    29   17   18 ar
    30   18   19 ar
    31   18   35 1
    32   19   20 ar
    33   19   36 1
    34   20   21 ar
    35   20   37 1
    36   21   22 ar
    37   21   38 1
    38   22   23 1
    39   23   39 1
    40   23   40 1
    41   24   25 3
    42   26   41 1
    43   26   42 1
@<TRIPOS>MOLECULE
ZINC02575702
   42    43     0     0     0
SMALL
USER_CHARGES

@<TRIPOS>ATOM
      1 C1          9.4552   -1.5104   -3.9323 C.ar      1 <0>        -0.0499
      2 C2          8.8116   -0.3156   -3.6661 C.ar      1 <0>        -0.1886
      3 C3          7.7475   -0.2843   -2.7780 C.ar      1 <0>         0.2629
      4 C4          7.3289   -1.4611   -2.1554 C.ar      1 <0>        -0.2252
      5 C5          7.9801   -2.6548   -2.4289 C.ar      1 <0>        -0.0741
      6 C6          9.0407   -2.6762   -3.3156 C.ar      1 <0>        -0.1677
      7 S1          5.9777   -1.4304   -1.0249 S.3       1 <0>         0.0643
      8 C7          5.1850   -2.9855   -1.2658 C.2       1 <0>         0.2299
      9 C8          4.1470   -3.3687   -0.4355 C.2       1 <0>        -0.1359
     10 C9          3.5641   -4.7298   -0.5550 C.2       1 <0>        -0.0675
     11 C10         4.3243   -5.8388   -0.2300 C.2       1 <0>         0.1991
     12 S2          3.6878   -7.4571   -0.5136 S.3       1 <0>         0.0175
     13 C11         3.4774   -8.1220    1.1045 C.ar      1 <0>        -0.1917
     14 C12         3.0948   -9.4540    1.2696 C.ar      1 <0>         0.2474
     15 C13         2.9309   -9.9706    2.5457 C.ar      1 <0>        -0.1850
     16 C14         3.1461   -9.1666    3.6502 C.ar      1 <0>        -0.0631
     17 C15         3.5247   -7.8470    3.4867 C.ar      1 <0>        -0.1610
     18 C16         3.6969   -7.3249    2.2181 C.ar      1 <0>        -0.0697
     19 N1          2.8767  -10.2653    0.1508 N.pl3     1 <0>        -0.8705
     20 N2          5.5785   -5.6780    0.3151 N.pl3     1 <0>        -0.8286
     21 C17         2.2151   -4.8938   -1.0065 C.1       1 <0>         0.2661
     22 N3          1.1449   -5.0239   -1.3648 N.1       1 <0>        -0.4210
     23 C18         3.6345   -2.4532    0.5391 C.1       1 <0>         0.2667
     24 N4          3.2279   -1.7270    1.3123 N.1       1 <0>        -0.4280
     25 N5          5.5987   -3.8193   -2.2804 N.pl3     1 <0>        -0.8391
     26 N6          7.0955    0.9234   -2.5064 N.pl3     1 <0>        -0.8663
     27 H1         10.2813   -1.5336   -4.6276 H         1 <0>         0.1298
     28 H2          9.1382    0.5931   -4.1497 H         1 <0>         0.1307
     29 H3          7.6589   -3.5675   -1.9489 H         1 <0>         0.1379
     30 H4          9.5466   -3.6066   -3.5274 H         1 <0>         0.1285
     31 H5          2.6349  -11.0009    2.6772 H         1 <0>         0.1282
     32 H6          3.0176   -9.5707    4.6434 H         1 <0>         0.1268
     33 H7          3.6907   -7.2234    4.3527 H         1 <0>         0.1248
     34 H8          3.9977   -6.2951    2.0942 H         1 <0>         0.1263
     35 H9          2.9915   -9.9022   -0.7414 H         1 <0>         0.3988
     36 H10         2.6108  -11.1908    0.2672 H         1 <0>         0.4036
     37 H11         5.8987   -4.7909    0.5416 H         1 <0>         0.4066
     38 H12         6.1417   -6.4519    0.4726 H         1 <0>         0.4100
     39 H13         6.1743   -3.4793   -2.9832 H         1 <0>         0.4107
     40 H14         5.3145   -4.7466   -2.2923 H         1 <0>         0.4080
     41 H15         7.3878    1.7405   -2.9397 H         1 <0>         0.4050
     42 H16         6.3511    0.9436   -1.8848 H         1 <0>         0.4034
@<TRIPOS>BOND
     1    1    6 ar
     2    1    2 ar
     3    1   27 1
     4    2    3 ar
     5    2   28 1
     6    3    4 ar
     7    3   26 1
     8    4    5 ar
     9    4    7 1
    10    5    6 ar
    11    5   29 1
    12    6   30 1
    13    7    8 1
    14    8    9 2
    15    8   25 1
    16    9   10 1
    17    9   23 1
    18   10   11 2
    19   10   21 1
    20   11   12 1
    21   11   20 1
    22   12   13 1
    23   13   18 ar
    24   13   14 ar
    25   14   15 ar
    26   14   19 1
    27   15   16 ar
    28   15   31 1
    29   16   17 ar
    30   16   32 1
    31   17   18 ar
    32   17   33 1
    33   18   34 1
    34   19   35 1
    35   19   36 1
    36   20   37 1
    37   20   38 1
    38   21   22 3
    39   23   24 3
    40   25   39 1
    41   25   40 1
    42   26   41 1
    43   26   42 1
@<TRIPOS>MOLECULE
ZINC21982951
   60    63     0     0     0
SMALL
USER_CHARGES

@<TRIPOS>ATOM
      1 C1         -2.0700    1.6928    0.2333 C.3       1 <0>        -0.1170
      2 C2         -1.6482    0.2604    0.0301 C.ar      1 <0>        -0.0813
      3 C3         -1.8479   -0.3525   -1.1919 C.ar      1 <0>        -0.1034
      4 C4         -1.4615   -1.6665   -1.3798 C.ar      1 <0>        -0.0990
      5 C5         -0.8738   -2.3725   -0.3459 C.ar      1 <0>        -0.1046
      6 C6         -0.6714   -1.7660    0.8791 C.ar      1 <0>        -0.0220
      7 C7         -1.0534   -0.4428    1.0688 C.ar      1 <0>         0.1347
      8 N1         -0.8441    0.1769    2.3055 N.am      1 <0>        -0.6659
      9 C8         -1.2819   -0.4110    3.4365 C.2       1 <0>         0.6018
     10 O1         -1.7689   -1.5261    3.3939 O.2       1 <0>        -0.4722
     11 C9         -1.1720    0.2905    4.7149 C.2       1 <0>        -0.2635
     12 C10        -1.5472   -0.1201    5.9866 C.2       1 <0>         0.1512
     13 N2         -1.3262    0.7270    6.9599 N.2       1 <0>        -0.5510
     14 C11        -0.7756    1.9070    6.7361 C.2       1 <0>         0.2513
     15 S1         -0.5107    1.9100    5.0742 S.3       1 <0>         0.2445
     16 N3         -0.4817    2.8997    7.6498 N.pl3     1 <0>        -0.5870
     17 C12        -0.6908    2.6801    9.0050 C.ar      1 <0>         0.4543
     18 C13        -1.0534    1.4192    9.4679 C.ar      1 <0>        -0.2926
     19 C14        -1.2512    1.2508   10.8352 C.ar      1 <0>         0.4935
     20 N4         -1.0875    2.2952   11.6453 N.ar      1 <0>        -0.5328
     21 C15        -0.7435    3.4737   11.1677 C.ar      1 <0>         0.4541
     22 N5         -0.5417    3.6719    9.8809 N.ar      1 <0>        -0.5672
     23 C16        -0.5694    4.6273   12.1217 C.3       1 <0>        -0.1251
     24 N6         -1.6138    0.0143   11.3464 N.pl3     1 <0>        -0.5370
     25 C17        -2.0559   -0.1253   12.7422 C.3       1 <0>         0.1090
     26 C18        -3.3866   -0.8852   12.7576 C.3       1 <0>         0.0383
     27 N7         -3.2335   -2.1493   12.0251 N.3       1 <0>        -0.5289
     28 C19        -2.9165   -1.9105   10.6107 C.3       1 <0>         0.0343
     29 C20        -1.5725   -1.1917   10.5056 C.3       1 <0>         0.1057
     30 C21        -4.4334   -2.9856   12.1619 C.3       1 <0>         0.0545
     31 C22        -4.1483   -4.3816   11.6043 C.3       1 <0>         0.0776
     32 O2         -3.1500   -5.0191   12.4038 O.3       1 <0>        -0.5606
     33 Cl1         0.0658   -2.6526    2.1768 Cl        1 <0>        -0.0453
     34 H1         -1.2464    2.3553   -0.0328 H         1 <0>         0.0773
     35 H2         -2.9308    1.9112   -0.3987 H         1 <0>         0.0785
     36 H3         -2.3379    1.8478    1.2784 H         1 <0>         0.0640
     37 H4         -2.3069    0.1956   -2.0014 H         1 <0>         0.1372
     38 H5         -1.6193   -2.1430   -2.3361 H         1 <0>         0.1391
     39 H6         -0.5731   -3.3989   -0.4959 H         1 <0>         0.1403
     40 H7         -0.3838    1.0296    2.3489 H         1 <0>         0.4083
     41 H8         -1.9972   -1.0858    6.1634 H         1 <0>         0.2027
     42 H9         -0.1293    3.7505    7.3451 H         1 <0>         0.4460
     43 H10        -1.1784    0.5927    8.7841 H         1 <0>         0.2218
     44 H11         0.4644    4.6619   12.4652 H         1 <0>         0.1245
     45 H12        -0.8146    5.5596   11.6130 H         1 <0>         0.1071
     46 H13        -1.2322    4.4948   12.9768 H         1 <0>         0.1273
     47 H14        -1.3096   -0.6823   13.3087 H         1 <0>         0.0989
     48 H15        -2.1929    0.8619   13.1834 H         1 <0>         0.1094
     49 H16        -3.6740   -1.0944   13.7880 H         1 <0>         0.1036
     50 H17        -4.1569   -0.2794   12.2806 H         1 <0>         0.0428
     51 H18        -2.8631   -2.8634   10.0841 H         1 <0>         0.1043
     52 H19        -3.6935   -1.2904   10.1636 H         1 <0>         0.0450
     53 H20        -1.3900   -0.9091    9.4688 H         1 <0>         0.1029
     54 H21        -0.7788   -1.8532   10.8529 H         1 <0>         0.1042
     55 H22        -4.7041   -3.0633   13.2149 H         1 <0>         0.0912
     56 H23        -5.2561   -2.5340   11.6075 H         1 <0>         0.0533
     57 H24        -5.0627   -4.9745   11.6240 H         1 <0>         0.0547
     58 H25        -3.7921   -4.2970   10.5776 H         1 <0>         0.0454
     59 H26        -2.9188   -5.9101   12.1076 H         1 <0>         0.3805
     60 H27        -0.2852    4.5531    9.5669 H         1 <0>         0.4414
@<TRIPOS>BOND
     1    1    2 1
     2    1   34 1
     3    1   35 1
     4    1   36 1
     5    2    7 ar
     6    2    3 ar
     7    3    4 ar
     8    3   37 1
     9    4    5 ar
    10    4   38 1
    11    5    6 ar
    12    5   39 1
    13    6    7 ar
    14    6   33 1
    15    7    8 1
    16    8    9 am
    17    8   40 1
    18    9   10 2
    19    9   11 1
    20   11   15 1
    21   11   12 2
    22   12   13 1
    23   12   41 1
    24   13   14 2
    25   14   15 1
    26   14   16 1
    27   16   17 1
    28   16   42 1
    29   17   22 ar
    30   17   18 ar
    31   18   19 ar
    32   18   43 1
    33   19   20 ar
    34   19   24 1
    35   20   21 ar
    36   21   22 ar
    37   21   23 1
    38   22   60 1
    39   23   44 1
    40   23   45 1
    41   23   46 1
    42   24   29 1
    43   24   25 1
    44   25   26 1
    45   25   47 1
    46   25   48 1
    47   26   27 1
    48   26   49 1
    49   26   50 1
    50   27   28 1
    51   27   30 1
    52   28   29 1
    53   28   51 1
    54   28   52 1
    55   29   53 1
    56   29   54 1
    57   30   31 1
    58   30   55 1
    59   30   56 1
    60   31   32 1
    61   31   57 1
    62   31   58 1
    63   32   59 1
@<TRIPOS>MOLECULE
ZINC21982951
   60    63     0     0     0
SMALL
USER_CHARGES

@<TRIPOS>ATOM
      1 C1          3.2739    6.6585    1.8418 C.3       1 <0>        -0.1168
      2 C2          2.5810    7.9910    1.9663 C.ar      1 <0>        -0.0823
      3 C3          2.8983    9.0189    1.0995 C.ar      1 <0>        -0.1038
      4 C4          2.2635   10.2419    1.2126 C.ar      1 <0>        -0.1008
      5 C5          1.3088   10.4411    2.1933 C.ar      1 <0>        -0.1049
      6 C6          0.9869    9.4175    3.0639 C.ar      1 <0>        -0.0226
      7 C7          1.6192    8.1849    2.9486 C.ar      1 <0>         0.1373
      8 N1          1.2913    7.1440    3.8238 N.am      1 <0>        -0.6678
      9 C8          1.3128    7.3511    5.1554 C.2       1 <0>         0.6036
     10 O1          1.5184    8.4680    5.5945 O.2       1 <0>        -0.4759
     11 C9          1.0891    6.2346    6.0728 C.2       1 <0>        -0.2694
     12 C10         1.0619    6.2190    7.4604 C.2       1 <0>         0.1522
     13 N2          0.8357    5.0596    8.0247 N.2       1 <0>        -0.5060
     14 C11         0.6446    3.9678    7.3056 C.2       1 <0>         0.2464
     15 S1          0.7674    4.5141    5.7185 S.3       1 <0>         0.2029
     16 N3          0.3973    2.6842    7.7505 N.pl3     1 <0>        -0.5650
     17 C12         0.2197    2.4414    9.1063 C.ar      1 <0>         0.4999
     18 C13        -0.1342    1.1736    9.5555 C.ar      1 <0>        -0.3181
     19 C14        -0.3003    0.9817   10.9244 C.ar      1 <0>         0.4940
     20 N4         -0.1157    2.0114   11.7481 N.ar      1 <0>        -0.5712
     21 C15         0.2193    3.1978   11.2829 C.ar      1 <0>         0.4509
     22 N5          0.3911    3.4178    9.9956 N.ar      1 <0>        -0.4879
     23 C16         0.4179    4.3344   12.2523 C.3       1 <0>        -0.1253
     24 N6         -0.6531   -0.2629   11.4224 N.pl3     1 <0>        -0.5744
     25 C17        -0.9639   -0.4449   12.8484 C.3       1 <0>         0.1013
     26 C18        -2.3114   -1.1652   12.9649 C.3       1 <0>         0.0387
     27 N7         -2.2712   -2.4031   12.1749 N.3       1 <0>        -0.5277
     28 C19        -2.0835   -2.1176   10.7462 C.3       1 <0>         0.0305
     29 C20        -0.7325   -1.4351   10.5377 C.3       1 <0>         0.1149
     30 C21        -3.4796   -3.2085   12.3965 C.3       1 <0>         0.0543
     31 C22        -3.2958   -4.5889   11.7629 C.3       1 <0>         0.0774
     32 O2         -2.2472   -5.2869   12.4378 O.3       1 <0>        -0.5615
     33 Cl1        -0.2110    9.6681    4.2952 Cl        1 <0>        -0.0453
     34 H1          2.7121    6.0191    1.1609 H         1 <0>         0.0767
     35 H2          4.2810    6.8077    1.4524 H         1 <0>         0.0779
     36 H3          3.3298    6.1850    2.8220 H         1 <0>         0.0648
     37 H4          3.6435    8.8670    0.3327 H         1 <0>         0.1365
     38 H5          2.5139   11.0437    0.5337 H         1 <0>         0.1383
     39 H6          0.8148   11.3976    2.2790 H         1 <0>         0.1396
     40 H7          1.0484    6.2731    3.4723 H         1 <0>         0.4083
     41 H8          1.2191    7.1147    8.0430 H         1 <0>         0.1979
     42 H9          0.3477    1.9521    7.1161 H         1 <0>         0.4525
     43 H10        -0.2767    0.3593    8.8606 H         1 <0>         0.1835
     44 H11         1.4596    4.3615   12.5720 H         1 <0>         0.1250
     45 H12         0.1626    5.2758   11.7656 H         1 <0>         0.1301
     46 H13        -0.2249    4.1881   13.1203 H         1 <0>         0.1049
     47 H14        -0.1857   -1.0458   13.3190 H         1 <0>         0.1119
     48 H15        -1.0251    0.5276   13.3369 H         1 <0>         0.0843
     49 H16        -2.5057   -1.4068   14.0099 H         1 <0>         0.1076
     50 H17        -3.1034   -0.5184   12.5874 H         1 <0>         0.0465
     51 H18        -2.1124   -3.0499   10.1822 H         1 <0>         0.1076
     52 H19        -2.8786   -1.4576   10.3996 H         1 <0>         0.0467
     53 H20        -0.6409   -1.1170    9.4992 H         1 <0>         0.1034
     54 H21         0.0684   -2.1330   10.7819 H         1 <0>         0.1075
     55 H22        -3.6507   -3.3200   13.4672 H         1 <0>         0.0925
     56 H23        -4.3362   -2.7111   11.9416 H         1 <0>         0.0553
     57 H24        -4.2233   -5.1548   11.8494 H         1 <0>         0.0565
     58 H25        -3.0370   -4.4741   10.7103 H         1 <0>         0.0456
     59 H26        -2.0752   -6.1719   12.0881 H         1 <0>         0.3821
     60 H27        -0.2297    1.8867   12.7033 H         1 <0>         0.4392
@<TRIPOS>BOND
     1    1    2 1
     2    1   34 1
     3    1   35 1
     4    1   36 1
     5    2    7 ar
     6    2    3 ar
     7    3    4 ar
     8    3   37 1
     9    4    5 ar
    10    4   38 1
    11    5    6 ar
    12    5   39 1
    13    6    7 ar
    14    6   33 1
    15    7    8 1
    16    8    9 am
    17    8   40 1
    18    9   10 2
    19    9   11 1
    20   11   15 1
    21   11   12 2
    22   12   13 1
    23   12   41 1
    24   13   14 2
    25   14   15 1
    26   14   16 1
    27   16   17 1
    28   16   42 1
    29   17   18 ar
    30   17   22 ar
    31   18   43 1
    32   18   19 ar
    33   19   24 1
    34   19   20 ar
    35   20   60 1
    36   20   21 ar
    37   21   23 1
    38   21   22 ar
    39   23   44 1
    40   23   45 1
    41   23   46 1
    42   24   29 1
    43   24   25 1
    44   25   26 1
    45   25   47 1
    46   25   48 1
    47   26   27 1
    48   26   49 1
    49   26   50 1
    50   27   28 1
    51   27   30 1
    52   28   29 1
    53   28   51 1
    54   28   52 1
    55   29   53 1
    56   29   54 1
    57   30   31 1
    58   30   55 1
    59   30   56 1
    60   31   32 1
    61   31   57 1
    62   31   58 1
    63   32   59 1
@<TRIPOS>MOLECULE
ZINC21982951
   59    62     0     0     0
SMALL
USER_CHARGES

@<TRIPOS>ATOM
      1 C1          3.4106    6.6420    1.8847 C.3       1 <0>        -0.1165
      2 C2          2.6976    7.9659    1.9845 C.ar      1 <0>        -0.0852
      3 C3          3.0204    8.9921    1.1176 C.ar      1 <0>        -0.1055
      4 C4          2.3672   10.2073    1.2080 C.ar      1 <0>        -0.1070
      5 C5          1.3885   10.4004    2.1660 C.ar      1 <0>        -0.1064
      6 C6          1.0609    9.3785    3.0365 C.ar      1 <0>        -0.0243
      7 C7          1.7118    8.1536    2.9438 C.ar      1 <0>         0.1460
      8 N1          1.3783    7.1144    3.8189 N.am      1 <0>        -0.6734
      9 C8          1.3676    7.3308    5.1492 C.2       1 <0>         0.6131
     10 O1          1.5489    8.4533    5.5848 O.2       1 <0>        -0.4899
     11 C9          1.1384    6.2176    6.0693 C.2       1 <0>        -0.3092
     12 C10         1.0807    6.2111    7.4561 C.2       1 <0>         0.1722
     13 N2          0.8573    5.0526    8.0233 N.2       1 <0>        -0.5180
     14 C11         0.6966    3.9535    7.3079 C.2       1 <0>         0.3121
     15 S1          0.8472    4.4907    5.7202 S.3       1 <0>         0.1340
     16 N3          0.4564    2.6698    7.7563 N.pl3     1 <0>        -0.5904
     17 C12         0.2490    2.4343    9.1091 C.ar      1 <0>         0.4412
     18 C13        -0.1036    1.1661    9.5586 C.ar      1 <0>        -0.3412
     19 C14        -0.3003    0.9817   10.9244 C.ar      1 <0>         0.4686
     20 N4         -0.1450    2.0186   11.7452 N.ar      1 <0>        -0.5923
     21 C15         0.1898    3.2050   11.2799 C.ar      1 <0>         0.3946
     22 N5          0.3901    3.4182    9.9956 N.ar      1 <0>        -0.5459
     23 C16         0.3546    4.3498   12.2460 C.3       1 <0>        -0.0834
     24 N6         -0.6531   -0.2629   11.4224 N.pl3     1 <0>        -0.5966
     25 C17        -1.0693   -0.4249   12.8237 C.3       1 <0>         0.1300
     26 C18        -2.3993   -1.1856   12.8517 C.3       1 <0>         0.0401
     27 N7         -2.2595   -2.4378   12.0965 N.3       1 <0>        -0.5276
     28 C19        -1.9688   -2.1765   10.6804 C.3       1 <0>         0.0363
     29 C20        -0.6270   -1.4554   10.5619 C.3       1 <0>         0.1269
     30 C21        -3.4565   -3.2768   12.2420 C.3       1 <0>         0.0537
     31 C22        -3.1814   -4.6636   11.6572 C.3       1 <0>         0.0792
     32 O2         -2.1684   -5.3132   12.4279 O.3       1 <0>        -0.5589
     33 Cl1        -0.1672    9.6214    4.2392 Cl        1 <0>        -0.0433
     34 H1          2.8725    5.9906    1.1961 H         1 <0>         0.0754
     35 H2          4.4240    6.8020    1.5166 H         1 <0>         0.0754
     36 H3          3.4510    6.1760    2.8692 H         1 <0>         0.0676
     37 H4          3.7844    8.8450    0.3685 H         1 <0>         0.1337
     38 H5          2.6220   11.0077    0.5292 H         1 <0>         0.1350
     39 H6          0.8801   11.3508    2.2339 H         1 <0>         0.1371
     40 H7          1.1547    6.2381    3.4683 H         1 <0>         0.4085
     41 H8          1.2132    7.1127    8.0357 H         1 <0>         0.1884
     42 H9          0.4325    1.9325    7.1264 H         1 <0>         0.4387
     43 H10        -0.2220    0.3459    8.8660 H         1 <0>         0.1413
     44 H11         1.3882    4.3890   12.5900 H         1 <0>         0.0870
     45 H12         0.1021    5.2855   11.7470 H         1 <0>         0.0890
     46 H13        -0.3072    4.2031   13.0995 H         1 <0>         0.0846
     47 H14        -0.3126   -0.9904   13.3674 H         1 <0>         0.0744
     48 H15        -1.1984    0.5551   13.2831 H         1 <0>         0.1008
     49 H16        -2.6676   -1.4113   13.8837 H         1 <0>         0.0903
     50 H17        -3.1785   -0.5727   12.3986 H         1 <0>         0.0372
     51 H18        -1.9249   -3.1208   10.1378 H         1 <0>         0.0905
     52 H19        -2.7540   -1.5497   10.2576 H         1 <0>         0.0380
     53 H20        -0.4638   -1.1563    9.5265 H         1 <0>         0.0877
     54 H21         0.1731   -2.1219   10.8840 H         1 <0>         0.0802
     55 H22        -3.7077   -3.3713   13.2985 H         1 <0>         0.0861
     56 H23        -4.2894   -2.8169   11.7102 H         1 <0>         0.0487
     57 H24        -4.0952   -5.2572   11.6843 H         1 <0>         0.0498
     58 H25        -2.8443   -4.5626   10.6256 H         1 <0>         0.0451
     59 H26        -1.9426   -6.1994   12.1134 H         1 <0>         0.3762
@<TRIPOS>BOND
     1    1    2 1
     2    1   34 1
     3    1   35 1
     4    1   36 1
     5    2    7 ar
     6    2    3 ar
     7    3    4 ar
     8    3   37 1
     9    4    5 ar
    10    4   38 1
    11    5    6 ar
    12    5   39 1
    13    6    7 ar
    14    6   33 1
    15    7    8 1
    16    8    9 am
    17    8   40 1
    18    9   10 2
    19    9   11 1
    20   11   15 1
    21   11   12 2
    22   12   13 1
    23   12   41 1
    24   13   14 2
    25   14   15 1
    26   14   16 1
    27   16   17 1
    28   16   42 1
    29   17   18 ar
    30   17   22 ar
    31   18   43 1
    32   18   19 ar
    33   19   24 1
    34   19   20 ar
    35   20   21 ar
    36   21   23 1
    37   21   22 ar
    38   23   44 1
    39   23   45 1
    40   23   46 1
    41   24   29 1
    42   24   25 1
    43   25   26 1
    44   25   47 1
    45   25   48 1
    46   26   27 1
    47   26   49 1
    48   26   50 1
    49   27   28 1
    50   27   30 1
    51   28   29 1
    52   28   51 1
    53   28   52 1
    54   29   53 1
    55   29   54 1
    56   30   31 1
    57   30   55 1
    58   30   56 1
    59   31   32 1
    60   31   57 1
    61   31   58 1
    62   32   59 1
@<TRIPOS>MOLECULE
ZINC21982951
   61    64     0     0     0
SMALL
USER_CHARGES

@<TRIPOS>ATOM
      1 C1          3.2770    6.6581    1.8427 C.3       1 <0>        -0.1166
      2 C2          2.5837    7.9904    1.9667 C.ar      1 <0>        -0.0814
      3 C3          2.9012    9.0183    1.0999 C.ar      1 <0>        -0.1028
      4 C4          2.2660   10.2411    1.2125 C.ar      1 <0>        -0.0975
      5 C5          1.3108   10.4402    2.1928 C.ar      1 <0>        -0.1039
      6 C6          0.9888    9.4167    3.0634 C.ar      1 <0>        -0.0218
      7 C7          1.6215    8.1842    2.9485 C.ar      1 <0>         0.1327
      8 N1          1.2933    7.1433    3.8237 N.am      1 <0>        -0.6648
      9 C8          1.3141    7.3507    5.1552 C.2       1 <0>         0.5983
     10 O1          1.5193    8.4677    5.5943 O.2       1 <0>        -0.4690
     11 C9          1.0903    6.2342    6.0727 C.2       1 <0>        -0.2500
     12 C10         1.0624    6.2188    7.4604 C.2       1 <0>         0.1439
     13 N2          0.8362    5.0594    8.0246 N.2       1 <0>        -0.4984
     14 C11         0.6458    3.9675    7.3056 C.2       1 <0>         0.2172
     15 S1          0.7692    4.5136    5.7185 S.3       1 <0>         0.2242
     16 N3          0.3986    2.6839    7.7506 N.pl3     1 <0>        -0.5513
     17 C12         0.2203    2.4413    9.1063 C.ar      1 <0>         0.5098
     18 C13        -0.1335    1.1734    9.5556 C.ar      1 <0>        -0.3097
     19 C14        -0.3003    0.9817   10.9244 C.ar      1 <0>         0.4927
     20 N4         -0.1163    2.0116   11.7481 N.ar      1 <0>        -0.5695
     21 C15         0.2187    3.1980   11.2828 C.ar      1 <0>         0.4589
     22 N5          0.3911    3.4178    9.9956 N.ar      1 <0>        -0.4762
     23 C16         0.4165    4.3348   12.2521 C.3       1 <0>        -0.1303
     24 N6         -0.6531   -0.2629   11.4224 N.pl3     1 <0>        -0.6123
     25 C17        -0.9643   -0.4465   12.8484 C.3       1 <0>         0.0782
     26 C18        -2.3027   -1.1838   12.9625 C.3       1 <0>        -0.0204
     27 N7         -2.2406   -2.4311   12.1903 N.4       1 <0>        -0.3852
     28 C19        -2.0770   -2.1279   10.7629 C.3       1 <0>        -0.0304
     29 C20        -0.7330   -1.4363   10.5388 C.3       1 <0>         0.0932
     30 C21        -3.4827   -3.1900   12.3886 C.3       1 <0>        -0.0061
     31 C22        -3.3702   -4.5448   11.6865 C.3       1 <0>         0.0434
     32 O2         -2.3479   -5.3224   12.3128 O.3       1 <0>        -0.5819
     33 Cl1        -0.2098    9.6671    4.2940 Cl        1 <0>        -0.0466
     34 H1          2.7157    6.0184    1.1617 H         1 <0>         0.0770
     35 H2          4.2843    6.8074    1.4538 H         1 <0>         0.0791
     36 H3          3.3325    6.1847    2.8230 H         1 <0>         0.0631
     37 H4          3.6468    8.8665    0.3335 H         1 <0>         0.1380
     38 H5          2.5166   11.0428    0.5336 H         1 <0>         0.1401
     39 H6          0.8165   11.3966    2.2780 H         1 <0>         0.1410
     40 H7          1.0508    6.2723    3.4722 H         1 <0>         0.4077
     41 H8          1.2191    7.1146    8.0429 H         1 <0>         0.2016
     42 H9          0.3494    1.9517    7.1163 H         1 <0>         0.4545
     43 H10        -0.2756    0.3590    8.8607 H         1 <0>         0.1860
     44 H11         1.4581    4.3621   12.5724 H         1 <0>         0.1309
     45 H12         0.1613    5.2760   11.7653 H         1 <0>         0.1358
     46 H13        -0.2267    4.1885   13.1199 H         1 <0>         0.1083
     47 H14        -0.1795   -1.0367   13.3215 H         1 <0>         0.1249
     48 H15        -1.0392    0.5259   13.3352 H         1 <0>         0.1232
     49 H16        -2.5028   -1.4138   14.0090 H         1 <0>         0.1602
     50 H17        -3.0999   -0.5526   12.5701 H         1 <0>         0.1410
     51 H18        -2.1110   -3.0537   10.1885 H         1 <0>         0.1585
     52 H19        -2.8811   -1.4682   10.4370 H         1 <0>         0.1418
     53 H20        -0.6550   -1.1179    9.4992 H         1 <0>         0.1416
     54 H21         0.0756   -2.1281   10.7747 H         1 <0>         0.1211
     55 H22        -3.6469   -3.3459   13.4548 H         1 <0>         0.1465
     56 H23        -4.3202   -2.6321   11.9697 H         1 <0>         0.1464
     57 H24        -4.3221   -5.0710   11.7578 H         1 <0>         0.1026
     58 H25        -3.1180   -4.3904   10.6374 H         1 <0>         0.0719
     59 H26        -2.2211   -6.1961   11.9183 H         1 <0>         0.4154
     60 H27        -0.2308    1.8869   12.7032 H         1 <0>         0.4393
     61 H28        -1.4578   -2.9831   12.5075 H         1 <0>         0.4359
@<TRIPOS>BOND
     1    1    2 1
     2    1   34 1
     3    1   35 1
     4    1   36 1
     5    2    7 ar
     6    2    3 ar
     7    3    4 ar
     8    3   37 1
     9    4    5 ar
    10    4   38 1
    11    5    6 ar
    12    5   39 1
    13    6    7 ar
    14    6   33 1
    15    7    8 1
    16    8    9 am
    17    8   40 1
    18    9   10 2
    19    9   11 1
    20   11   15 1
    21   11   12 2
    22   12   13 1
    23   12   41 1
    24   13   14 2
    25   14   15 1
    26   14   16 1
    27   16   17 1
    28   16   42 1
    29   17   18 ar
    30   17   22 ar
    31   18   43 1
    32   18   19 ar
    33   19   24 1
    34   19   20 ar
    35   20   60 1
    36   20   21 ar
    37   21   23 1
    38   21   22 ar
    39   23   44 1
    40   23   45 1
    41   23   46 1
    42   24   29 1
    43   24   25 1
    44   25   26 1
    45   25   47 1
    46   25   48 1
    47   26   27 1
    48   26   49 1
    49   26   50 1
    50   27   28 1
    51   27   30 1
    52   27   61 1
    53   28   29 1
    54   28   51 1
    55   28   52 1
    56   29   53 1
    57   29   54 1
    58   30   31 1
    59   30   55 1
    60   30   56 1
    61   31   32 1
    62   31   57 1
    63   31   58 1
    64   32   59 1
@<TRIPOS>MOLECULE
ZINC03814434
   62    69     0     0     0
SMALL
USER_CHARGES

@<TRIPOS>ATOM
      1 C1         -0.1295    1.5952   -0.2973 C.3       1 <0>        -0.1687
      2 C2         -0.0862    0.0696   -0.1900 C.3       1 <0>         0.3342
      3 C3          0.5692   -0.4501   -1.4637 C.3       1 <0>         0.0405
      4 H1          1.4796    0.1159   -1.6612 H         1 <0>         0.1372
      5 C4          0.9167   -1.9328   -1.2889 C.3       1 <0>        -0.0061
      6 H2          1.3963   -2.3075   -2.1932 H         1 <0>         0.1555
      7 C5          1.8785   -2.0596   -0.1021 C.3       1 <0>        -0.1827
      8 C6          1.2061   -1.5198    1.1541 C.3       1 <0>         0.2999
      9 H3          1.9797   -1.4243    1.9161 H         1 <0>         0.1550
     10 O1          0.6555   -0.2442    0.9666 O.3       1 <0>        -0.3234
     11 N1          0.2189   -2.4746    1.6600 N.pl3     1 <0>        -0.5366
     12 C7          0.4705   -3.5508    2.4739 C.ar      1 <0>         0.1469
     13 C8          1.6649   -4.0152    3.0240 C.ar      1 <0>        -0.1522
     14 C9          1.5948   -5.1456    3.8201 C.ar      1 <0>        -0.0582
     15 C10         0.4006   -5.7997    4.0696 C.ar      1 <0>        -0.1457
     16 C11        -0.7984   -5.3597    3.5358 C.ar      1 <0>        -0.0280
     17 C12        -0.7487   -4.2198    2.7307 C.ar      1 <0>        -0.1131
     18 C13        -1.7893   -3.4830    2.0197 C.ar      1 <0>         0.0276
     19 C14        -1.1442   -2.4197    1.3841 C.ar      1 <0>         0.0376
     20 C15        -1.8806   -1.5095    0.6175 C.ar      1 <0>         0.0894
     21 N2         -1.4718   -0.3951   -0.1095 N.pl3     1 <0>        -0.5183
     22 C16        -2.5611    0.1913   -0.7090 C.ar      1 <0>         0.1618
     23 C17        -2.6521    1.3277   -1.5118 C.ar      1 <0>        -0.1305
     24 C18        -3.9109    1.6745   -1.9733 C.ar      1 <0>        -0.0737
     25 C19        -5.0393    0.9368   -1.6616 C.ar      1 <0>        -0.1358
     26 C20        -4.9745   -0.1955   -0.8662 C.ar      1 <0>        -0.0503
     27 C21        -3.7147   -0.5596   -0.3919 C.ar      1 <0>        -0.1042
     28 C22        -3.2693   -1.6660    0.4845 C.ar      1 <0>        -0.0360
     29 C23        -3.9084   -2.7313    1.1102 C.ar      1 <0>        -0.0288
     30 C24        -3.1873   -3.6421    1.8754 C.ar      1 <0>        -0.1255
     31 C25        -4.1221   -4.6480    2.4030 C.2       1 <0>         0.5632
     32 O2         -3.8062   -5.5851    3.1110 O.2       1 <0>        -0.5106
     33 N3         -5.3744   -4.3851    1.9926 N.am      1 <0>        -0.7162
     34 C26        -5.3495   -3.1771    1.1601 C.3       1 <0>         0.1358
     35 N4         -0.3067   -2.7008   -1.0216 N.4       1 <0>        -0.5252
     36 C27         0.0145   -4.1336   -0.9773 C.3       1 <0>        -0.0497
     37 O3         -0.3340   -0.2979   -2.5607 O.3       1 <0>        -0.3614
     38 C28         0.3101   -0.0933   -3.8198 C.3       1 <0>         0.0162
     39 H4          0.8261    2.0094    0.0240 H         1 <0>         0.0984
     40 H5         -0.3202    1.8814   -1.3317 H         1 <0>         0.1036
     41 H6         -0.9255    1.9818    0.3392 H         1 <0>         0.0921
     42 H7          2.1370   -3.1081    0.0458 H         1 <0>         0.1233
     43 H8          2.7835   -1.4869   -0.3048 H         1 <0>         0.1455
     44 H9          2.6036   -3.5149    2.8368 H         1 <0>         0.1365
     45 H10         2.5026   -5.5304    4.2610 H         1 <0>         0.1359
     46 H11         0.4045   -6.6780    4.6980 H         1 <0>         0.1352
     47 H12        -1.7278   -5.8736    3.7323 H         1 <0>         0.1600
     48 H13        -1.7792    1.9122   -1.7624 H         1 <0>         0.1440
     49 H14        -4.0153    2.5500   -2.5970 H         1 <0>         0.1336
     50 H15        -5.9967    1.2527   -2.0488 H         1 <0>         0.1332
     51 H16        -5.8575   -0.7687   -0.6249 H         1 <0>         0.1415
     52 H17        -6.1628   -4.9065    2.2103 H         1 <0>         0.4348
     53 H18        -5.9671   -2.3994    1.6094 H         1 <0>         0.1115
     54 H19        -5.7060   -3.4063    0.1559 H         1 <0>         0.1103
     55 H20        -0.6958   -2.4158   -0.1353 H         1 <0>         0.4186
     56 H21         0.4349   -4.4415   -1.9347 H         1 <0>         0.1256
     57 H22         0.7403   -4.3189   -0.1854 H         1 <0>         0.1191
     58 H23        -0.8932   -4.7035   -0.7789 H         1 <0>         0.1256
     59 H24         0.9168    0.8112   -3.7748 H         1 <0>         0.0633
     60 H25         0.9482   -0.9479   -4.0446 H         1 <0>         0.0514
     61 H26        -0.4433    0.0130   -4.6003 H         1 <0>         0.1100
     62 H27        -0.9785   -2.5293   -1.7546 H         1 <0>         0.4274
@<TRIPOS>BOND
     1    1    2 1
     2    1   39 1
     3    1   40 1
     4    1   41 1
     5    2   10 1
     6    2   21 1
     7    2    3 1
     8    3    4 1
     9    3    5 1
    10    3   37 1
    11    5    6 1
    12    5    7 1
    13    5   35 1
    14    7    8 1
    15    7   42 1
    16    7   43 1
    17    8    9 1
    18    8   10 1
    19    8   11 1
    20   11   19 1
    21   11   12 1
    22   12   17 ar
    23   12   13 ar
    24   13   14 ar
    25   13   44 1
    26   14   15 ar
    27   14   45 1
    28   15   16 ar
    29   15   46 1
    30   16   17 ar
    31   16   47 1
    32   17   18 1
    33   18   30 ar
    34   18   19 ar
    35   19   20 ar
    36   20   28 ar
    37   20   21 1
    38   21   22 1
    39   22   27 ar
    40   22   23 ar
    41   23   24 ar
    42   23   48 1
    43   24   25 ar
    44   24   49 1
    45   25   26 ar
    46   25   50 1
    47   26   27 ar
    48   26   51 1
    49   27   28 1
    50   28   29 ar
    51   29   34 1
    52   29   30 ar
    53   30   31 1
    54   31   32 2
    55   31   33 am
    56   33   34 1
    57   33   52 1
    58   34   53 1
    59   34   54 1
    60   35   36 1
    61   35   55 1
    62   35   62 1
    63   36   56 1
    64   36   57 1
    65   36   58 1
    66   37   38 1
    67   38   59 1
    68   38   60 1
    69   38   61 1
@<TRIPOS>MOLECULE
ZINC03938688
   39    41     0     0     0
SMALL
USER_CHARGES

@<TRIPOS>ATOM
      1 C1         -0.0095    1.3826    0.0704 C.ar      1 <0>        -0.0343
      2 C2          0.5587    1.0580   -1.1482 C.ar      1 <0>        -0.1609
      3 C3          1.7655    0.3862   -1.1955 C.ar      1 <0>         0.1753
      4 C4          2.4129    0.0342   -0.0053 C.ar      1 <0>        -0.1954
      5 C5          1.8304    0.3669    1.2233 C.ar      1 <0>         0.1741
      6 C6          0.6231    1.0388    1.2514 C.ar      1 <0>        -0.1610
      7 F1          2.4463    0.0317    2.3781 F         1 <0>        -0.1212
      8 C7          3.6999   -0.6827   -0.0456 C.2       1 <0>         0.6210
      9 O1          4.7383   -0.0615   -0.1600 O.2       1 <0>        -0.4669
     10 N1          3.7255   -2.0272    0.0446 N.am      1 <0>        -0.3962
     11 C8          4.8314   -2.8210    0.1249 C.2       1 <0>         0.5948
     12 N2          4.4249   -4.0694    0.1979 N.2       1 <0>        -0.5873
     13 C9          3.0869   -4.1118    0.1675 C.2       1 <0>         0.5191
     14 N3          2.6183   -2.8904    0.0808 N.2       1 <0>        -0.3480
     15 N4          2.3148   -5.2702    0.2247 N.pl3     1 <0>        -0.6226
     16 C10         2.9267   -6.5079    0.4407 C.ar      1 <0>         0.2365
     17 C11         4.1432   -6.5760    1.1080 C.ar      1 <0>        -0.1584
     18 C12         4.7450   -7.8008    1.3202 C.ar      1 <0>         0.0098
     19 C13         4.1379   -8.9586    0.8692 C.ar      1 <0>        -0.7033
     20 C14         2.9269   -8.8944    0.2046 C.ar      1 <0>         0.0112
     21 C15         2.3170   -7.6734   -0.0063 C.ar      1 <0>        -0.1777
     22 S1          4.9094  -10.5191    1.1415 S.o2      1 <0>         2.7034
     23 O2          4.4084  -11.3993    0.1448 O.2       1 <0>        -0.9656
     24 O3          6.2977  -10.2630    1.3036 O.2       1 <0>        -0.9650
     25 N5          4.3605  -11.0895    2.5960 N.pl3     1 <0>        -1.2510
     26 N6          6.1422   -2.3912    0.1281 N.pl3     1 <0>        -0.7911
     27 F2          2.3185    0.0697   -2.3868 F         1 <0>        -0.1201
     28 H1         -0.9506    1.9116    0.0998 H         1 <0>         0.1546
     29 H2          0.0576    1.3300   -2.0654 H         1 <0>         0.1549
     30 H3          0.1721    1.2963    2.1984 H         1 <0>         0.1546
     31 H4          1.3525   -5.2176    0.1147 H         1 <0>         0.4325
     32 H5          4.6180   -5.6722    1.4601 H         1 <0>         0.1556
     33 H6          5.6909   -7.8544    1.8385 H         1 <0>         0.1456
     34 H7          2.4556   -9.8005   -0.1466 H         1 <0>         0.1475
     35 H8          1.3691   -7.6243   -0.5215 H         1 <0>         0.1387
     36 H9          3.7284  -10.5673    3.1145 H         1 <0>         0.4165
     37 H10         4.6709  -11.9458    2.9296 H         1 <0>         0.4206
     38 H11         6.3422   -1.4439    0.0694 H         1 <0>         0.4292
     39 H12         6.8640   -3.0364    0.1890 H         1 <0>         0.4303
@<TRIPOS>BOND
     1    1    6 ar
     2    1    2 ar
     3    1   28 1
     4    2    3 ar
     5    2   29 1
     6    3    4 ar
     7    3   27 1
     8    4    5 ar
     9    4    8 1
    10    5    6 ar
    11    5    7 1
    12    6   30 1
    13    8    9 2
    14    8   10 am
    15   10   14 1
    16   10   11 1
    17   11   12 2
    18   11   26 1
    19   12   13 1
    20   13   14 2
    21   13   15 1
    22   15   16 1
    23   15   31 1
    24   16   21 ar
    25   16   17 ar
    26   17   18 ar
    27   17   32 1
    28   18   19 ar
    29   18   33 1
    30   19   20 ar
    31   19   22 1
    32   20   21 ar
    33   20   34 1
    34   21   35 1
    35   22   23 2
    36   22   24 2
    37   22   25 1
    38   25   36 1
    39   25   37 1
    40   26   38 1
    41   26   39 1
@<TRIPOS>MOLECULE
ZINC12504479
   39    42     0     0     0
SMALL
USER_CHARGES
tert-butyl-fluoro-BLAHone
@<TRIPOS>ATOM
      1 C1          0.0306    7.5665   -1.3573 C.3       1 <0>        -0.1435
      2 C2         -0.0131    6.9316    0.0341 C.3       1 <0>         0.0141
      3 C3         -1.4663    6.6486    0.4201 C.3       1 <0>        -0.1303
      4 C4          0.6075    7.8907    1.0520 C.3       1 <0>        -0.1484
      5 C5          0.7640    5.6405    0.0218 C.2       1 <0>         0.2640
      6 N1          2.1200    5.5432    0.0086 N.pl3     1 <0>        -0.5660
      7 H1          2.7692    6.3038    0.0059 H         1 <0>         0.4300
      8 C6          2.4322    4.2055   -0.0004 C.ar      1 <0>         0.0707
      9 C7          3.6945    3.4726   -0.0160 C.ar      1 <0>        -0.0387
     10 C8          4.9179    4.1553   -0.0241 C.ar      1 <0>        -0.0830
     11 C9          6.0889    3.4567   -0.0382 C.ar      1 <0>        -0.1479
     12 C10         6.0877    2.0644   -0.0451 C.ar      1 <0>         0.1067
     13 C11         4.9015    1.3651   -0.0371 C.ar      1 <0>        -0.1434
     14 C12         3.6874    2.0596   -0.0226 C.ar      1 <0>         0.0348
     15 C13         2.4115    1.3424   -0.0138 C.ar      1 <0>        -0.1820
     16 C14         1.2049    2.0599    0.0016 C.ar      1 <0>         0.1180
     17 C15         1.2195    3.5214    0.0080 C.ar      1 <0>         0.0317
     18 N2          0.2386    4.4495    0.0214 N.2       1 <0>        -0.4565
     19 C16        -0.0162    1.3425    0.0094 C.2       1 <0>        -0.2034
     20 C17         0.0021   -0.0041    0.0020 C.2       1 <0>         0.1350
     21 N3          1.1742   -0.7011   -0.0125 N.am      1 <0>        -0.6142
     22 H2          1.1491   -1.6708   -0.0168 H         1 <0>         0.4195
     23 C18         2.3662   -0.0731   -0.0205 C.2       1 <0>         0.5428
     24 O1          3.3998   -0.7196   -0.0338 O.2       1 <0>        -0.5363
     25 F1          7.2604    1.3938   -0.0600 F         1 <0>        -0.1343
     26 H3         -0.4115    6.8833   -2.0824 H         1 <0>         0.0650
     27 H4         -0.5315    8.5004   -1.3483 H         1 <0>         0.0730
     28 H5          1.0659    7.7682   -1.6323 H         1 <0>         0.0547
     29 H6         -1.4974    6.1963    1.4114 H         1 <0>         0.0620
     30 H7         -2.0283    7.5824    0.4291 H         1 <0>         0.0642
     31 H8         -1.9084    5.9653   -0.3050 H         1 <0>         0.0701
     32 H9          1.6428    8.0923    0.7770 H         1 <0>         0.0535
     33 H10         0.0454    8.8245    1.0609 H         1 <0>         0.0757
     34 H11         0.5764    7.4384    2.0432 H         1 <0>         0.0638
     35 H12         4.9335    5.2351   -0.0195 H         1 <0>         0.1298
     36 H13         7.0282    3.9897   -0.0443 H         1 <0>         0.1393
     37 H14         4.9085    0.2852   -0.0418 H         1 <0>         0.1812
     38 H15        -0.9571    1.8725    0.0168 H         1 <0>         0.1577
     39 H16        -0.9330   -0.5444    0.0080 H         1 <0>         0.1706
@<TRIPOS>BOND
     1    1    2 1
     2    1   26 1
     3    1   27 1
     4    1   28 1
     5    2    3 1
     6    2    4 1
     7    2    5 1
     8    3   29 1
     9    3   30 1
    10    3   31 1
    11    4   32 1
    12    4   33 1
    13    4   34 1
    14    5   18 2
    15    5    6 1
    16    6    7 1
    17    6    8 1
    18    8   17 ar
    19    8    9 ar
    20    9   14 ar
    21    9   10 ar
    22   10   11 ar
    23   10   35 1
    24   11   12 ar
    25   11   36 1
    26   12   13 ar
    27   12   25 1
    28   13   14 ar
    29   13   37 1
    30   14   15 ar
    31   15   23 1
    32   15   16 ar
    33   16   17 ar
    34   16   19 1
    35   17   18 1
    36   19   20 2
    37   19   38 1
    38   20   21 1
    39   20   39 1
    40   21   22 1
    41   21   23 am
    42   23   24 2
@<TRIPOS>MOLECULE
ZINC16697102
   68    71     0     0     0
SMALL
USER_CHARGES

@<TRIPOS>ATOM
      1 C1          0.1414    1.0953    0.0252 C.3       1 <0>        -0.1879
      2 C2          0.0344   -0.4077    0.2904 C.3       1 <0>        -0.0179
      3 N1         -1.3805   -0.7845    0.4095 N.4       1 <0>        -0.3831
      4 C3         -1.4799   -2.1986    0.7946 C.3       1 <0>        -0.0114
      5 C4         -0.8914   -2.3887    2.1940 C.3       1 <0>        -0.1507
      6 C5         -0.9950   -3.8615    2.5951 C.3       1 <0>         0.0609
      7 O1         -0.4452   -4.0391    3.9021 O.3       1 <0>        -0.3065
      8 C6         -0.4595   -5.2979    4.4111 C.ar      1 <0>         0.1651
      9 C7         -0.9928   -6.3439    3.6526 C.ar      1 <0>        -0.2107
     10 C8         -1.0196   -7.6158    4.1389 C.ar      1 <0>        -0.0238
     11 C9         -0.5074   -7.8823    5.4144 C.ar      1 <0>        -0.2178
     12 C10         0.0354   -6.8287    6.1913 C.ar      1 <0>         0.2289
     13 C11         0.0571   -5.5307    5.6679 C.ar      1 <0>        -0.1455
     14 N2          0.5204   -7.1100    7.4103 N.ar      1 <0>        -0.5500
     15 C12         0.4909   -8.3384    7.8707 C.ar      1 <0>         0.3626
     16 N3         -0.0056   -9.3531    7.1820 N.ar      1 <0>        -0.5775
     17 C13        -0.5106   -9.1853    5.9662 C.ar      1 <0>         0.4884
     18 N4         -1.0254  -10.2523    5.2597 N.pl3     1 <0>        -0.5978
     19 C14        -1.0192  -11.5341    5.8239 C.2       1 <0>         0.2990
     20 C15        -0.5280  -11.8736    7.0950 C.2       1 <0>        -0.2355
     21 C16        -0.7031  -13.2037    7.2657 C.2       1 <0>         0.1068
     22 N5         -1.2824  -13.6919    6.1487 N.pl3     1 <0>        -0.4559
     23 H1         -1.5251  -14.6176    5.9907 H         1 <0>         0.4419
     24 N6         -1.4765  -12.6271    5.2595 N.2       1 <0>        -0.3116
     25 C17        -0.3191  -13.9996    8.4864 C.3       1 <0>        -0.0770
     26 C18        -1.4265  -13.9219    9.5056 C.2       1 <0>         0.5143
     27 O2         -2.4289  -13.2831    9.2644 O.2       1 <0>        -0.5002
     28 N7         -1.3030  -14.5622   10.6851 N.am      1 <0>        -0.6720
     29 C19        -2.2828  -14.4064   11.6717 C.ar      1 <0>         0.1711
     30 C20        -1.9219  -14.3818   13.0129 C.ar      1 <0>        -0.1532
     31 C21        -2.8902  -14.2274   13.9854 C.ar      1 <0>        -0.0700
     32 C22        -4.2191  -14.0976   13.6262 C.ar      1 <0>        -0.1667
     33 C23        -4.5833  -14.1215   12.2902 C.ar      1 <0>         0.1178
     34 C24        -3.6165  -14.2702   11.3118 C.ar      1 <0>        -0.1591
     35 F1         -5.8825  -13.9949   11.9421 F         1 <0>        -0.1354
     36 C25        -2.0519   -0.5800   -0.8810 C.3       1 <0>        -0.0098
     37 C26        -3.5535   -0.8247   -0.7191 C.3       1 <0>         0.0446
     38 O3         -4.1050    0.1610    0.1562 O.3       1 <0>        -0.5793
     39 H2          1.1903    1.3917    0.0323 H         1 <0>         0.1072
     40 H3         -0.2944    1.3246   -0.9472 H         1 <0>         0.0804
     41 H4         -0.3955    1.6404    0.8016 H         1 <0>         0.0817
     42 H5          0.4880   -0.9556   -0.5355 H         1 <0>         0.1307
     43 H6          0.5544   -0.6511    1.2170 H         1 <0>         0.1338
     44 H7         -2.5269   -2.5019    0.7965 H         1 <0>         0.1336
     45 H8         -0.9261   -2.8092    0.0814 H         1 <0>         0.1348
     46 H9          0.1556   -2.0854    2.1921 H         1 <0>         0.1011
     47 H10        -1.4452   -1.7781    2.9071 H         1 <0>         0.1012
     48 H11        -2.0419   -4.1648    2.5970 H         1 <0>         0.0752
     49 H12        -0.4411   -4.4721    1.8820 H         1 <0>         0.0757
     50 H13        -1.3888   -6.1408    2.6686 H         1 <0>         0.1349
     51 H14        -1.4346   -8.4154    3.5432 H         1 <0>         0.1334
     52 H15         0.4712   -4.7175    6.2456 H         1 <0>         0.1508
     53 H16         0.8901   -8.5298    8.8558 H         1 <0>         0.2027
     54 H17        -1.3916  -10.1149    4.3721 H         1 <0>         0.4252
     55 H18        -0.0885  -11.1933    7.8093 H         1 <0>         0.1852
     56 H19        -0.1563  -15.0401    8.2054 H         1 <0>         0.1142
     57 H20         0.5968  -13.5910    8.9133 H         1 <0>         0.1312
     58 H21        -0.5348  -15.1312   10.8499 H         1 <0>         0.4166
     59 H22        -0.8844  -14.4838   13.2950 H         1 <0>         0.1350
     60 H23        -2.6091  -14.2084   15.0280 H         1 <0>         0.1399
     61 H24        -4.9744  -13.9777   14.3888 H         1 <0>         0.1383
     62 H25        -3.8995  -14.2849   10.2696 H         1 <0>         0.1494
     63 H26        -1.8848    0.4425   -1.2196 H         1 <0>         0.1421
     64 H27        -1.6474   -1.2765   -1.6154 H         1 <0>         0.1431
     65 H28        -4.0394   -0.7588   -1.6926 H         1 <0>         0.0960
     66 H29        -3.7166   -1.8167   -0.2980 H         1 <0>         0.0707
     67 H30        -5.0389    0.0226    0.3657 H         1 <0>         0.4093
     68 H31        -1.8228   -0.2123    1.1131 H         1 <0>         0.4316
@<TRIPOS>BOND
     1    1    2 1
     2    1   39 1
     3    1   40 1
     4    1   41 1
     5    2    3 1
     6    2   42 1
     7    2   43 1
     8    3    4 1
     9    3   36 1
    10    3   68 1
    11    4    5 1
    12    4   44 1
    13    4   45 1
    14    5    6 1
    15    5   46 1
    16    5   47 1
    17    6    7 1
    18    6   48 1
    19    6   49 1
    20    7    8 1
    21    8   13 ar
    22    8    9 ar
    23    9   10 ar
    24    9   50 1
    25   10   11 ar
    26   10   51 1
    27   11   17 ar
    28   11   12 ar
    29   12   13 ar
    30   12   14 ar
    31   13   52 1
    32   14   15 ar
    33   15   16 ar
    34   15   53 1
    35   16   17 ar
    36   17   18 1
    37   18   19 1
    38   18   54 1
    39   19   24 2
    40   19   20 1
    41   20   21 2
    42   20   55 1
    43   21   22 1
    44   21   25 1
    45   22   23 1
    46   22   24 1
    47   25   26 1
    48   25   56 1
    49   25   57 1
    50   26   27 2
    51   26   28 am
    52   28   29 1
    53   28   58 1
    54   29   34 ar
    55   29   30 ar
    56   30   31 ar
    57   30   59 1
    58   31   32 ar
    59   31   60 1
    60   32   33 ar
    61   32   61 1
    62   33   34 ar
    63   33   35 1
    64   34   62 1
    65   36   37 1
    66   36   63 1
    67   36   64 1
    68   37   38 1
    69   37   65 1
    70   37   66 1
    71   38   67 1
@<TRIPOS>MOLECULE
ZINC16697102
   68    71     0     0     0
SMALL
USER_CHARGES

@<TRIPOS>ATOM
      1 C1          0.1009    1.0895    0.0671 C.3       1 <0>        -0.1880
      2 C2          0.0005   -0.4150    0.3267 C.3       1 <0>        -0.0178
      3 N1         -1.4127   -0.7982    0.4447 N.4       1 <0>        -0.3831
      4 C3         -1.5060   -2.2142    0.8244 C.3       1 <0>        -0.0114
      5 C4         -0.9163   -2.4070    2.2230 C.3       1 <0>        -0.1510
      6 C5         -1.0135   -3.8818    2.6185 C.3       1 <0>         0.0610
      7 O1         -0.4626   -4.0619    3.9247 O.3       1 <0>        -0.3058
      8 C6         -0.4714   -5.3227    4.4290 C.ar      1 <0>         0.1652
      9 C7         -1.0003   -6.3681    3.6667 C.ar      1 <0>        -0.2079
     10 C8         -1.0216   -7.6420    4.1481 C.ar      1 <0>        -0.0271
     11 C9         -0.5079   -7.9111    5.4225 C.ar      1 <0>        -0.2157
     12 C10         0.0306   -6.8581    6.2032 C.ar      1 <0>         0.2279
     13 C11         0.0466   -5.5580    5.6848 C.ar      1 <0>        -0.1434
     14 N2          0.5172   -7.1419    7.4211 N.ar      1 <0>        -0.5462
     15 C12         0.4930   -8.3722    7.8768 C.ar      1 <0>         0.3627
     16 N3          0.0007   -9.3864    7.1844 N.ar      1 <0>        -0.5729
     17 C13        -0.5054   -9.2161    5.9694 C.ar      1 <0>         0.4842
     18 N4         -1.0159  -10.2829    5.2588 N.pl3     1 <0>        -0.6133
     19 C14        -1.0041  -11.5601    5.8152 C.2       1 <0>         0.2975
     20 C15        -0.5278  -11.8985    7.0451 C.2       1 <0>        -0.2522
     21 C16        -0.7053  -13.2747    7.2096 C.2       1 <0>         0.0931
     22 N5         -1.2647  -13.7522    6.1276 N.2       1 <0>        -0.2441
     23 N6         -1.4709  -12.6946    5.2325 N.pl3     1 <0>        -0.4898
     24 H1         -1.8732  -12.7611    4.3523 H         1 <0>         0.4364
     25 C17        -0.3175  -14.0738    8.4270 C.3       1 <0>        -0.0571
     26 C18        -1.5188  -14.8275    8.9368 C.2       1 <0>         0.5153
     27 O2         -2.5849  -14.7257    8.3676 O.2       1 <0>        -0.4982
     28 N7         -1.4084  -15.6146   10.0253 N.am      1 <0>        -0.6749
     29 C19        -2.5443  -16.2321   10.5602 C.ar      1 <0>         0.1739
     30 C20        -2.6655  -16.3952   11.9344 C.ar      1 <0>        -0.1553
     31 C21        -3.7876  -17.0044   12.4607 C.ar      1 <0>        -0.0709
     32 C22        -4.7909  -17.4530   11.6216 C.ar      1 <0>        -0.1690
     33 C23        -4.6742  -17.2924   10.2511 C.ar      1 <0>         0.1173
     34 C24        -3.5547  -16.6775    9.7191 C.ar      1 <0>        -0.1594
     35 F1         -5.6558  -17.7320    9.4336 F         1 <0>        -0.1360
     36 C25        -2.0854   -0.5918   -0.8449 C.3       1 <0>        -0.0099
     37 C26        -3.5858   -0.8435   -0.6835 C.3       1 <0>         0.0446
     38 O3         -4.1414    0.1365    0.1957 O.3       1 <0>        -0.5792
     39 H2          1.1486    1.3904    0.0751 H         1 <0>         0.1074
     40 H3         -0.3361    1.3206   -0.9043 H         1 <0>         0.0805
     41 H4         -0.4380    1.6293    0.8457 H         1 <0>         0.0817
     42 H5          0.4562   -0.9578   -0.5014 H         1 <0>         0.1308
     43 H6          0.5217   -0.6596    1.2522 H         1 <0>         0.1337
     44 H7         -2.5517   -2.5220    0.8255 H         1 <0>         0.1335
     45 H8         -0.9498   -2.8197    0.1089 H         1 <0>         0.1347
     46 H9          0.1294   -2.0993    2.2220 H         1 <0>         0.1014
     47 H10        -1.4725   -1.8015    2.9385 H         1 <0>         0.1015
     48 H11        -2.0591   -4.1896    2.6196 H         1 <0>         0.0752
     49 H12        -0.4572   -4.4873    1.9030 H         1 <0>         0.0757
     50 H13        -1.3975   -6.1630    2.6836 H         1 <0>         0.1354
     51 H14        -1.4333   -8.4411    3.5496 H         1 <0>         0.1313
     52 H15         0.4574   -4.7453    6.2654 H         1 <0>         0.1520
     53 H16         0.8932   -8.5656    8.8611 H         1 <0>         0.2055
     54 H17        -1.3830  -10.1437    4.3718 H         1 <0>         0.4209
     55 H18        -0.0902  -11.2232    7.7655 H         1 <0>         0.1880
     56 H19         0.4693  -14.7803    8.1624 H         1 <0>         0.1181
     57 H20         0.0452  -13.4002    9.2034 H         1 <0>         0.1229
     58 H21        -0.5415  -15.7530   10.4378 H         1 <0>         0.4158
     59 H22        -1.8824  -16.0460   12.5909 H         1 <0>         0.1343
     60 H23        -3.8814  -17.1310   13.5291 H         1 <0>         0.1388
     61 H24        -5.6670  -17.9297   12.0358 H         1 <0>         0.1372
     62 H25        -3.4650  -16.5484    8.6506 H         1 <0>         0.1513
     63 H26        -1.9227    0.4328   -1.1796 H         1 <0>         0.1424
     64 H27        -1.6780   -1.2838   -1.5820 H         1 <0>         0.1432
     65 H28        -4.0723   -0.7760   -1.6566 H         1 <0>         0.0961
     66 H29        -3.7446   -1.8378   -0.2661 H         1 <0>         0.0704
     67 H30        -5.0746   -0.0067    0.4048 H         1 <0>         0.4093
     68 H31        -1.8573   -0.2307    1.1505 H         1 <0>         0.4316
@<TRIPOS>BOND
     1    1    2 1
     2    1   39 1
     3    1   40 1
     4    1   41 1
     5    2    3 1
     6    2   42 1
     7    2   43 1
     8    3    4 1
     9    3   36 1
    10    3   68 1
    11    4    5 1
    12    4   44 1
    13    4   45 1
    14    5    6 1
    15    5   46 1
    16    5   47 1
    17    6    7 1
    18    6   48 1
    19    6   49 1
    20    7    8 1
    21    8   13 ar
    22    8    9 ar
    23    9   10 ar
    24    9   50 1
    25   10   11 ar
    26   10   51 1
    27   11   17 ar
    28   11   12 ar
    29   12   13 ar
    30   12   14 ar
    31   13   52 1
    32   14   15 ar
    33   15   16 ar
    34   15   53 1
    35   16   17 ar
    36   17   18 1
    37   18   19 1
    38   18   54 1
    39   19   23 1
    40   19   20 2
    41   20   21 1
    42   20   55 1
    43   21   22 2
    44   21   25 1
    45   22   23 1
    46   23   24 1
    47   25   26 1
    48   25   56 1
    49   25   57 1
    50   26   27 2
    51   26   28 am
    52   28   29 1
    53   28   58 1
    54   29   34 ar
    55   29   30 ar
    56   30   31 ar
    57   30   59 1
    58   31   32 ar
    59   31   60 1
    60   32   33 ar
    61   32   61 1
    62   33   34 ar
    63   33   35 1
    64   34   62 1
    65   36   37 1
    66   36   63 1
    67   36   64 1
    68   37   38 1
    69   37   65 1
    70   37   66 1
    71   38   67 1
@<TRIPOS>MOLECULE
ZINC03834198
   55    58     0     0     0
SMALL
USER_CHARGES

@<TRIPOS>ATOM
      1 C1          2.2102    1.3214   -1.5438 C.3       1 <0>        -0.0473
      2 N1          2.0302   -0.1310   -1.4177 N.4       1 <0>        -0.3861
      3 C2          2.8485   -0.8135   -2.4272 C.3       1 <0>        -0.0039
      4 C3          2.6029   -2.3220   -2.3537 C.3       1 <0>        -0.1426
      5 C4          2.9828   -2.8281   -0.9591 C.3       1 <0>        -0.0980
      6 C5          2.1768   -2.0570    0.0901 C.3       1 <0>        -0.1436
      7 C6          2.4382   -0.5583   -0.0740 C.3       1 <0>        -0.0065
      8 C7          2.6653   -4.3210   -0.8526 C.3       1 <0>         0.0553
      9 O1          3.1265   -4.8175    0.4056 O.3       1 <0>        -0.2959
     10 C8          2.9210   -6.1358    0.6612 C.ar      1 <0>         0.1621
     11 C9          2.2972   -6.9233   -0.2811 C.ar      1 <0>        -0.1791
     12 C10         2.0867   -8.2816   -0.0149 C.ar      1 <0>         0.2018
     13 C11         2.5192   -8.8246    1.2204 C.ar      1 <0>        -0.1784
     14 C12         3.1508   -8.0026    2.1612 C.ar      1 <0>        -0.1424
     15 C13         3.3512   -6.6812    1.8787 C.ar      1 <0>         0.1099
     16 O2          3.9702   -5.8850    2.7909 O.3       1 <0>        -0.3030
     17 C14         4.3854   -6.4992    4.0125 C.3       1 <0>         0.0198
     18 C15         2.2930  -10.2009    1.4605 C.ar      1 <0>         0.4667
     19 N2          1.6881  -10.9114    0.5174 N.ar      1 <0>        -0.5768
     20 C16         1.3012  -10.3606   -0.6222 C.ar      1 <0>         0.3478
     21 N3          1.4842   -9.0917   -0.8996 N.ar      1 <0>        -0.5414
     22 N4          2.6915  -10.7885    2.6441 N.pl3     1 <0>        -0.6296
     23 C17         2.5831  -12.1741    2.8088 C.ar      1 <0>         0.1376
     24 C18         2.4560  -12.9987    1.6992 C.ar      1 <0>        -0.1039
     25 C19         2.3491  -14.3660    1.8644 C.ar      1 <0>        -0.0732
     26 C20         2.3685  -14.9152    3.1341 C.ar      1 <0>        -0.0857
     27 C21         2.4949  -14.0974    4.2430 C.ar      1 <0>        -0.1007
     28 C22         2.6081  -12.7284    4.0841 C.ar      1 <0>         0.0686
     29 F1          2.7372  -11.9301    5.1664 F         1 <0>        -0.1332
     30 Br1         2.2212  -16.7875    3.3546 Br        1 <0>        -0.0295
     31 H1          3.2589    1.5727   -1.3848 H         1 <0>         0.1219
     32 H2          1.9075    1.6398   -2.5414 H         1 <0>         0.1242
     33 H3          1.5979    1.8295   -0.7989 H         1 <0>         0.1242
     34 H4          2.5792   -0.4499   -3.4189 H         1 <0>         0.1343
     35 H5          3.9024   -0.6078   -2.2397 H         1 <0>         0.1306
     36 H6          1.5493   -2.5288   -2.5414 H         1 <0>         0.0934
     37 H7          3.2127   -2.8271   -3.1028 H         1 <0>         0.1176
     38 H8          4.0478   -2.6678   -0.7908 H         1 <0>         0.1030
     39 H9          1.1143   -2.2583   -0.0469 H         1 <0>         0.0893
     40 H10         2.4820   -2.3726    1.0878 H         1 <0>         0.1210
     41 H11         3.5008   -0.3580    0.0634 H         1 <0>         0.1299
     42 H12         1.8660   -0.0063    0.6716 H         1 <0>         0.1325
     43 H13         1.5883   -4.4698   -0.9292 H         1 <0>         0.0742
     44 H14         3.1645   -4.8571   -1.6597 H         1 <0>         0.0787
     45 H15         1.9724   -6.4960   -1.2182 H         1 <0>         0.1540
     46 H16         3.4818   -8.4122    3.1042 H         1 <0>         0.1414
     47 H17         4.8638   -5.7549    4.6491 H         1 <0>         0.1093
     48 H18         3.5165   -6.9116    4.5254 H         1 <0>         0.0597
     49 H19         5.0925   -7.2996    3.7947 H         1 <0>         0.0600
     50 H20         0.8133  -10.9840   -1.3569 H         1 <0>         0.2036
     51 H21         3.0467  -10.2411    3.3618 H         1 <0>         0.4241
     52 H22         2.4404  -12.5714    0.7074 H         1 <0>         0.1818
     53 H23         2.2499  -15.0072    1.0010 H         1 <0>         0.1463
     54 H24         2.5094  -14.5289    5.2329 H         1 <0>         0.1515
     55 H25         1.0589   -0.3624   -1.5626 H         1 <0>         0.4246
@<TRIPOS>BOND
     1    1    2 1
     2    1   31 1
     3    1   32 1
     4    1   33 1
     5    2    7 1
     6    2    3 1
     7    2   55 1
     8    3    4 1
     9    3   34 1
    10    3   35 1
    11    4    5 1
    12    4   36 1
    13    4   37 1
    14    5    6 1
    15    5    8 1
    16    5   38 1
    17    6    7 1
    18    6   39 1
    19    6   40 1
    20    7   41 1
    21    7   42 1
    22    8    9 1
    23    8   43 1
    24    8   44 1
    25    9   10 1
    26   10   15 ar
    27   10   11 ar
    28   11   12 ar
    29   11   45 1
    30   12   21 ar
    31   12   13 ar
    32   13   14 ar
    33   13   18 ar
    34   14   15 ar
    35   14   46 1
    36   15   16 1
    37   16   17 1
    38   17   47 1
    39   17   48 1
    40   17   49 1
    41   18   19 ar
    42   18   22 1
    43   19   20 ar
    44   20   21 ar
    45   20   50 1
    46   22   23 1
    47   22   51 1
    48   23   28 ar
    49   23   24 ar
    50   24   25 ar
    51   24   52 1
    52   25   26 ar
    53   25   53 1
    54   26   27 ar
    55   26   30 1
    56   27   28 ar
    57   27   54 1
    58   28   29 1
@<TRIPOS>MOLECULE
ZINC01910234
   35    36     0     0     0
SMALL
USER_CHARGES

@<TRIPOS>ATOM
      1 C1          0.4526    1.4556   -0.1156 C.ar      1 <0>        -0.0869
      2 C2          1.6960    2.0629   -0.1275 C.ar      1 <0>        -0.1201
      3 C3          2.8472    1.2958   -0.1178 C.ar      1 <0>        -0.0728
      4 C4          2.7621   -0.0812   -0.0958 C.ar      1 <0>        -0.1706
      5 C5          1.5115   -0.6996   -0.0833 C.ar      1 <0>         0.0468
      6 C6          0.3540    0.0799   -0.0936 C.ar      1 <0>        -0.1136
      7 C7          1.4129   -2.1764   -0.0601 C.2       1 <0>        -0.2079
      8 C8          1.0536   -2.8659   -1.2094 C.2       1 <0>         0.2495
      9 N1          0.7897   -2.1787   -2.3675 N.pl3     1 <0>        -0.8305
     10 S1          0.9362   -4.6237   -1.1818 S.3       1 <0>         0.0608
     11 C9          0.6017   -5.0549   -2.8572 C.ar      1 <0>        -0.2364
     12 C10         1.6497   -5.3338   -3.7251 C.ar      1 <0>        -0.0061
     13 C11         1.3875   -5.6716   -5.0377 C.ar      1 <0>        -0.2075
     14 C12         0.0759   -5.7322   -5.4906 C.ar      1 <0>         0.2557
     15 C13        -0.9721   -5.4528   -4.6229 C.ar      1 <0>        -0.2084
     16 C14        -0.7103   -5.1215   -3.3085 C.ar      1 <0>        -0.0088
     17 N2         -0.1897   -6.0741   -6.8211 N.pl3     1 <0>        -0.8679
     18 C15         1.6882   -2.8935    1.1484 C.1       1 <0>         0.2737
     19 N3          1.9067   -3.4624    2.1072 N.1       1 <0>        -0.4321
     20 C16         4.0171   -0.9153   -0.0858 C.3       1 <0>         0.5089
     21 F1          5.1356   -0.0751   -0.1020 F         1 <0>        -0.1808
     22 F2          4.0434   -1.7045    1.0691 F         1 <0>        -0.1704
     23 F3          4.0376   -1.7407   -1.2152 F         1 <0>        -0.1729
     24 H1         -0.4424    2.0600   -0.1191 H         1 <0>         0.1344
     25 H2          1.7680    3.1404   -0.1448 H         1 <0>         0.1352
     26 H3          3.8147    1.7758   -0.1279 H         1 <0>         0.1392
     27 H4         -0.6170   -0.3929   -0.0839 H         1 <0>         0.1372
     28 H5          0.7635   -1.2090   -2.3609 H         1 <0>         0.4067
     29 H6          0.6294   -2.6625   -3.1928 H         1 <0>         0.4070
     30 H7          2.6696   -5.2861   -3.3732 H         1 <0>         0.1358
     31 H8          2.2024   -5.8885   -5.7126 H         1 <0>         0.1306
     32 H9         -1.9919   -5.4996   -4.9752 H         1 <0>         0.1303
     33 H10        -1.5254   -4.9090   -2.6326 H         1 <0>         0.1351
     34 H11         0.5421   -6.2688   -7.4272 H         1 <0>         0.4035
     35 H12        -1.1057   -6.1163   -7.1374 H         1 <0>         0.4033
@<TRIPOS>BOND
     1    1    6 ar
     2    1    2 ar
     3    1   24 1
     4    2    3 ar
     5    2   25 1
     6    3    4 ar
     7    3   26 1
     8    4    5 ar
     9    4   20 1
    10    5    6 ar
    11    5    7 1
    12    6   27 1
    13    7    8 2
    14    7   18 1
    15    8    9 1
    16    8   10 1
    17    9   28 1
    18    9   29 1
    19   10   11 1
    20   11   16 ar
    21   11   12 ar
    22   12   13 ar
    23   12   30 1
    24   13   14 ar
    25   13   31 1
    26   14   15 ar
    27   14   17 1
    28   15   16 ar
    29   15   32 1
    30   16   33 1
    31   17   34 1
    32   17   35 1
    33   18   19 3
    34   20   21 1
    35   20   22 1
    36   20   23 1
@<TRIPOS>MOLECULE
ZINC14951176
   39    42     0     0     0
SMALL
USER_CHARGES

@<TRIPOS>ATOM
      1 C1          0.2405    1.0255    0.8302 C.ar      1 <0>        -0.0645
      2 C2          1.4224    1.7334    0.7710 C.ar      1 <0>        -0.1488
      3 C3          2.3671    1.4303   -0.1967 C.ar      1 <0>         0.1270
      4 C4          2.1300    0.4154   -1.1103 C.ar      1 <0>        -0.1484
      5 C5          0.9516   -0.2992   -1.0607 C.ar      1 <0>        -0.0503
      6 C6         -0.0037    0.0016   -0.0874 C.ar      1 <0>        -0.0633
      7 C7         -1.2678   -0.7602   -0.0291 C.2       1 <0>         0.1046
      8 C8         -1.3961   -2.1162   -0.0863 C.2       1 <0>         0.0796
      9 N1         -2.7456   -2.4073    0.0017 N.pl3     1 <0>        -0.5519
     10 C9         -3.4195   -1.2472    0.1100 C.2       1 <0>         0.4661
     11 C10        -4.8730   -1.1131    0.2269 C.2       1 <0>        -0.2712
     12 C11        -5.4545    0.1603    0.3285 C.2       1 <0>        -0.0131
     13 C12        -6.8063    0.2847    0.4372 C.2       1 <0>        -0.2432
     14 C13        -7.6177   -0.8599    0.4477 C.2       1 <0>         0.3274
     15 O1         -8.9418   -0.7377    0.5542 O.2       1 <0>        -0.6199
     16 C14        -7.0368   -2.1329    0.3456 C.2       1 <0>        -0.2432
     17 C15        -5.6854   -2.2577    0.2315 C.2       1 <0>        -0.0132
     18 N2         -2.5363   -0.2302    0.0993 N.pl3     1 <0>        -0.5537
     19 C16        -0.2980   -3.0933   -0.2185 C.ar      1 <0>         0.0029
     20 C17         0.8460   -3.0046    0.5859 C.ar      1 <0>        -0.1375
     21 C18         1.8471   -3.9391    0.4288 C.ar      1 <0>         0.1110
     22 N3          1.7384   -4.9058   -0.4634 N.ar      1 <0>        -0.4697
     23 C19         0.6787   -5.0262   -1.2411 C.ar      1 <0>         0.1111
     24 C20        -0.3725   -4.1394   -1.1479 C.ar      1 <0>        -0.1541
     25 F1          3.5233    2.1271   -0.2501 F         1 <0>        -0.1285
     26 H1         -0.4930    1.2596    1.5875 H         1 <0>         0.1388
     27 H2          1.6122    2.5258    1.4800 H         1 <0>         0.1474
     28 H3          2.8693    0.1839   -1.8628 H         1 <0>         0.1469
     29 H4          0.7677   -1.0896   -1.7733 H         1 <0>         0.1375
     30 H5         -3.1383   -3.2941   -0.0126 H         1 <0>         0.4530
     31 H6         -4.8300    1.0414    0.3209 H         1 <0>         0.1049
     32 H7         -7.2538    1.2645    0.5158 H         1 <0>         0.1221
     33 H8         -7.6616   -3.0138    0.3533 H         1 <0>         0.1221
     34 H9         -5.2386   -3.2374    0.1489 H         1 <0>         0.1046
     35 H10        -2.7542    0.7126    0.1673 H         1 <0>         0.4532
     36 H11         0.9421   -2.2159    1.3174 H         1 <0>         0.1420
     37 H12         2.7328   -3.8793    1.0439 H         1 <0>         0.1658
     38 H13         0.6328   -5.8333   -1.9573 H         1 <0>         0.1659
     39 H14        -1.2383   -4.2467   -1.7845 H         1 <0>         0.1405
@<TRIPOS>BOND
     1    1    6 ar
     2    1    2 ar
     3    1   26 1
     4    2    3 ar
     5    2   27 1
     6    3    4 ar
     7    3   25 1
     8    4    5 ar
     9    4   28 1
    10    5    6 ar
    11    5   29 1
    12    6    7 1
    13    7   18 1
    14    7    8 2
    15    8    9 1
    16    8   19 1
    17    9   10 1
    18    9   30 1
    19   10   11 2
    20   10   18 1
    21   11   17 1
    22   11   12 1
    23   12   13 2
    24   12   31 1
    25   13   14 1
    26   13   32 1
    27   14   15 2
    28   14   16 1
    29   16   17 2
    30   16   33 1
    31   17   34 1
    32   18   35 1
    33   19   24 ar
    34   19   20 ar
    35   20   21 ar
    36   20   36 1
    37   21   22 ar
    38   21   37 1
    39   22   23 ar
    40   23   24 ar
    41   23   38 1
    42   24   39 1
@<TRIPOS>MOLECULE
ZINC14951176
   40    43     0     0     0
SMALL
USER_CHARGES

@<TRIPOS>ATOM
      1 C1          0.2405    1.0255    0.8302 C.ar      1 <0>        -0.0528
      2 C2          1.4224    1.7334    0.7710 C.ar      1 <0>        -0.1439
      3 C3          2.3671    1.4303   -0.1967 C.ar      1 <0>         0.1411
      4 C4          2.1300    0.4154   -1.1103 C.ar      1 <0>        -0.1508
      5 C5          0.9516   -0.2992   -1.0607 C.ar      1 <0>        -0.0597
      6 C6         -0.0037    0.0016   -0.0874 C.ar      1 <0>        -0.0905
      7 C7         -1.2678   -0.7602   -0.0291 C.2       1 <0>         0.1717
      8 C8         -1.3961   -2.1162   -0.0863 C.2       1 <0>         0.0049
      9 N1         -2.7456   -2.4073    0.0017 N.pl3     1 <0>        -0.5619
     10 C9         -3.4195   -1.2472    0.1100 C.2       1 <0>         0.4672
     11 C10        -4.8730   -1.1131    0.2269 C.2       1 <0>        -0.2599
     12 C11        -5.6849   -2.2580    0.2378 C.2       1 <0>        -0.0193
     13 C12        -7.0367   -2.1330    0.3465 C.2       1 <0>        -0.2271
     14 C13        -7.6177   -0.8599    0.4475 C.2       1 <0>         0.3291
     15 O1         -8.9418   -0.7377    0.5539 O.2       1 <0>        -0.5899
     16 C14        -6.8064    0.2847    0.4370 C.2       1 <0>        -0.2265
     17 C15        -5.4541    0.1600    0.3338 C.2       1 <0>        -0.0193
     18 N2         -2.5363   -0.2302    0.0993 N.pl3     1 <0>        -0.5609
     19 C16        -0.2980   -3.0933   -0.2185 C.ar      1 <0>         0.1131
     20 C17         0.8460   -3.0046    0.5859 C.ar      1 <0>        -0.1113
     21 C18         1.8471   -3.9391    0.4288 C.ar      1 <0>         0.1475
     22 N3          1.7384   -4.9058   -0.4634 N.ar      1 <0>        -0.4453
     23 C19         0.6789   -5.0260   -1.2413 C.ar      1 <0>         0.1502
     24 C20        -0.3725   -4.1394   -1.1479 C.ar      1 <0>        -0.1247
     25 F1          3.5233    2.1271   -0.2501 F         1 <0>        -0.1206
     26 H1         -0.4930    1.2596    1.5875 H         1 <0>         0.1448
     27 H2          1.6122    2.5258    1.4800 H         1 <0>         0.1545
     28 H3          2.8693    0.1839   -1.8628 H         1 <0>         0.1503
     29 H4          0.7677   -1.0896   -1.7733 H         1 <0>         0.1343
     30 H5         -3.1383   -3.2941   -0.0126 H         1 <0>         0.4541
     31 H6         -5.2377   -3.2379    0.1597 H         1 <0>         0.1066
     32 H7         -7.6615   -3.0138    0.3545 H         1 <0>         0.1278
     33 H8         -7.2539    1.2645    0.5152 H         1 <0>         0.1286
     34 H9         -4.8293    1.0409    0.3299 H         1 <0>         0.1087
     35 H10        -2.7542    0.7126    0.1673 H         1 <0>         0.4588
     36 H11         0.9421   -2.2159    1.3174 H         1 <0>         0.1893
     37 H12         2.7328   -3.8793    1.0439 H         1 <0>         0.2181
     38 H13         0.6331   -5.8328   -1.9578 H         1 <0>         0.2182
     39 H14        -1.2383   -4.2467   -1.7845 H         1 <0>         0.1884
     40 H15         2.4602   -5.5480   -0.5503 H         1 <0>         0.4572
@<TRIPOS>BOND
     1    1    6 ar
     2    1    2 ar
     3    1   26 1
     4    2    3 ar
     5    2   27 1
     6    3    4 ar
     7    3   25 1
     8    4    5 ar
     9    4   28 1
    10    5    6 ar
    11    5   29 1
    12    6    7 1
    13    7   18 1
    14    7    8 2
    15    8    9 1
    16    8   19 1
    17    9   10 1
    18    9   30 1
    19   10   11 2
    20   10   18 1
    21   11   17 1
    22   11   12 1
    23   12   13 2
    24   12   31 1
    25   13   14 1
    26   13   32 1
    27   14   15 2
    28   14   16 1
    29   16   17 2
    30   16   33 1
    31   17   34 1
    32   18   35 1
    33   19   24 ar
    34   19   20 ar
    35   20   21 ar
    36   20   36 1
    37   21   22 ar
    38   21   37 1
    39   22   23 ar
    40   22   40 1
    41   23   24 ar
    42   23   38 1
    43   24   39 1
@<TRIPOS>MOLECULE
ZINC14951176
   39    42     0     0     0
SMALL
USER_CHARGES

@<TRIPOS>ATOM
      1 C1         -0.0169    1.3921    0.0097 C.ar      1 <0>        -0.0566
      2 C2          1.1683    2.0955    0.0022 C.ar      1 <0>        -0.1420
      3 C3          2.3804    1.4175   -0.0135 C.ar      1 <0>         0.1205
      4 C4          2.4035    0.0288   -0.0217 C.ar      1 <0>        -0.1413
      5 C5          1.2227   -0.6820   -0.0137 C.ar      1 <0>        -0.0915
      6 C6          0.0021   -0.0041    0.0020 C.ar      1 <0>        -0.0305
      7 C7         -1.2663   -0.7622    0.0101 C.2       1 <0>         0.2668
      8 N1         -2.4688   -0.2344    0.0239 N.2       1 <0>        -0.4516
      9 H1         -0.6429   -2.7598   -0.0166 H         1 <0>         0.4248
     10 C8         -3.3891   -1.2133    0.0276 C.2       1 <0>         0.0607
     11 C9         -2.7170   -2.4244    0.0153 C.2       1 <0>         0.0509
     12 N2         -1.3752   -2.1239   -0.0017 N.pl3     1 <0>        -0.5528
     13 C10        -3.3214   -3.7709    0.0147 C.ar      1 <0>        -0.0389
     14 C11        -4.3834   -4.0632    0.8738 C.ar      1 <0>        -0.0572
     15 C12        -4.9440   -5.3230    0.8688 C.ar      1 <0>        -0.1473
     16 C13        -4.4555   -6.2985    0.0139 C.ar      1 <0>         0.1118
     17 C14        -3.4017   -6.0145   -0.8405 C.ar      1 <0>        -0.1493
     18 C15        -2.8374   -4.7564   -0.8492 C.ar      1 <0>        -0.0780
     19 F1         -5.0084   -7.5311    0.0136 F         1 <0>        -0.1337
     20 C16        -4.8582   -1.0303    0.0430 C.ar      1 <0>         0.0400
     21 C17        -5.7004   -1.9173   -0.6371 C.ar      1 <0>        -0.1586
     22 C18        -7.0629   -1.7095   -0.5964 C.ar      1 <0>         0.1014
     23 N3         -7.5737   -0.6921    0.0713 N.ar      1 <0>        -0.4840
     24 C19        -6.8154    0.1672    0.7258 C.ar      1 <0>         0.1006
     25 C20        -5.4433    0.0310    0.7427 C.ar      1 <0>        -0.1465
     26 O1          3.5463    2.1144   -0.0214 O.3       1 <0>        -0.4977
     27 H2         -0.9589    1.9200    0.0260 H         1 <0>         0.1437
     28 H3          1.1545    3.1754    0.0081 H         1 <0>         0.1381
     29 H4          3.3480   -0.4948   -0.0346 H         1 <0>         0.1359
     30 H5          1.2415   -1.7618   -0.0204 H         1 <0>         0.1230
     31 H6         -4.7644   -3.3041    1.5409 H         1 <0>         0.1365
     32 H7         -5.7651   -5.5501    1.5325 H         1 <0>         0.1435
     33 H8         -3.0248   -6.7788   -1.5040 H         1 <0>         0.1419
     34 H9         -2.0195   -4.5348   -1.5187 H         1 <0>         0.1326
     35 H10        -5.2894   -2.7518   -1.1857 H         1 <0>         0.1340
     36 H11        -7.7211   -2.3883   -1.1184 H         1 <0>         0.1574
     37 H12        -7.2760    0.9856    1.2591 H         1 <0>         0.1586
     38 H13        -4.8292    0.7351    1.2845 H         1 <0>         0.1395
     39 H14         3.8927    2.3115    0.8597 H         1 <0>         0.3954
@<TRIPOS>BOND
     1    1    6 ar
     2    1    2 ar
     3    1   27 1
     4    2    3 ar
     5    2   28 1
     6    3    4 ar
     7    3   26 1
     8    4    5 ar
     9    4   29 1
    10    5    6 ar
    11    5   30 1
    12    6    7 1
    13    7    8 2
    14    7   12 1
    15    8   10 1
    16    9   12 1
    17   10   20 1
    18   10   11 2
    19   11   13 1
    20   11   12 1
    21   13   18 ar
    22   13   14 ar
    23   14   15 ar
    24   14   31 1
    25   15   16 ar
    26   15   32 1
    27   16   17 ar
    28   16   19 1
    29   17   18 ar
    30   17   33 1
    31   18   34 1
    32   20   25 ar
    33   20   21 ar
    34   21   22 ar
    35   21   35 1
    36   22   23 ar
    37   22   36 1
    38   23   24 ar
    39   24   25 ar
    40   24   37 1
    41   25   38 1
    42   26   39 1
@<TRIPOS>MOLECULE
ZINC14951176
   40    43     0     0     0
SMALL
USER_CHARGES

@<TRIPOS>ATOM
      1 C1         -0.0079    1.3560    0.4128 C.ar      1 <0>        -0.0502
      2 C2          1.1789    2.0446    0.5411 C.ar      1 <0>        -0.1379
      3 C3          2.3872    1.3600    0.5181 C.ar      1 <0>         0.1743
      4 C4          2.4048   -0.0205    0.3656 C.ar      1 <0>        -0.1372
      5 C5          1.2223   -0.7164    0.2363 C.ar      1 <0>        -0.0529
      6 C6          0.0054   -0.0319    0.2597 C.ar      1 <0>        -0.1114
      7 C7         -1.2648   -0.7743    0.1224 C.cat     1 <0>         0.3974
      8 N1         -2.5103   -0.2175    0.1240 N.pl3     1 <0>        -0.5055
      9 H1         -2.7195    0.7253    0.2141 H         1 <0>         0.4639
     10 C8         -3.4150   -1.2456   -0.0267 C.2       1 <0>         0.1188
     11 C9         -2.6710   -2.4104   -0.1160 C.2       1 <0>         0.1124
     12 N2         -1.3744   -2.0755   -0.0265 N.pl3     1 <0>        -0.4709
     13 C10        -3.2098   -3.7802   -0.2862 C.ar      1 <0>        -0.0876
     14 C11        -4.1834   -4.0340   -1.2519 C.ar      1 <0>        -0.0424
     15 C12        -4.6816   -5.3110   -1.4069 C.ar      1 <0>        -0.1470
     16 C13        -4.2164   -6.3406   -0.6047 C.ar      1 <0>         0.1433
     17 C14        -3.2491   -6.0935    0.3562 C.ar      1 <0>        -0.1478
     18 C15        -2.7406   -4.8209    0.5148 C.ar      1 <0>        -0.0599
     19 F1         -4.7080   -7.5895   -0.7596 F         1 <0>        -0.1208
     20 C16        -4.8840   -1.1288   -0.0821 C.ar      1 <0>        -0.0205
     21 C17        -5.7034   -1.9735    0.6798 C.ar      1 <0>        -0.1289
     22 C18        -7.0715   -1.8287    0.5974 C.ar      1 <0>         0.1171
     23 N3         -7.6107   -0.9116   -0.1841 N.ar      1 <0>        -0.4578
     24 C19        -6.8767   -0.0959   -0.9180 C.ar      1 <0>         0.1165
     25 C20        -5.5005   -0.1662   -0.8936 C.ar      1 <0>        -0.1481
     26 O1          3.5548    2.0423    0.6448 O.3       1 <0>        -0.4899
     27 H2         -0.9472    1.8885    0.4352 H         1 <0>         0.1371
     28 H3          1.1694    3.1181    0.6592 H         1 <0>         0.1540
     29 H4          3.3464   -0.5492    0.3479 H         1 <0>         0.1543
     30 H5          1.2369   -1.7897    0.1170 H         1 <0>         0.1372
     31 H6         -4.5471   -3.2320   -1.8771 H         1 <0>         0.1402
     32 H7         -5.4356   -5.5085   -2.1544 H         1 <0>         0.1527
     33 H8         -2.8897   -6.8992    0.9791 H         1 <0>         0.1527
     34 H9         -1.9838   -4.6301    1.2612 H         1 <0>         0.1391
     35 H10        -5.2693   -2.7263    1.3211 H         1 <0>         0.1460
     36 H11        -7.7114   -2.4748    1.1801 H         1 <0>         0.1719
     37 H12        -7.3614    0.6395   -1.5430 H         1 <0>         0.1713
     38 H13        -4.9063    0.5074   -1.4932 H         1 <0>         0.1422
     39 H14         3.8545    2.1428    1.5587 H         1 <0>         0.4115
     40 H15        -0.6320   -2.6987   -0.0633 H         1 <0>         0.4629
@<TRIPOS>BOND
     1    1    6 ar
     2    1    2 ar
     3    1   27 1
     4    2    3 ar
     5    2   28 1
     6    3    4 ar
     7    3   26 1
     8    4    5 ar
     9    4   29 1
    10    5    6 ar
    11    5   30 1
    12    6    7 1
    13    7   12 2
    14    7    8 1
    15    8    9 1
    16    8   10 1
    17   10   11 2
    18   10   20 1
    19   11   12 1
    20   11   13 1
    21   12   40 1
    22   13   18 ar
    23   13   14 ar
    24   14   15 ar
    25   14   31 1
    26   15   16 ar
    27   15   32 1
    28   16   17 ar
    29   16   19 1
    30   17   18 ar
    31   17   33 1
    32   18   34 1
    33   20   25 ar
    34   20   21 ar
    35   21   22 ar
    36   21   35 1
    37   22   23 ar
    38   22   36 1
    39   23   24 ar
    40   24   25 ar
    41   24   37 1
    42   25   38 1
    43   26   39 1
@<TRIPOS>MOLECULE
ZINC14951176
   40    43     0     0     0
SMALL
USER_CHARGES

@<TRIPOS>ATOM
      1 C1         -0.0268    1.3873   -0.2487 C.ar      1 <0>        -0.0533
      2 C2          1.1507    2.0881   -0.3954 C.ar      1 <0>        -0.1372
      3 C3          2.3508    1.4075   -0.5560 C.ar      1 <0>         0.1741
      4 C4          2.3694    0.0187   -0.5693 C.ar      1 <0>        -0.1379
      5 C5          1.1963   -0.6894   -0.4227 C.ar      1 <0>        -0.0501
      6 C6         -0.0123   -0.0089   -0.2611 C.ar      1 <0>        -0.1113
      7 C7         -1.2726   -0.7643   -0.1040 C.cat     1 <0>         0.3964
      8 N1         -1.3739   -2.1224    0.0021 N.pl3     1 <0>        -0.5087
      9 H1         -0.6406   -2.7573   -0.0113 H         1 <0>         0.4641
     10 C8         -2.7098   -2.4213    0.1324 C.2       1 <0>         0.1445
     11 C9         -3.3862   -1.2129    0.1003 C.2       1 <0>         0.0865
     12 N2         -2.4734   -0.2367   -0.0386 N.pl3     1 <0>        -0.4668
     13 C10        -4.8514   -1.0295    0.2063 C.ar      1 <0>        -0.0181
     14 C11        -5.5878   -1.6830    1.2008 C.ar      1 <0>        -0.1314
     15 C12        -6.9507   -1.4834    1.2636 C.ar      1 <0>         0.1177
     16 N3         -7.5598   -0.6900    0.4025 N.ar      1 <0>        -0.4587
     17 C13        -6.9031   -0.0552   -0.5501 C.ar      1 <0>         0.1173
     18 C14        -5.5375   -0.1932   -0.6817 C.ar      1 <0>        -0.1516
     19 C15        -3.3053   -3.7640    0.2776 C.ar      1 <0>        -0.0905
     20 C16        -4.4063   -4.1307   -0.5000 C.ar      1 <0>        -0.0398
     21 C17        -4.9583   -5.3865   -0.3599 C.ar      1 <0>        -0.1481
     22 C18        -4.4232   -6.2840    0.5507 C.ar      1 <0>         0.1454
     23 C19        -3.3311   -5.9257    1.3253 C.ar      1 <0>        -0.1491
     24 C20        -2.7664   -4.6752    1.1893 C.ar      1 <0>        -0.0562
     25 F1         -4.9685   -7.5129    0.6840 F         1 <0>        -0.1204
     26 O1          3.5092    2.1019   -0.7007 O.3       1 <0>        -0.4899
     27 H2         -0.9590    1.9172   -0.1198 H         1 <0>         0.1369
     28 H3          1.1404    3.1680   -0.3860 H         1 <0>         0.1542
     29 H4          3.3045   -0.5068   -0.6950 H         1 <0>         0.1540
     30 H5          1.2115   -1.7693   -0.4335 H         1 <0>         0.1375
     31 H6         -5.0961   -2.3342    1.9084 H         1 <0>         0.1454
     32 H7         -7.5277   -1.9833    2.0275 H         1 <0>         0.1715
     33 H8         -7.4422    0.5842   -1.2336 H         1 <0>         0.1711
     34 H9         -5.0059    0.3326   -1.4610 H         1 <0>         0.1417
     35 H10        -4.8245   -3.4319   -1.2094 H         1 <0>         0.1408
     36 H11        -5.8095   -5.6711   -0.9606 H         1 <0>         0.1531
     37 H12        -2.9189   -6.6290    2.0337 H         1 <0>         0.1530
     38 H13        -1.9125   -4.3987    1.7900 H         1 <0>         0.1398
     39 H14         3.9581    2.2964    0.1334 H         1 <0>         0.4114
     40 H15        -2.6712    0.7118   -0.0857 H         1 <0>         0.4627
@<TRIPOS>BOND
     1    1    6 ar
     2    1    2 ar
     3    1   27 1
     4    2    3 ar
     5    2   28 1
     6    3    4 ar
     7    3   26 1
     8    4    5 ar
     9    4   29 1
    10    5    6 ar
    11    5   30 1
    12    6    7 1
    13    7   12 2
    14    7    8 1
    15    8    9 1
    16    8   10 1
    17   10   11 2
    18   10   19 1
    19   11   12 1
    20   11   13 1
    21   12   40 1
    22   13   18 ar
    23   13   14 ar
    24   14   15 ar
    25   14   31 1
    26   15   16 ar
    27   15   32 1
    28   16   17 ar
    29   17   18 ar
    30   17   33 1
    31   18   34 1
    32   19   24 ar
    33   19   20 ar
    34   20   21 ar
    35   20   35 1
    36   21   22 ar
    37   21   36 1
    38   22   23 ar
    39   22   25 1
    40   23   24 ar
    41   23   37 1
    42   24   38 1
    43   26   39 1
@<TRIPOS>MOLECULE
ZINC18371391
   51    55     0     0     0
SMALL
USER_CHARGES

@<TRIPOS>ATOM
      1 C1         -1.9121    0.8520   -0.5002 C.3       1 <0>         0.0932
      2 N1         -1.2344   -0.4395   -0.3627 N.pl3     1 <0>        -0.6168
      3 C2         -1.3570   -1.2022    0.8821 C.3       1 <0>         0.1028
      4 C3         -0.4735   -0.9422   -1.4153 C.ar      1 <0>         0.3834
      5 C4         -0.2766   -0.1621   -2.5423 C.ar      1 <0>        -0.2100
      6 C5          0.4899   -0.6862   -3.5849 C.ar      1 <0>        -0.1046
      7 C6          1.0321   -1.9899   -3.4464 C.ar      1 <0>         0.0725
      8 C7          0.7768   -2.7011   -2.2673 C.ar      1 <0>         0.2016
      9 N2          0.0526   -2.1581   -1.3148 N.ar      1 <0>        -0.5008
     10 N3          1.7671   -2.4864   -4.4507 N.ar      1 <0>        -0.5205
     11 C8          1.9823   -1.7871   -5.5372 C.ar      1 <0>         0.3237
     12 N4          1.5089   -0.5670   -5.7351 N.ar      1 <0>        -0.5674
     13 C9          0.7651    0.0428   -4.8194 C.ar      1 <0>         0.4557
     14 N5          0.2722    1.3143   -5.0265 N.pl3     1 <0>        -0.6297
     15 C10         0.4497    1.9407   -6.2658 C.ar      1 <0>         0.1136
     16 C11         0.4304    1.1813   -7.4367 C.ar      1 <0>        -0.0538
     17 C12         0.6016    1.7726   -8.6547 C.ar      1 <0>        -0.1220
     18 C13         0.7985    3.1488   -8.7416 C.ar      1 <0>         0.1252
     19 C14         0.8193    3.9246   -7.5670 C.ar      1 <0>        -0.1620
     20 C15         0.6374    3.3072   -6.3242 C.ar      1 <0>        -0.0675
     21 C16         1.0414    5.3038   -7.9895 C.2       1 <0>         0.0716
     22 N6          1.1382    5.3118   -9.2884 N.2       1 <0>        -0.2450
     23 N7          0.9954    4.0135   -9.7887 N.pl3     1 <0>        -0.3988
     24 C17         1.0480    3.6373  -11.2036 C.3       1 <0>         0.1823
     25 C18        -0.3377    3.7021  -11.7925 C.ar      1 <0>        -0.1191
     26 C19        -1.1555    2.5881  -11.7596 C.ar      1 <0>        -0.0991
     27 C20        -2.4265    2.6476  -12.2998 C.ar      1 <0>        -0.1223
     28 C21        -2.8799    3.8213  -12.8725 C.ar      1 <0>        -0.1098
     29 C22        -2.0624    4.9355  -12.9046 C.ar      1 <0>        -0.1227
     30 C23        -0.7929    4.8773  -12.3605 C.ar      1 <0>        -0.0919
     31 H1         -1.2494    1.6481   -0.1609 H         1 <0>         0.0556
     32 H2         -2.1719    1.0164   -1.5459 H         1 <0>         0.0689
     33 H3         -2.8194    0.8524    0.1040 H         1 <0>         0.0759
     34 H4         -1.9860   -0.6542    1.5836 H         1 <0>         0.0717
     35 H5         -1.8076   -2.1720    0.6711 H         1 <0>         0.0602
     36 H6         -0.3685   -1.3480    1.3178 H         1 <0>         0.0581
     37 H7         -0.7053    0.8266   -2.6131 H         1 <0>         0.1350
     38 H8          1.1787   -3.6953   -2.1393 H         1 <0>         0.1796
     39 H9          2.5817   -2.2323   -6.3176 H         1 <0>         0.1951
     40 H10        -0.1975    1.7745   -4.3133 H         1 <0>         0.4201
     41 H11         0.2787    0.1136   -7.3781 H         1 <0>         0.1419
     42 H12         0.5847    1.1726   -9.5525 H         1 <0>         0.1271
     43 H13         0.6481    3.8944   -5.4179 H         1 <0>         0.1312
     44 H14         1.1124    6.1644   -7.3408 H         1 <0>         0.1962
     45 H15         1.7027    4.3253  -11.7385 H         1 <0>         0.1028
     46 H16         1.4347    2.6223  -11.2955 H         1 <0>         0.0997
     47 H17        -0.8013    1.6712  -11.3122 H         1 <0>         0.1215
     48 H18        -3.0652    1.7771  -12.2748 H         1 <0>         0.1245
     49 H19        -3.8727    3.8675  -13.2952 H         1 <0>         0.1238
     50 H20        -2.4165    5.8523  -13.3523 H         1 <0>         0.1246
     51 H21        -0.1556    5.7489  -12.3823 H         1 <0>         0.1246
@<TRIPOS>BOND
     1    1    2 1
     2    1   31 1
     3    1   32 1
     4    1   33 1
     5    2    3 1
     6    2    4 1
     7    3   34 1
     8    3   35 1
     9    3   36 1
    10    4    9 ar
    11    4    5 ar
    12    5    6 ar
    13    5   37 1
    14    6   13 ar
    15    6    7 ar
    16    7    8 ar
    17    7   10 ar
    18    8    9 ar
    19    8   38 1
    20   10   11 ar
    21   11   12 ar
    22   11   39 1
    23   12   13 ar
    24   13   14 1
    25   14   15 1
    26   14   40 1
    27   15   20 ar
    28   15   16 ar
    29   16   17 ar
    30   16   41 1
    31   17   18 ar
    32   17   42 1
    33   18   23 1
    34   18   19 ar
    35   19   20 ar
    36   19   21 1
    37   20   43 1
    38   21   22 2
    39   21   44 1
    40   22   23 1
    41   23   24 1
    42   24   25 1
    43   24   45 1
    44   24   46 1
    45   25   30 ar
    46   25   26 ar
    47   26   27 ar
    48   26   47 1
    49   27   28 ar
    50   27   48 1
    51   28   29 ar
    52   28   49 1
    53   29   30 ar
    54   29   50 1
    55   30   51 1
@<TRIPOS>MOLECULE
ZINC27439698
   59    62     0     0     0
SMALL
USER_CHARGES

@<TRIPOS>ATOM
      1 C1         -0.2063    1.0844    0.8125 C.2       1 <0>        -0.0780
      2 C2         -0.0916   -0.1284    0.2785 C.2       1 <0>        -0.2217
      3 C3          1.1892   -0.8472    0.3546 C.2       1 <0>         0.5464
      4 O1          2.1435   -0.3327    0.9059 O.2       1 <0>        -0.5301
      5 N1          1.3054   -2.0761   -0.1864 N.am      1 <0>        -0.6549
      6 C4          2.5517   -2.7129   -0.2160 C.ar      1 <0>         0.1200
      7 C5          3.7048   -1.9595   -0.1827 C.ar      1 <0>        -0.0579
      8 C6          4.9490   -2.5997   -0.2120 C.ar      1 <0>        -0.1974
      9 C7          5.0154   -4.0138   -0.2753 C.ar      1 <0>         0.2129
     10 C8          3.8313   -4.7603   -0.3083 C.ar      1 <0>        -0.1947
     11 C9          2.6164   -4.1137   -0.2734 C.ar      1 <0>         0.1622
     12 O2          1.4681   -4.8389   -0.3002 O.3       1 <0>        -0.3093
     13 C10         1.5999   -6.2606   -0.3586 C.3       1 <0>         0.0588
     14 C11         0.2106   -6.9010   -0.3813 C.3       1 <0>        -0.1156
     15 C12         0.3517   -8.4232   -0.4438 C.3       1 <0>         0.0578
     16 N2         -0.9822   -9.0382   -0.4657 N.3       1 <0>        -0.5360
     17 C13        -1.6880   -8.8108    0.8038 C.3       1 <0>         0.0125
     18 C14        -3.0921   -9.4148    0.7161 C.3       1 <0>         0.0626
     19 O3         -2.9885  -10.8047    0.3955 O.3       1 <0>        -0.3850
     20 C15        -2.3071  -11.0626   -0.8351 C.3       1 <0>         0.0628
     21 C16        -0.8951  -10.4753   -0.7631 C.3       1 <0>         0.0171
     22 N3          6.2221   -4.6015   -0.3018 N.ar      1 <0>        -0.5452
     23 C17         7.3156   -3.8777   -0.2694 C.ar      1 <0>         0.3493
     24 N4          7.3023   -2.5556   -0.2097 N.ar      1 <0>        -0.5859
     25 C18         6.1642   -1.8746   -0.1796 C.ar      1 <0>         0.4714
     26 N5          6.1650   -0.4957   -0.1182 N.pl3     1 <0>        -0.6328
     27 C19         7.3694    0.2084   -0.2227 C.ar      1 <0>         0.1581
     28 C20         7.5013    1.4536    0.3785 C.ar      1 <0>        -0.1169
     29 C21         8.6911    2.1472    0.2750 C.ar      1 <0>        -0.1176
     30 C22         9.7524    1.6027   -0.4280 C.ar      1 <0>         0.0901
     31 C23         9.6235    0.3609   -1.0292 C.ar      1 <0>        -0.0524
     32 C24         8.4363   -0.3392   -0.9225 C.ar      1 <0>        -0.0856
     33 Cl1        10.9555   -0.3188   -1.9109 Cl        1 <0>        -0.0424
     34 F1         10.9152    2.2833   -0.5284 F         1 <0>        -0.1264
     35 H1          0.6411    1.5413    1.3020 H         1 <0>         0.1166
     36 H2         -1.1456    1.6141    0.7527 H         1 <0>         0.1209
     37 H3         -0.9390   -0.5853   -0.2110 H         1 <0>         0.1323
     38 H4          0.5255   -2.5194   -0.5554 H         1 <0>         0.4201
     39 H5          3.6489   -0.8820   -0.1348 H         1 <0>         0.1596
     40 H6          3.8708   -5.8385   -0.3565 H         1 <0>         0.1517
     41 H7          2.1429   -6.5383   -1.2620 H         1 <0>         0.0720
     42 H8          2.1473   -6.6110    0.5165 H         1 <0>         0.0691
     43 H9         -0.3323   -6.6233    0.5221 H         1 <0>         0.0760
     44 H10        -0.3367   -6.5506   -1.2564 H         1 <0>         0.0860
     45 H11         0.8947   -8.7010   -1.3473 H         1 <0>         0.0821
     46 H12         0.8990   -8.7736    0.4312 H         1 <0>         0.0409
     47 H13        -1.1377   -9.2854    1.6162 H         1 <0>         0.0448
     48 H14        -1.7636   -7.7398    0.9914 H         1 <0>         0.0895
     49 H15        -3.5986   -9.2990    1.6743 H         1 <0>         0.0993
     50 H16        -3.6604   -8.9035   -0.0609 H         1 <0>         0.0609
     51 H17        -2.2459  -12.1385   -0.9988 H         1 <0>         0.1001
     52 H18        -2.8525  -10.5991   -1.6572 H         1 <0>         0.0612
     53 H19        -0.3918  -10.6192   -1.7193 H         1 <0>         0.0886
     54 H20        -0.3321  -10.9764    0.0243 H         1 <0>         0.0452
     55 H21         8.2696   -4.3834   -0.2921 H         1 <0>         0.1993
     56 H22         5.3306   -0.0149   -0.0027 H         1 <0>         0.4275
     57 H23         6.6738    1.8794    0.9265 H         1 <0>         0.1431
     58 H24         8.7936    3.1154    0.7424 H         1 <0>         0.1506
     59 H25         8.3373   -1.3092   -1.3869 H         1 <0>         0.1663
@<TRIPOS>BOND
     1    1    2 2
     2    1   35 1
     3    1   36 1
     4    2    3 1
     5    2   37 1
     6    3    4 2
     7    3    5 am
     8    5    6 1
     9    5   38 1
    10    6   11 ar
    11    6    7 ar
    12    7    8 ar
    13    7   39 1
    14    8   25 ar
    15    8    9 ar
    16    9   10 ar
    17    9   22 ar
    18   10   11 ar
    19   10   40 1
    20   11   12 1
    21   12   13 1
    22   13   14 1
    23   13   41 1
    24   13   42 1
    25   14   15 1
    26   14   43 1
    27   14   44 1
    28   15   16 1
    29   15   45 1
    30   15   46 1
    31   16   21 1
    32   16   17 1
    33   17   18 1
    34   17   47 1
    35   17   48 1
    36   18   19 1
    37   18   49 1
    38   18   50 1
    39   19   20 1
    40   20   21 1
    41   20   51 1
    42   20   52 1
    43   21   53 1
    44   21   54 1
    45   22   23 ar
    46   23   24 ar
    47   23   55 1
    48   24   25 ar
    49   25   26 1
    50   26   27 1
    51   26   56 1
    52   27   32 ar
    53   27   28 ar
    54   28   29 ar
    55   28   57 1
    56   29   30 ar
    57   29   58 1
    58   30   31 ar
    59   30   34 1
    60   31   32 ar
    61   31   33 1
    62   32   59 1
@<TRIPOS>MOLECULE
ZINC03982130
   50    51     0     0     0
SMALL
USER_CHARGES

@<TRIPOS>ATOM
      1 C1         -0.0187    1.5258    0.0104 C.3       1 <0>        -0.2007
      2 C2          0.0021   -0.0041    0.0020 C.3       1 <0>         0.1097
      3 H1         -1.0205   -0.3814    0.0098 H         1 <0>         0.1090
      4 C3          0.7184   -0.4976   -1.2566 C.3       1 <0>        -0.2162
      5 C4          0.6959    0.5849   -2.3049 C.2       1 <0>        -0.0297
      6 C5          1.8379    1.1456   -2.7085 C.2       1 <0>        -0.2557
      7 C6          3.1091    0.7098   -2.1312 C.2       1 <0>         0.3442
      8 O1          3.1248   -0.1613   -1.2868 O.2       1 <0>        -0.3603
      9 C7          4.3996    1.3422   -2.5852 C.3       1 <0>         0.0392
     10 H2          4.5012    1.2261   -3.6642 H         1 <0>         0.0775
     11 C8          5.5762    0.6586   -1.8857 C.3       1 <0>         0.1198
     12 H3          6.4968    0.8754   -2.4275 H         1 <0>         0.0624
     13 C9          5.6920    1.1829   -0.4529 C.3       1 <0>        -0.1050
     14 C10         4.8754    0.2904    0.4837 C.3       1 <0>        -0.1550
     15 C11         4.6033    1.0363    1.7918 C.3       1 <0>        -0.0800
     16 C12         3.9792    0.0908    2.7858 C.ar      1 <0>         0.0458
     17 C13         4.6753   -0.2820    3.9123 C.ar      1 <0>        -0.1782
     18 C14         4.1043   -1.1570    4.8317 C.ar      1 <0>         0.1845
     19 C15         2.8292   -1.6605    4.6193 C.ar      1 <0>        -0.2633
     20 C16         2.1178   -1.2926    3.4909 C.ar      1 <0>         0.2090
     21 C17         2.6912   -0.4075    2.5638 C.ar      1 <0>        -0.1956
     22 C18         1.9400   -0.0053    1.3643 C.2       1 <0>         0.5058
     23 O2          2.4428    0.7524    0.5579 O.2       1 <0>        -0.4686
     24 O3          0.6934   -0.4775    1.1595 O.3       1 <0>        -0.3323
     25 O4          0.8714   -1.7849    3.2811 O.3       1 <0>        -0.4782
     26 O5          4.7980   -1.5195    5.9403 O.3       1 <0>        -0.3085
     27 C19         4.1536   -2.4206    6.8430 C.3       1 <0>         0.0229
     28 O6          5.3599   -0.7537   -1.8602 O.3       1 <0>        -0.5347
     29 O7          4.3911    2.7323   -2.2543 O.3       1 <0>        -0.5349
     30 H4          1.0039    1.9031    0.0027 H         1 <0>         0.0946
     31 H5         -0.5459    1.8868   -0.8726 H         1 <0>         0.0679
     32 H6         -0.5289    1.8773    0.9072 H         1 <0>         0.0571
     33 H7          1.7513   -0.7459   -1.0129 H         1 <0>         0.1710
     34 H8          0.2121   -1.3840   -1.6387 H         1 <0>         0.0755
     35 H9         -0.2438    0.9071   -2.7287 H         1 <0>         0.1170
     36 H10         1.8233    1.9196   -3.4617 H         1 <0>         0.1256
     37 H11         6.7377    1.1718   -0.1454 H         1 <0>         0.0549
     38 H12         5.3105    2.2029   -0.4073 H         1 <0>         0.0882
     39 H13         3.9287    0.0345    0.0078 H         1 <0>         0.1651
     40 H14         5.4338   -0.6216    0.6949 H         1 <0>         0.0462
     41 H15         5.5413    1.4194    2.1938 H         1 <0>         0.0611
     42 H16         3.9226    1.8662    1.6024 H         1 <0>         0.0886
     43 H17         5.6687    0.1056    4.0837 H         1 <0>         0.1414
     44 H18         2.3915   -2.3405    5.3352 H         1 <0>         0.1416
     45 H19         0.1656   -1.2435    3.6604 H         1 <0>         0.3979
     46 H20         4.8154   -2.6276    7.6839 H         1 <0>         0.1051
     47 H21         3.2309   -1.9702    7.2090 H         1 <0>         0.0595
     48 H22         3.9229   -3.3512    6.3245 H         1 <0>         0.0604
     49 H23         5.2766   -1.1548   -2.7361 H         1 <0>         0.3677
     50 H24         3.6701    3.2297   -2.6639 H         1 <0>         0.3811
@<TRIPOS>BOND
     1    1    2 1
     2    1   30 1
     3    1   31 1
     4    1   32 1
     5    2    3 1
     6    2   24 1
     7    2    4 1
     8    4    5 1
     9    4   33 1
    10    4   34 1
    11    5    6 2
    12    5   35 1
    13    6    7 1
    14    6   36 1
    15    7    8 2
    16    7    9 1
    17    9   10 1
    18    9   11 1
    19    9   29 1
    20   11   12 1
    21   11   13 1
    22   11   28 1
    23   13   14 1
    24   13   37 1
    25   13   38 1
    26   14   15 1
    27   14   39 1
    28   14   40 1
    29   15   16 1
    30   15   41 1
    31   15   42 1
    32   16   21 ar
    33   16   17 ar
    34   17   18 ar
    35   17   43 1
    36   18   19 ar
    37   18   26 1
    38   19   20 ar
    39   19   44 1
    40   20   21 ar
    41   20   25 1
    42   21   22 1
    43   22   23 2
    44   22   24 1
    45   25   45 1
    46   26   27 1
    47   27   46 1
    48   27   47 1
    49   27   48 1
    50   28   49 1
    51   29   50 1
@<TRIPOS>MOLECULE
ZINC03816310
   51    55     0     0     0
SMALL
USER_CHARGES
4-amino-5-fluoro-3-[5-(4-methylpiperazin-1-yl)-3H-benzoimidazol-2-yl]-1H-quinolin-2-one
@<TRIPOS>ATOM
      1 C1         -4.4670    0.8494    3.0633 C.3       1 <0>        -0.0407
      2 C2         -3.3790    0.9463    0.9019 C.3       1 <0>         0.0019
      3 C3         -3.5151    1.4789   -0.5264 C.3       1 <0>         0.0203
      4 N1         -3.5799    2.9467   -0.4951 N.pl3     1 <0>        -0.4822
      5 C4         -4.7239    3.4034    0.3063 C.3       1 <0>         0.0231
      6 C5         -4.5878    2.8708    1.7347 C.3       1 <0>         0.0021
      7 C6         -3.6324    3.4738   -1.7895 C.ar      1 <0>         0.0898
      8 C7         -3.6187    2.6172   -2.8884 C.ar      1 <0>        -0.1658
      9 C8         -3.6694    3.1157   -4.1588 C.ar      1 <0>        -0.0428
     10 C9         -3.7362    4.4973   -4.3655 C.ar      1 <0>         0.0571
     11 C10        -3.7506    5.3641   -3.2589 C.ar      1 <0>         0.0655
     12 C11        -3.7036    4.8454   -1.9734 C.ar      1 <0>        -0.1134
     13 N2         -3.8198    6.6467   -3.7722 N.pl3     1 <0>        -0.5851
     14 H1         -3.8464    7.4962   -3.2453 H         1 <0>         0.4436
     15 C12        -3.8451    6.5353   -5.1390 C.2       1 <0>         0.4046
     16 N3         -3.7957    5.2687   -5.4809 N.2       1 <0>        -0.5294
     17 C13        -3.9164    7.6652   -6.0804 C.2       1 <0>        -0.3025
     18 C14        -4.0559    7.4305   -7.4504 C.2       1 <0>         0.3760
     19 C15        -4.1228    8.5898   -8.3476 C.ar      1 <0>        -0.1878
     20 C16        -4.0447    9.8830   -7.7997 C.ar      1 <0>         0.2450
     21 C17        -4.1078   10.9864   -8.6429 C.ar      1 <0>        -0.1734
     22 C18        -4.2458   10.8081  -10.0035 C.ar      1 <0>        -0.0185
     23 C19        -4.3231    9.5350  -10.5468 C.ar      1 <0>        -0.1801
     24 C20        -4.2628    8.4239   -9.7304 C.ar      1 <0>         0.1680
     25 F1         -4.3388    7.1843  -10.2623 F         1 <0>        -0.1206
     26 N4         -3.9076   10.0470   -6.4354 N.am      1 <0>        -0.6368
     27 H2         -3.8498   10.9715   -6.0585 H         1 <0>         0.4300
     28 C21        -3.8500    8.9949   -5.6023 C.2       1 <0>         0.5826
     29 O1         -3.7334    9.1908   -4.4050 O.2       1 <0>        -0.5600
     30 N5         -4.1288    6.1500   -7.9440 N.pl3     1 <0>        -0.8025
     31 H3         -3.5472    1.1734    3.5502 H         1 <0>         0.1241
     32 H4         -5.3249    1.2032    3.6351 H         1 <0>         0.1225
     33 H5         -4.4877   -0.2393    3.0134 H         1 <0>         0.1228
     34 H6         -3.3598   -0.1434    0.8835 H         1 <0>         0.1376
     35 H7         -2.4541    1.3189    1.3424 H         1 <0>         0.1399
     36 H8         -2.6529    1.1655   -1.1151 H         1 <0>         0.1307
     37 H9         -4.4260    1.0841   -0.9765 H         1 <0>         0.0717
     38 H10        -4.7431    4.4931    0.3248 H         1 <0>         0.1261
     39 H11        -5.6486    3.0309   -0.1345 H         1 <0>         0.0691
     40 H12        -3.6769    3.2656    2.1847 H         1 <0>         0.1400
     41 H13        -5.4498    3.1846    2.3235 H         1 <0>         0.1367
     42 H14        -3.5672    1.5496   -2.7341 H         1 <0>         0.1314
     43 H15        -3.6582    2.4431   -5.0037 H         1 <0>         0.1346
     44 H16        -3.7183    5.5073   -1.1202 H         1 <0>         0.1268
     45 H17        -4.0491   11.9836   -8.2323 H         1 <0>         0.1496
     46 H18        -4.2944   11.6697  -10.6529 H         1 <0>         0.1516
     47 H19        -4.4307    9.4121  -11.6144 H         1 <0>         0.1515
     48 H20        -4.3218    5.4103   -7.3468 H         1 <0>         0.4285
     49 H21        -3.9874    5.9859   -8.8895 H         1 <0>         0.4092
     50 N6         -4.5458    1.3938    1.6909 N.4       1 <0>        -0.3998
     51 H22        -5.4033    1.0486    1.2438 H         1 <0>         0.4274
@<TRIPOS>BOND
     1    1   31 1
     2    1   32 1
     3    1   33 1
     4    1   50 1
     5    2    3 1
     6    2   34 1
     7    2   35 1
     8    2   50 1
     9    3    4 1
    10    3   36 1
    11    3   37 1
    12    4    5 1
    13    4    7 1
    14    5    6 1
    15    5   38 1
    16    5   39 1
    17    6   40 1
    18    6   41 1
    19    6   50 1
    20    7   12 ar
    21    7    8 ar
    22    8    9 ar
    23    8   42 1
    24    9   10 ar
    25    9   43 1
    26   10   16 1
    27   10   11 ar
    28   11   12 ar
    29   11   13 1
    30   12   44 1
    31   13   14 1
    32   13   15 1
    33   15   16 2
    34   15   17 1
    35   17   28 1
    36   17   18 2
    37   18   19 1
    38   18   30 1
    39   19   24 ar
    40   19   20 ar
    41   20   21 ar
    42   20   26 1
    43   21   22 ar
    44   21   45 1
    45   22   23 ar
    46   22   46 1
    47   23   24 ar
    48   23   47 1
    49   24   25 1
    50   26   27 1
    51   26   28 am
    52   28   29 2
    53   30   48 1
    54   30   49 1
    55   50   51 1
@<TRIPOS>MOLECULE
ZINC03964325
   57    59     0     0     0
SMALL
USER_CHARGES

@<TRIPOS>ATOM
      1 C1          0.1489    2.0884    0.1150 C.3       1 <0>        -0.1876
      2 C2          0.1348    0.5603    0.1888 C.3       1 <0>        -0.0191
      3 N1         -1.2520    0.0881    0.2979 N.4       1 <0>        -0.3822
      4 C3         -1.9779    0.4111   -0.9377 C.3       1 <0>        -0.0142
      5 C4         -3.4549    0.0484   -0.7712 C.3       1 <0>        -0.1895
      6 C5         -1.2593   -1.3663    0.5041 C.3       1 <0>        -0.0265
      7 C6         -0.6131   -1.6936    1.8518 C.3       1 <0>         0.0952
      8 N2         -0.6203   -3.1440    2.0575 N.am      1 <0>        -0.7289
      9 C7         -0.0988   -3.6675    3.1846 C.2       1 <0>         0.6111
     10 O1          0.3779   -2.9358    4.0309 O.2       1 <0>        -0.5184
     11 C8         -0.1061   -5.1270    3.3915 C.2       1 <0>        -0.2420
     12 C9          0.9071   -6.0320    3.0089 C.2       1 <0>        -0.0577
     13 C10         0.4868   -7.2892    3.3960 C.2       1 <0>        -0.0075
     14 N3         -0.7476   -7.1595    3.9982 N.pl3     1 <0>        -0.4910
     15 H1         -1.2731   -7.8879    4.3645 H         1 <0>         0.4270
     16 C11        -1.1044   -5.8642    4.0022 C.2       1 <0>         0.1158
     17 C12        -2.3825   -5.3072    4.5743 C.3       1 <0>        -0.0999
     18 C13         1.1957   -8.4957    3.2079 C.2       1 <0>         0.0729
     19 C14         0.5100   -9.6674    2.9570 C.2       1 <0>        -0.1889
     20 C15         1.0648  -11.0377    2.8871 C.ar      1 <0>        -0.0736
     21 C16         2.3472  -11.5557    3.0375 C.ar      1 <0>        -0.1000
     22 C17         2.5553  -12.9162    2.9116 C.ar      1 <0>         0.0861
     23 C18         1.4888  -13.7593    2.6366 C.ar      1 <0>        -0.1139
     24 C19         0.2139  -13.2531    2.4856 C.ar      1 <0>        -0.1021
     25 C20        -0.0144  -11.8871    2.6092 C.ar      1 <0>         0.1282
     26 N4         -1.1765  -11.1301    2.5069 N.am      1 <0>        -0.6466
     27 C21        -0.9294   -9.8245    2.7079 C.2       1 <0>         0.5595
     28 O2         -1.7538   -8.9280    2.6842 O.2       1 <0>        -0.5156
     29 F1          3.7984  -13.4252    3.0561 F         1 <0>        -0.1318
     30 C22         2.1990   -5.6919    2.3116 C.3       1 <0>        -0.0931
     31 H2          1.1793    2.4435    0.1331 H         1 <0>         0.1076
     32 H3         -0.3308    2.4121   -0.8087 H         1 <0>         0.0811
     33 H4         -0.3916    2.4984    0.9682 H         1 <0>         0.0809
     34 H5          0.5888    0.1488   -0.7126 H         1 <0>         0.1317
     35 H6          0.6996    0.2334    1.0619 H         1 <0>         0.1337
     36 H7         -1.8867    1.4775   -1.1444 H         1 <0>         0.1351
     37 H8         -1.5554   -0.1571   -1.7664 H         1 <0>         0.1307
     38 H9         -3.5537   -1.0316   -0.6617 H         1 <0>         0.0802
     39 H10        -3.8523    0.5414    0.1160 H         1 <0>         0.0808
     40 H11        -4.0109    0.3769   -1.6492 H         1 <0>         0.1074
     41 H12        -2.2871   -1.7292    0.4963 H         1 <0>         0.1397
     42 H13        -0.6973   -1.8494   -0.2952 H         1 <0>         0.1376
     43 H14         0.4147   -1.3306    1.8596 H         1 <0>         0.0893
     44 H15        -1.1751   -1.2105    2.6511 H         1 <0>         0.0890
     45 H16        -1.0005   -3.7277    1.3824 H         1 <0>         0.4099
     46 H17        -3.1529   -5.3000    3.8032 H         1 <0>         0.0840
     47 H18        -2.7087   -5.9289    5.4080 H         1 <0>         0.0782
     48 H19        -2.2103   -4.2898    4.9254 H         1 <0>         0.0840
     49 H20         2.2744   -8.5020    3.2604 H         1 <0>         0.1589
     50 H21         3.1765  -10.8977    3.2512 H         1 <0>         0.1436
     51 H22         1.6578  -14.8215    2.5394 H         1 <0>         0.1485
     52 H23        -0.6084  -13.9196    2.2712 H         1 <0>         0.1415
     53 H24        -2.0541  -11.4980    2.3189 H         1 <0>         0.4217
     54 H25         2.9686   -5.4822    3.0545 H         1 <0>         0.0785
     55 H26         2.5107   -6.5337    1.6932 H         1 <0>         0.0726
     56 H27         2.0522   -4.8138    1.6827 H         1 <0>         0.0634
     57 H28        -1.7009    0.5410    1.0799 H         1 <0>         0.4247
@<TRIPOS>BOND
     1    1    2 1
     2    1   31 1
     3    1   32 1
     4    1   33 1
     5    2    3 1
     6    2   34 1
     7    2   35 1
     8    3    4 1
     9    3    6 1
    10    3   57 1
    11    4    5 1
    12    4   36 1
    13    4   37 1
    14    5   38 1
    15    5   39 1
    16    5   40 1
    17    6    7 1
    18    6   41 1
    19    6   42 1
    20    7    8 1
    21    7   43 1
    22    7   44 1
    23    8    9 am
    24    8   45 1
    25    9   10 2
    26    9   11 1
    27   11   16 2
    28   11   12 1
    29   12   13 2
    30   12   30 1
    31   13   14 1
    32   13   18 1
    33   14   15 1
    34   14   16 1
    35   16   17 1
    36   17   46 1
    37   17   47 1
    38   17   48 1
    39   18   19 2
    40   18   49 1
    41   19   27 1
    42   19   20 1
    43   20   25 ar
    44   20   21 ar
    45   21   22 ar
    46   21   50 1
    47   22   23 ar
    48   22   29 1
    49   23   24 ar
    50   23   51 1
    51   24   25 ar
    52   24   52 1
    53   25   26 1
    54   26   27 am
    55   26   53 1
    56   27   28 2
    57   30   54 1
    58   30   55 1
    59   30   56 1
@<TRIPOS>MOLECULE
ZINC03820040
   62    66     0     0     0
SMALL
USER_CHARGES
N-[4-[4-(4-methylpiperazin-1-yl)-6-[(5-methyl-2H-pyrazol-3-yl)amino]pyrimidin-2-yl]sulfanylphenyl]cyclopropanecarboxamide
@<TRIPOS>ATOM
      1 C1          1.8035   -7.6837    0.5070 C.3       1 <0>        -0.0779
      2 C2          2.3685   -6.3674    0.0389 C.2       1 <0>         0.0949
      3 C3          1.9325   -5.1020    0.4407 C.2       1 <0>        -0.2905
      4 C4          2.6904   -4.1743   -0.2066 C.2       1 <0>         0.3252
      5 N1          3.5799   -4.8447   -0.9836 N.pl3     1 <0>        -0.4853
      6 H1          4.2729   -4.4328   -1.5753 H         1 <0>         0.4473
      7 N2          3.3537   -6.2159   -0.8085 N.2       1 <0>        -0.2711
      8 N3          2.5778   -2.7905   -0.0888 N.pl3     1 <0>        -0.6296
      9 C5          1.3376   -2.2123    0.1391 C.ar      1 <0>         0.4706
     10 C6          0.1755   -2.9717    0.0343 C.ar      1 <0>        -0.2983
     11 C7         -1.0466   -2.3490    0.2714 C.ar      1 <0>         0.3791
     12 N4         -1.0643   -1.0564    0.5886 N.ar      1 <0>        -0.5664
     13 C8          0.0620   -0.3646    0.6795 C.ar      1 <0>         0.3511
     14 N5          1.2425   -0.9231    0.4557 N.ar      1 <0>        -0.5606
     15 S1         -0.0125    1.3444    1.1018 S.3       1 <0>         0.1303
     16 C9          1.7078    1.7032    1.2298 C.ar      1 <0>        -0.1638
     17 C10         2.3806    1.4637    2.4214 C.ar      1 <0>        -0.0284
     18 C11         3.7293    1.7409    2.5200 C.ar      1 <0>        -0.1315
     19 C12         4.4114    2.2681    1.4313 C.ar      1 <0>         0.1902
     20 C13         3.7379    2.5125    0.2417 C.ar      1 <0>        -0.1573
     21 C14         2.3903    2.2311    0.1410 C.ar      1 <0>        -0.0288
     22 N6          5.7793    2.5539    1.5333 N.am      1 <0>        -0.6744
     23 C15         6.5739    1.7808    2.2997 C.2       1 <0>         0.5466
     24 O1          6.1269    0.7811    2.8213 O.2       1 <0>        -0.5140
     25 C16         8.0178    2.1584    2.5086 C.3       1 <0>        -0.2022
     26 C17         9.0818    1.2604    1.8742 C.3       1 <0>        -0.1494
     27 C18         8.8679    1.2402    3.3890 C.3       1 <0>        -0.1425
     28 N7         -2.2296   -3.0657    0.1789 N.pl3     1 <0>        -0.4710
     29 C19        -2.3617   -3.6957   -1.1422 C.3       1 <0>         0.0277
     30 C20        -3.6379   -4.5399   -1.1765 C.3       1 <0>         0.0040
     31 C21        -4.6643   -3.0537    0.4349 C.3       1 <0>        -0.0004
     32 C22        -3.3881   -2.2095    0.4692 C.3       1 <0>         0.0347
     33 C23        -6.0501   -4.4431   -0.9842 C.3       1 <0>        -0.0407
     34 H2          2.3381   -8.0122    1.3982 H         1 <0>         0.0831
     35 H3          0.7460   -7.5623    0.7417 H         1 <0>         0.0784
     36 H4          1.9177   -8.4287   -0.2805 H         1 <0>         0.0774
     37 H5          1.1347   -4.8964    1.1389 H         1 <0>         0.1550
     38 H6          3.3667   -2.2314   -0.1662 H         1 <0>         0.4241
     39 H7          0.2211   -4.0192   -0.2246 H         1 <0>         0.1631
     40 H8          1.8494    1.0573    3.2693 H         1 <0>         0.1319
     41 H9          4.2533    1.5509    3.4451 H         1 <0>         0.1405
     42 H10         4.2686    2.9225   -0.6049 H         1 <0>         0.1339
     43 H11         1.8666    2.4209   -0.7843 H         1 <0>         0.1341
     44 H12         6.1543    3.3081    1.0523 H         1 <0>         0.4168
     45 H13         8.2224    3.2282    2.5520 H         1 <0>         0.1306
     46 H14         8.7374    0.3965    1.3057 H         1 <0>         0.0995
     47 H15         9.9866    1.7393    1.5000 H         1 <0>         0.1100
     48 H16         9.6320    1.7059    4.0114 H         1 <0>         0.1092
     49 H17         8.3827    0.3633    3.8175 H         1 <0>         0.1093
     50 H18        -2.4158   -2.9234   -1.9095 H         1 <0>         0.0737
     51 H19        -1.4982   -4.3342   -1.3286 H         1 <0>         0.1318
     52 H20        -3.5722   -5.3290   -0.4274 H         1 <0>         0.1439
     53 H21        -3.7533   -4.9852   -2.1646 H         1 <0>         0.1412
     54 H22        -4.6102   -3.8259    1.2022 H         1 <0>         0.1407
     55 H23        -5.5278   -2.4152    0.6217 H         1 <0>         0.1407
     56 H24        -3.2729   -1.7645    1.4575 H         1 <0>         0.1357
     57 H25        -3.4537   -1.4201   -0.2796 H         1 <0>         0.0793
     58 H26        -6.8948   -3.7714   -0.8313 H         1 <0>         0.1238
     59 H27        -6.1225   -4.8989   -1.9717 H         1 <0>         0.1230
     60 H28        -6.0632   -5.2226   -0.2224 H         1 <0>         0.1251
     61 N8         -4.7966   -3.6630   -0.9051 N.4       1 <0>        -0.4014
     62 H29        -4.8229   -2.9169   -1.6099 H         1 <0>         0.4281
@<TRIPOS>BOND
     1    1    2 1
     2    1   34 1
     3    1   35 1
     4    1   36 1
     5    2    7 2
     6    2    3 1
     7    3    4 2
     8    3   37 1
     9    4    5 1
    10    4    8 1
    11    5    6 1
    12    5    7 1
    13    8    9 1
    14    8   38 1
    15    9   14 ar
    16    9   10 ar
    17   10   11 ar
    18   10   39 1
    19   11   12 ar
    20   11   28 1
    21   12   13 ar
    22   13   14 ar
    23   13   15 1
    24   15   16 1
    25   16   21 ar
    26   16   17 ar
    27   17   18 ar
    28   17   40 1
    29   18   19 ar
    30   18   41 1
    31   19   20 ar
    32   19   22 1
    33   20   21 ar
    34   20   42 1
    35   21   43 1
    36   22   23 am
    37   22   44 1
    38   23   24 2
    39   23   25 1
    40   25   27 1
    41   25   26 1
    42   25   45 1
    43   26   27 1
    44   26   46 1
    45   26   47 1
    46   27   48 1
    47   27   49 1
    48   28   32 1
    49   28   29 1
    50   29   30 1
    51   29   50 1
    52   29   51 1
    53   30   52 1
    54   30   53 1
    55   30   61 1
    56   31   32 1
    57   31   54 1
    58   31   55 1
    59   31   61 1
    60   32   56 1
    61   32   57 1
    62   33   58 1
    63   33   59 1
    64   33   60 1
    65   33   61 1
    66   61   62 1
@<TRIPOS>MOLECULE
ZINC18825339
   59    62     0     0     0
SMALL
USER_CHARGES
5-[(Z)-(5-fluoro-2-oxo-indolin-3-ylidene)methyl]-N-[(2R)-2-hydroxy-3-morpholino-propyl]-2,4-dimethyl-1H-pyrrole-3-carboxamide
@<TRIPOS>ATOM
      1 C1          3.5607    0.7280    0.3667 C.3       1 <0>        -0.0956
      2 C2          2.0758    0.7165    0.1102 C.2       1 <0>        -0.0564
      3 C3          1.2591    1.8188   -0.0477 C.2       1 <0>        -0.0308
      4 N1         -0.0271    1.3691   -0.2640 N.pl3     1 <0>        -0.5068
      5 H1         -0.8436    2.0903   -0.4163 H         1 <0>         0.4494
      6 C4         -0.0354    0.0257   -0.2455 C.2       1 <0>         0.1277
      7 C5          1.2525   -0.4230   -0.0155 C.2       1 <0>        -0.2308
      8 C6          1.6847   -1.8291    0.0810 C.2       1 <0>         0.5980
      9 O1          2.0430   -2.4250   -0.9167 O.2       1 <0>        -0.5421
     10 N2          1.6827   -2.4542    1.2750 N.am      1 <0>        -0.7266
     11 C7          2.1121   -3.8516    1.3710 C.3       1 <0>         0.1299
     12 C8          2.0150   -4.3162    2.8255 C.3       1 <0>         0.1144
     13 H2          2.5334   -3.6206    3.5018 H         1 <0>         0.0568
     14 C9          2.5799   -5.7329    2.9471 C.3       1 <0>         0.0228
     15 N3          2.4867   -6.1790    4.3436 N.3       1 <0>        -0.5349
     16 C10         3.3671   -5.3829    5.2109 C.3       1 <0>         0.0083
     17 C11         3.1945   -5.8402    6.6618 C.3       1 <0>         0.0618
     18 O2          3.4694   -7.2408    6.7508 O.3       1 <0>        -0.3843
     19 C12         2.6296   -8.0463    5.9193 C.3       1 <0>         0.0614
     20 C13         2.7965   -7.6114    4.4609 C.3       1 <0>         0.0172
     21 O3          0.6463   -4.3123    3.2364 O.3       1 <0>        -0.5882
     22 C14        -1.2476   -0.8477   -0.4426 C.3       1 <0>        -0.0994
     23 C15         1.6686    3.1691    0.0027 C.2       1 <0>         0.0908
     24 C16         0.8216    4.1284    0.5209 C.2       1 <0>        -0.2125
     25 C17         1.0162    5.5955    0.5210 C.ar      1 <0>        -0.0684
     26 C18         2.0202    6.4240    0.0297 C.ar      1 <0>        -0.1043
     27 C19         1.9118    7.7937    0.1786 C.ar      1 <0>         0.0808
     28 C20         0.8031    8.3379    0.8097 C.ar      1 <0>        -0.1198
     29 C21        -0.2000    7.5233    1.2941 C.ar      1 <0>        -0.1061
     30 C22        -0.1080    6.1430    1.1533 C.ar      1 <0>         0.1250
     31 N4         -0.9593    5.1144    1.5420 N.am      1 <0>        -0.6604
     32 C23        -0.4649    3.9133    1.1971 C.2       1 <0>         0.5647
     33 O4         -0.9909    2.8351    1.4086 O.2       1 <0>        -0.5132
     34 F1          2.8866    8.6030   -0.2904 F         1 <0>        -0.1355
     35 H3          3.9167    1.7678    0.4131 H         1 <0>         0.0672
     36 H4          4.0776    0.1994   -0.4478 H         1 <0>         0.0746
     37 H5          3.7717    0.2252    1.3221 H         1 <0>         0.0710
     38 H6          1.3586   -1.9152    2.1775 H         1 <0>         0.4262
     39 H7          1.4633   -4.4786    0.7417 H         1 <0>         0.0750
     40 H8          3.1531   -3.9398    1.0266 H         1 <0>         0.0785
     41 H9          2.0023   -6.4143    2.3052 H         1 <0>         0.0900
     42 H10         3.6334   -5.7360    2.6307 H         1 <0>         0.0465
     43 H11         4.4130   -5.5254    4.9015 H         1 <0>         0.0459
     44 H12         3.1012   -4.3189    5.1257 H         1 <0>         0.0881
     45 H13         3.8925   -5.2859    7.3064 H         1 <0>         0.1001
     46 H14         2.1618   -5.6458    6.9871 H         1 <0>         0.0615
     47 H15         2.9156   -9.1033    6.0238 H         1 <0>         0.1009
     48 H16         1.5805   -7.9185    6.2243 H         1 <0>         0.0621
     49 H17         2.1104   -8.1883    3.8234 H         1 <0>         0.0898
     50 H18         3.8332   -7.7899    4.1393 H         1 <0>         0.0455
     51 H19         0.3780   -4.6185    4.2583 H         1 <0>         0.4136
     52 H20        -0.9523   -1.9052   -0.3757 H         1 <0>         0.0845
     53 H21        -1.6843   -0.6508   -1.4328 H         1 <0>         0.0777
     54 H22        -1.9909   -0.6245    0.3369 H         1 <0>         0.0809
     55 H23         2.6624    3.4568   -0.3709 H         1 <0>         0.1579
     56 H24         2.8828    5.9984   -0.4614 H         1 <0>         0.1409
     57 H25         0.7239    9.4091    0.9228 H         1 <0>         0.1443
     58 H26        -1.0583    7.9589    1.7840 H         1 <0>         0.1386
     59 H27        -1.9003    5.3463    2.0623 H         1 <0>         0.4455
@<TRIPOS>BOND
     1    1    2 1
     2    1   35 1
     3    1   36 1
     4    1   37 1
     5    2    7 1
     6    2    3 2
     7    3    4 1
     8    3   23 1
     9    4    5 1
    10    4    6 1
    11    6    7 2
    12    6   22 1
    13    7    8 1
    14    8    9 2
    15    8   10 am
    16   10   11 1
    17   10   38 1
    18   11   12 1
    19   11   39 1
    20   11   40 1
    21   12   13 1
    22   12   14 1
    23   12   21 1
    24   14   15 1
    25   14   41 1
    26   14   42 1
    27   15   20 1
    28   15   16 1
    29   16   17 1
    30   16   43 1
    31   16   44 1
    32   17   18 1
    33   17   45 1
    34   17   46 1
    35   18   19 1
    36   19   20 1
    37   19   47 1
    38   19   48 1
    39   20   49 1
    40   20   50 1
    41   21   51 1
    42   22   52 1
    43   22   53 1
    44   22   54 1
    45   23   24 2
    46   23   55 1
    47   24   32 1
    48   24   25 1
    49   25   30 ar
    50   25   26 ar
    51   26   27 ar
    52   26   56 1
    53   27   28 ar
    54   27   34 1
    55   28   29 ar
    56   28   57 1
    57   29   30 ar
    58   29   58 1
    59   30   31 1
    60   31   32 am
    61   31   59 1
    62   32   33 2
@<TRIPOS>MOLECULE
ZINC18825344
   59    62     0     0     0
SMALL
USER_CHARGES
5-[(Z)-(5-fluoro-2-oxo-indolin-3-ylidene)methyl]-N-[(2S)-2-hydroxy-3-morpholino-propyl]-2,4-dimethyl-1H-pyrrole-3-carboxamide
@<TRIPOS>ATOM
      1 C1          4.7056    0.6287    1.0117 C.3       1 <0>        -0.0968
      2 C2          3.2464    0.8378    0.6983 C.2       1 <0>        -0.0523
      3 C3          2.5980    2.0501    0.5678 C.2       1 <0>        -0.0327
      4 N1          1.2732    1.7961    0.2789 N.pl3     1 <0>        -0.5060
      5 H1          0.5720    2.6311    0.1339 H         1 <0>         0.4496
      6 C4          1.0783    0.4679    0.2258 C.2       1 <0>         0.1246
      7 C5          2.2801   -0.1676    0.4808 C.2       1 <0>        -0.2308
      8 C6          2.5088   -1.6234    0.5191 C.2       1 <0>         0.5976
      9 O1          2.8262   -2.2159   -0.4944 O.2       1 <0>        -0.5428
     10 N2          2.3662   -2.2977    1.6773 N.am      1 <0>        -0.7254
     11 C7          2.5935   -3.7444    1.7154 C.3       1 <0>         0.1298
     12 C8          2.3672   -4.2590    3.1384 C.3       1 <0>         0.1172
     13 H2          1.3599   -4.0040    3.4994 H         1 <0>         0.0560
     14 C9          2.6045   -5.7699    3.1781 C.3       1 <0>         0.0219
     15 N3          2.3382   -6.2720    4.5327 N.3       1 <0>        -0.5356
     16 C10         2.9762   -7.5793    4.7450 C.3       1 <0>         0.0168
     17 C11         2.7241   -8.0365    6.1842 C.3       1 <0>         0.0612
     18 O2          1.3152   -8.0759    6.4267 O.3       1 <0>        -0.3844
     19 C12         0.6618   -6.8191    6.2299 C.3       1 <0>         0.0617
     20 C13         0.8930   -6.3496    4.7911 C.3       1 <0>         0.0111
     21 O3          3.2765   -3.6103    4.0297 O.3       1 <0>        -0.5892
     22 C14        -0.2328   -0.2165   -0.0637 C.3       1 <0>        -0.0987
     23 C15         3.1876    3.3256    0.7056 C.2       1 <0>         0.0935
     24 C16         2.4515    4.3746    1.2192 C.2       1 <0>        -0.2157
     25 C17         2.8515    5.7966    1.3077 C.ar      1 <0>        -0.0669
     26 C18         3.9943    6.4912    0.9234 C.ar      1 <0>        -0.1048
     27 C19         4.0710    7.8545    1.1363 C.ar      1 <0>         0.0814
     28 C20         3.0098    8.5263    1.7247 C.ar      1 <0>        -0.1204
     29 C21         1.8704    7.8457    2.1029 C.ar      1 <0>        -0.1055
     30 C22         1.7753    6.4739    1.8965 C.ar      1 <0>         0.1237
     31 N4          0.7622    5.5637    2.1775 N.am      1 <0>        -0.6596
     32 C23         1.1039    4.3195    1.8021 C.2       1 <0>         0.5657
     33 O4          0.4171    3.3209    1.9242 O.2       1 <0>        -0.5153
     34 F1          5.1807    8.5334    0.7715 F         1 <0>        -0.1355
     35 H3          5.1994    1.6049    1.1269 H         1 <0>         0.0668
     36 H4          5.1808    0.0720    0.1906 H         1 <0>         0.0744
     37 H5          4.8016    0.0567    1.9464 H         1 <0>         0.0741
     38 H6          2.0791   -1.7617    2.5940 H         1 <0>         0.4273
     39 H7          1.8935   -4.2437    1.0293 H         1 <0>         0.0777
     40 H8          3.6268   -3.9615    1.4070 H         1 <0>         0.0736
     41 H9          1.9304   -6.2658    2.4641 H         1 <0>         0.0486
     42 H10         3.6486   -5.9844    2.9062 H         1 <0>         0.0884
     43 H11         2.5501   -8.3132    4.0451 H         1 <0>         0.0451
     44 H12         4.0587   -7.4917    4.5704 H         1 <0>         0.0900
     45 H13         3.1515   -9.0395    6.3305 H         1 <0>         0.1008
     46 H14         3.1986   -7.3305    6.8817 H         1 <0>         0.0620
     47 H15        -0.4170   -6.9344    6.4112 H         1 <0>         0.1000
     48 H16         1.0741   -6.0778    6.9303 H         1 <0>         0.0613
     49 H17         0.4415   -5.3564    4.6504 H         1 <0>         0.0873
     50 H18         0.4333   -7.0637    4.0920 H         1 <0>         0.0461
     51 H19         3.2627   -3.8533    5.1024 H         1 <0>         0.4141
     52 H20        -0.0899   -1.3070   -0.0417 H         1 <0>         0.0829
     53 H21        -0.5927    0.0862   -1.0581 H         1 <0>         0.0781
     54 H22        -0.9728    0.0718    0.6974 H         1 <0>         0.0803
     55 H23         4.2335    3.4835    0.4037 H         1 <0>         0.1584
     56 H24         4.8196    5.9664    0.4654 H         1 <0>         0.1411
     57 H25         3.0756    9.5918    1.8882 H         1 <0>         0.1443
     58 H26         1.0507    8.3797    2.5605 H         1 <0>         0.1385
     59 H27        -0.1701    5.9069    2.6497 H         1 <0>         0.4455
@<TRIPOS>BOND
     1    1    2 1
     2    1   35 1
     3    1   36 1
     4    1   37 1
     5    2    7 1
     6    2    3 2
     7    3    4 1
     8    3   23 1
     9    4    5 1
    10    4    6 1
    11    6    7 2
    12    6   22 1
    13    7    8 1
    14    8    9 2
    15    8   10 am
    16   10   11 1
    17   10   38 1
    18   11   12 1
    19   11   39 1
    20   11   40 1
    21   12   13 1
    22   12   14 1
    23   12   21 1
    24   14   15 1
    25   14   41 1
    26   14   42 1
    27   15   20 1
    28   15   16 1
    29   16   17 1
    30   16   43 1
    31   16   44 1
    32   17   18 1
    33   17   45 1
    34   17   46 1
    35   18   19 1
    36   19   20 1
    37   19   47 1
    38   19   48 1
    39   20   49 1
    40   20   50 1
    41   21   51 1
    42   22   52 1
    43   22   53 1
    44   22   54 1
    45   23   24 2
    46   23   55 1
    47   24   32 1
    48   24   25 1
    49   25   30 ar
    50   25   26 ar
    51   26   27 ar
    52   26   56 1
    53   27   28 ar
    54   27   34 1
    55   28   29 ar
    56   28   57 1
    57   29   30 ar
    58   29   58 1
    59   30   31 1
    60   31   32 am
    61   31   59 1
    62   32   33 2
@<TRIPOS>MOLECULE
ZINC00602803
   57    59     0     0     0
SMALL
USER_CHARGES

@<TRIPOS>ATOM
      1 C1         -1.3402   -4.8618    1.2145 C.3       1 <0>        -0.1534
      2 C2         -0.8181   -3.6495    0.4408 C.3       1 <0>         0.0511
      3 O1         -0.7742   -2.5142    1.3074 O.3       1 <0>        -0.3148
      4 C3         -0.3304   -1.3470    0.7727 C.ar      1 <0>         0.1525
      5 C4          0.0498   -1.3049   -0.5488 C.ar      1 <0>        -0.1831
      6 C5          0.5092   -0.1023   -1.1071 C.ar      1 <0>         0.1876
      7 C6          0.5748    1.0570   -0.2965 C.ar      1 <0>        -0.1304
      8 C7          0.1883    0.9932    1.0499 C.ar      1 <0>        -0.0592
      9 C8         -0.2650   -0.1967    1.5740 C.ar      1 <0>         0.1185
     10 N1         -0.6575   -0.2608    2.9161 N.am      1 <0>        -0.6449
     11 C9         -0.1566    0.6173    3.8075 C.2       1 <0>         0.5328
     12 O2          0.7152    1.3957    3.4703 O.2       1 <0>        -0.5071
     13 C10        -0.6641    0.6344    5.1877 C.2       1 <0>        -0.1271
     14 C11        -0.1697    1.5011    6.0673 C.2       1 <0>        -0.1492
     15 C12        -0.6897    1.5186    7.4817 C.3       1 <0>         0.0302
     16 C13         1.3312    2.5206    8.3617 C.3       1 <0>        -0.0486
     17 C14        -0.0528    1.1357    9.7861 C.3       1 <0>        -0.0433
     18 C15         1.0386    2.2666   -0.8642 C.ar      1 <0>         0.2844
     19 C16         1.4144    2.2536   -2.2161 C.ar      1 <0>        -0.1029
     20 C17         1.3165    1.0573   -2.9447 C.ar      1 <0>         0.2010
     21 N2          0.8834   -0.0478   -2.3940 N.ar      1 <0>        -0.4743
     22 C18         1.8922    3.4476   -2.8459 C.1       1 <0>         0.2469
     23 N3          2.2712    4.3948   -3.3456 N.1       1 <0>        -0.3851
     24 N4          1.1194    3.4219   -0.1130 N.pl3     1 <0>        -0.6979
     25 C19         2.3677    3.9814    0.1773 C.ar      1 <0>         0.1846
     26 C20         3.4715    3.1592    0.3659 C.ar      1 <0>        -0.1231
     27 C21         4.7048    3.7137    0.6463 C.ar      1 <0>        -0.1069
     28 C22         4.8398    5.0877    0.7520 C.ar      1 <0>         0.0844
     29 C23         3.7394    5.9099    0.5700 C.ar      1 <0>        -0.0407
     30 C24         2.5044    5.3592    0.2831 C.ar      1 <0>        -0.1222
     31 Cl1         3.9119    7.6322    0.7020 Cl        1 <0>        -0.0373
     32 F1          6.0462    5.6274    1.0324 F         1 <0>        -0.1244
     33 H1         -2.3423   -4.6506    1.5877 H         1 <0>         0.0676
     34 H2         -1.3737   -5.7279    0.5535 H         1 <0>         0.0859
     35 H3         -0.6765   -5.0706    2.0536 H         1 <0>         0.0665
     36 H4         -1.4818   -3.4407   -0.3983 H         1 <0>         0.0727
     37 H5          0.1840   -3.8607    0.0676 H         1 <0>         0.0719
     38 H6         -0.0049   -2.1965   -1.1558 H         1 <0>         0.1557
     39 H7          0.2375    1.8756    1.6707 H         1 <0>         0.1646
     40 H8         -1.2900   -0.9373    3.2047 H         1 <0>         0.4221
     41 H9         -1.4381   -0.0567    5.4870 H         1 <0>         0.1454
     42 H10         0.6043    2.1922    5.7680 H         1 <0>         0.1533
     43 H11        -1.1915    2.4672    7.6726 H         1 <0>         0.1468
     44 H12        -1.3959    0.6999    7.6193 H         1 <0>         0.1366
     45 H13         0.7789    3.4221    8.6269 H         1 <0>         0.1257
     46 H14         2.1523    2.3777    9.0642 H         1 <0>         0.1250
     47 H15         1.7302    2.6227    7.3524 H         1 <0>         0.1232
     48 H16        -0.6601    0.2309    9.8124 H         1 <0>         0.1226
     49 H17         0.7976    1.0222   10.4584 H         1 <0>         0.1252
     50 H18        -0.6553    1.9870   10.1029 H         1 <0>         0.1250
     51 H19         1.6056    1.0492   -3.9853 H         1 <0>         0.1765
     52 H20         0.3102    3.8456    0.2136 H         1 <0>         0.4201
     53 H21         3.3660    2.0871    0.2888 H         1 <0>         0.1375
     54 H22         5.5639    3.0747    0.7881 H         1 <0>         0.1500
     55 H23         1.6466    6.0000    0.1416 H         1 <0>         0.1457
     56 N5          0.4465    1.3376    8.4096 N.4       1 <0>        -0.3970
     57 H24         0.9816    0.5092    8.1241 H         1 <0>         0.4334
@<TRIPOS>BOND
     1    1    2 1
     2    1   33 1
     3    1   34 1
     4    1   35 1
     5    2    3 1
     6    2   36 1
     7    2   37 1
     8    3    4 1
     9    4    9 ar
    10    4    5 ar
    11    5    6 ar
    12    5   38 1
    13    6   21 ar
    14    6    7 ar
    15    7    8 ar
    16    7   18 ar
    17    8    9 ar
    18    8   39 1
    19    9   10 1
    20   10   11 am
    21   10   40 1
    22   11   12 2
    23   11   13 1
    24   13   14 2
    25   13   41 1
    26   14   15 1
    27   14   42 1
    28   15   43 1
    29   15   44 1
    30   15   56 1
    31   16   45 1
    32   16   46 1
    33   16   47 1
    34   16   56 1
    35   17   48 1
    36   17   49 1
    37   17   50 1
    38   17   56 1
    39   18   19 ar
    40   18   24 1
    41   19   20 ar
    42   19   22 1
    43   20   21 ar
    44   20   51 1
    45   22   23 3
    46   24   25 1
    47   24   52 1
    48   25   30 ar
    49   25   26 ar
    50   26   27 ar
    51   26   53 1
    52   27   28 ar
    53   27   54 1
    54   28   29 ar
    55   28   32 1
    56   29   30 ar
    57   29   31 1
    58   30   55 1
    59   56   57 1
