@<TRIPOS>MOLECULE
ZINC49739406
   38    40     0     0     0
SMALL
USER_CHARGES

@<TRIPOS>ATOM
      1 C1         -0.0167    1.3821    0.0096 C.ar      1 <0>        -0.1484
      2 C2          1.1794    2.0817    0.0020 C.ar      1 <0>        -0.0198
      3 C3          2.3718    1.3504   -0.0155 C.ar      1 <0>        -0.1764
      4 C4          2.3071   -0.0556   -0.0335 C.ar      1 <0>         0.1071
      5 N1          1.1364   -0.6735   -0.0182 N.ar      1 <0>        -0.4368
      6 C5          0.0021   -0.0041    0.0020 C.ar      1 <0>         0.1293
      7 C6          3.5689   -0.8418   -0.0816 C.2       1 <0>         0.4012
      8 O1          3.5656   -2.0358   -0.3012 O.2       1 <0>        -0.3675
      9 C7          4.8411   -0.0929    0.1525 C.2       1 <0>         0.1080
     10 C8          4.9154    1.3032   -0.4418 C.3       1 <0>        -0.0039
     11 C9          3.6697    2.0464   -0.0107 C.2       1 <0>         0.4104
     12 O2          3.7397    3.2059    0.3364 O.2       1 <0>        -0.3963
     13 Cl1         4.9760    1.2008   -2.2409 Cl        1 <0>        -0.0949
     14 N2          5.8194   -0.6026    0.8210 N.2       1 <0>        -0.4016
     15 C10         5.7022   -1.9532    1.3761 C.3       1 <0>         0.0070
     16 C11         6.7187   -2.8736    0.6975 C.3       1 <0>         0.0728
     17 N3          6.6012   -4.2279    1.2542 N.3       1 <0>        -0.5348
     18 C12         7.0050   -4.2535    2.6675 C.3       1 <0>         0.0118
     19 C13         6.8109   -5.6670    3.2227 C.3       1 <0>         0.0633
     20 O3          7.5587   -6.5923    2.4291 O.3       1 <0>        -0.3843
     21 C14         7.1907   -6.5942    1.0470 C.3       1 <0>         0.0633
     22 C15         7.3888   -5.1901    0.4699 C.3       1 <0>         0.0196
     23 H1         -0.9571    1.9131    0.0259 H         1 <0>         0.1567
     24 H2          1.1908    3.1616    0.0089 H         1 <0>         0.1589
     25 H3         -0.9320   -0.5460    0.0132 H         1 <0>         0.1762
     26 H4          5.8012    1.8176   -0.0692 H         1 <0>         0.1628
     27 H5          5.8977   -1.9237    2.4481 H         1 <0>         0.1036
     28 H6          4.6953   -2.3320    1.2007 H         1 <0>         0.0864
     29 H7          6.5233   -2.9031   -0.3744 H         1 <0>         0.0825
     30 H8          7.7256   -2.4948    0.8729 H         1 <0>         0.0503
     31 H9          8.0543   -3.9705    2.7514 H         1 <0>         0.0476
     32 H10         6.3919   -3.5526    3.2340 H         1 <0>         0.0862
     33 H11         7.1625   -5.7046    4.2537 H         1 <0>         0.1001
     34 H12         5.7535   -5.9295    3.1883 H         1 <0>         0.0612
     35 H13         7.8171   -7.3024    0.5046 H         1 <0>         0.1010
     36 H14         6.1444   -6.8836    0.9494 H         1 <0>         0.0620
     37 H15         7.0558   -5.1729   -0.5679 H         1 <0>         0.0891
     38 H16         8.4442   -4.9221    0.5186 H         1 <0>         0.0464
@<TRIPOS>BOND
     1    1    6 ar
     2    1    2 ar
     3    1   23 1
     4    2    3 ar
     5    2   24 1
     6    3   11 1
     7    3    4 ar
     8    4    5 ar
     9    4    7 1
    10    5    6 ar
    11    6   25 1
    12    7    8 2
    13    7    9 1
    14    9   14 2
    15    9   10 1
    16   10   11 1
    17   10   13 1
    18   10   26 1
    19   11   12 2
    20   14   15 1
    21   15   16 1
    22   15   27 1
    23   15   28 1
    24   16   17 1
    25   16   29 1
    26   16   30 1
    27   17   22 1
    28   17   18 1
    29   18   19 1
    30   18   31 1
    31   18   32 1
    32   19   20 1
    33   19   33 1
    34   19   34 1
    35   20   21 1
    36   21   22 1
    37   21   35 1
    38   21   36 1
    39   22   37 1
    40   22   38 1
@<TRIPOS>MOLECULE
ZINC49739406
   38    40     0     0     0
SMALL
USER_CHARGES

@<TRIPOS>ATOM
      1 C1         -0.0858    1.3073    0.4490 C.ar      1 <0>        -0.1492
      2 C2          1.0934    2.0345    0.4803 C.ar      1 <0>        -0.0190
      3 C3          2.3002    1.3417    0.3368 C.ar      1 <0>        -0.1779
      4 C4          2.2660   -0.0542    0.1588 C.ar      1 <0>         0.1150
      5 N1          1.1107   -0.7004    0.1437 N.ar      1 <0>        -0.4356
      6 C5         -0.0366   -0.0679    0.2808 C.ar      1 <0>         0.1318
      7 C6          3.5422   -0.7961   -0.0239 C.2       1 <0>         0.4530
      8 O1          3.5571   -1.9568   -0.3795 O.2       1 <0>        -0.3603
      9 C7          4.8055   -0.0457    0.2504 C.2       1 <0>         0.1106
     10 C8          4.8263    1.4107   -0.1809 C.3       1 <0>        -0.0694
     11 C9          3.5816    2.0666    0.3764 C.2       1 <0>         0.4132
     12 O2          3.6389    3.1801    0.8523 O.2       1 <0>        -0.3996
     13 Cl1         4.8210    1.5167   -1.9808 Cl        1 <0>        -0.0940
     14 N2          5.8194   -0.6026    0.8210 N.2       1 <0>        -0.4016
     15 C10         7.0871    0.1232    0.9324 C.3       1 <0>         0.0149
     16 C11         7.3861    0.4042    2.4064 C.3       1 <0>         0.0601
     17 N3          8.6572    1.1319    2.5182 N.3       1 <0>        -0.5367
     18 C12         9.7853    0.2901    2.0937 C.3       1 <0>         0.0107
     19 C13        11.0795    1.1046    2.1690 C.3       1 <0>         0.0632
     20 O3         11.2463    1.6031    3.4991 O.3       1 <0>        -0.3837
     21 C14        10.1660    2.4275    3.9447 C.3       1 <0>         0.0634
     22 C15         8.8626    1.6264    3.8873 C.3       1 <0>         0.0180
     23 H1         -1.0364    1.8079    0.5594 H         1 <0>         0.1568
     24 H2          1.0811    3.1064    0.6114 H         1 <0>         0.1581
     25 H3         -0.9574   -0.6320    0.2621 H         1 <0>         0.1773
     26 H4          5.7139    1.9023    0.2173 H         1 <0>         0.1565
     27 H5          7.8896   -0.4798    0.5075 H         1 <0>         0.1156
     28 H6          7.0149    1.0660    0.3902 H         1 <0>         0.0728
     29 H7          6.5836    1.0072    2.8313 H         1 <0>         0.0799
     30 H8          7.4583   -0.5386    2.9486 H         1 <0>         0.0557
     31 H9          9.8612   -0.5756    2.7516 H         1 <0>         0.0492
     32 H10         9.6246   -0.0439    1.0686 H         1 <0>         0.0888
     33 H11        11.9256    0.4682    1.9100 H         1 <0>         0.1010
     34 H12        11.0247    1.9403    1.4713 H         1 <0>         0.0617
     35 H13        10.3515    2.7478    4.9699 H         1 <0>         0.1013
     36 H14        10.0847    3.3016    3.2986 H         1 <0>         0.0620
     37 H15         8.0284    2.2678    4.1716 H         1 <0>         0.0887
     38 H16         8.9238    0.7821    4.5739 H         1 <0>         0.0477
@<TRIPOS>BOND
     1    1    6 ar
     2    1    2 ar
     3    1   23 1
     4    2    3 ar
     5    2   24 1
     6    3   11 1
     7    3    4 ar
     8    4    5 ar
     9    4    7 1
    10    5    6 ar
    11    6   25 1
    12    7    8 2
    13    7    9 1
    14    9   14 2
    15    9   10 1
    16   10   11 1
    17   10   13 1
    18   10   26 1
    19   11   12 2
    20   14   15 1
    21   15   16 1
    22   15   27 1
    23   15   28 1
    24   16   17 1
    25   16   29 1
    26   16   30 1
    27   17   22 1
    28   17   18 1
    29   18   19 1
    30   18   31 1
    31   18   32 1
    32   19   20 1
    33   19   33 1
    34   19   34 1
    35   20   21 1
    36   21   22 1
    37   21   35 1
    38   21   36 1
    39   22   37 1
    40   22   38 1
@<TRIPOS>MOLECULE
ZINC01615742
   34    35     0     0     0
SMALL
USER_CHARGES

@<TRIPOS>ATOM
      1 C1          0.1022    1.4445    0.3855 C.ar      1 <0>        -0.0944
      2 C2          1.3035    2.1259    0.3705 C.ar      1 <0>        -0.0943
      3 C3          2.4998    1.4371    0.2398 C.ar      1 <0>        -0.0621
      4 C4          2.4903    0.0530    0.1238 C.ar      1 <0>        -0.1192
      5 C5          1.2677   -0.6405    0.1395 C.ar      1 <0>        -0.1193
      6 C6          0.0773    0.0629    0.2705 C.ar      1 <0>        -0.0620
      7 C7          1.2649   -2.1159    0.0159 C.2       1 <0>         0.4253
      8 O1          0.2138   -2.7267    0.0278 O.2       1 <0>        -0.3993
      9 C8          2.5375   -2.8406   -0.1219 C.2       1 <0>        -0.0968
     10 C9          3.7223   -2.1684   -0.1372 C.2       1 <0>        -0.0987
     11 C10         3.7556   -0.7029   -0.0162 C.2       1 <0>         0.4256
     12 O2          4.8191   -0.1141   -0.0308 O.2       1 <0>        -0.3995
     13 S1          5.2306   -3.0640   -0.3035 S.3       1 <0>        -0.0607
     14 C11         5.8822   -2.5313   -1.9104 C.3       1 <0>        -0.1134
     15 C12         7.1446   -3.3309   -2.2393 C.3       1 <0>         0.0958
     16 O3          7.5961   -2.9899   -3.5515 O.3       1 <0>        -0.5685
     17 S2          2.5294   -4.5965   -0.2681 S.3       1 <0>        -0.0580
     18 C13         1.8639   -5.1660    1.3204 C.3       1 <0>        -0.1145
     19 C14         1.9232   -6.6937    1.3798 C.3       1 <0>         0.0961
     20 O4          1.3000   -7.1481    2.5829 O.3       1 <0>        -0.5685
     21 H1         -0.8233    1.9908    0.4919 H         1 <0>         0.1426
     22 H2          1.3112    3.2021    0.4607 H         1 <0>         0.1426
     23 H3          3.4361    1.9751    0.2280 H         1 <0>         0.1467
     24 H4         -0.8650   -0.4647    0.2831 H         1 <0>         0.1467
     25 H5          5.1318   -2.7035   -2.6820 H         1 <0>         0.0960
     26 H6          6.1250   -1.4695   -1.8702 H         1 <0>         0.0985
     27 H7          7.9234   -3.0947   -1.5142 H         1 <0>         0.0595
     28 H8          6.9206   -4.3968   -2.1977 H         1 <0>         0.0611
     29 H9          8.3490   -3.5142   -3.8569 H         1 <0>         0.3886
     30 H10         2.4567   -4.7475    2.1337 H         1 <0>         0.0950
     31 H11         0.8290   -4.8385    1.4192 H         1 <0>         0.1002
     32 H12         1.4001   -7.1114    0.5196 H         1 <0>         0.0588
     33 H13         2.9638   -7.0178    1.3648 H         1 <0>         0.0615
     34 H14         1.3677   -8.1023    2.7247 H         1 <0>         0.3886
@<TRIPOS>BOND
     1    1    6 ar
     2    1    2 ar
     3    1   21 1
     4    2    3 ar
     5    2   22 1
     6    3    4 ar
     7    3   23 1
     8    4   11 1
     9    4    5 ar
    10    5    6 ar
    11    5    7 1
    12    6   24 1
    13    7    8 2
    14    7    9 1
    15    9   10 2
    16    9   17 1
    17   10   11 1
    18   10   13 1
    19   11   12 2
    20   13   14 1
    21   14   15 1
    22   14   25 1
    23   14   26 1
    24   15   16 1
    25   15   27 1
    26   15   28 1
    27   16   29 1
    28   17   18 1
    29   18   19 1
    30   18   30 1
    31   18   31 1
    32   19   20 1
    33   19   32 1
    34   19   33 1
    35   20   34 1
