@<TRIPOS>MOLECULE
ZINC03784127
   60    62     0     0     0
SMALL
USER_CHARGES

@<TRIPOS>ATOM
      1 C1          0.7509    0.7586   -1.0380 C.3       1 <0>         0.0892
      2 N1          0.5869   -0.6809   -0.8211 N.am      1 <0>        -0.6261
      3 C2          1.7646   -1.5488   -0.7433 C.3       1 <0>         0.0758
      4 C3         -0.6474   -1.2068   -0.6931 C.2       1 <0>         0.5160
      5 O1         -1.6223   -0.4884   -0.7574 O.2       1 <0>        -0.5274
      6 C4         -0.8160   -2.6877   -0.4699 C.3       1 <0>        -0.1200
      7 C5         -2.3053   -3.0204   -0.3595 C.3       1 <0>        -0.0838
      8 S1         -2.5083   -4.8029   -0.0909 S.3       1 <0>        -0.1857
      9 C6         -4.2919   -5.0071    0.1696 C.3       1 <0>         0.0133
     10 H1         -4.6198   -4.3464    0.9721 H         1 <0>         0.1078
     11 C7         -4.5842   -6.4370    0.5452 C.ar      1 <0>        -0.0678
     12 C8         -4.2478   -7.4613   -0.3228 C.ar      1 <0>        -0.0703
     13 C9         -4.5123   -8.7771    0.0134 C.ar      1 <0>        -0.1220
     14 C10        -5.1140   -9.0773    1.2177 C.ar      1 <0>        -0.0967
     15 C11        -5.4561   -8.0486    2.0994 C.ar      1 <0>        -0.0738
     16 C12        -5.1810   -6.7220    1.7551 C.ar      1 <0>        -0.0739
     17 C13        -6.0995   -8.3610    3.3876 C.2       1 <0>        -0.0304
     18 C14        -6.3586   -9.6377    3.7171 C.2       1 <0>        -0.1480
     19 C15        -7.0014   -9.9498    5.0040 C.ar      1 <0>         0.2071
     20 C16        -7.2608  -11.2925    5.3366 C.ar      1 <0>        -0.1580
     21 C17        -7.8550  -11.5933    6.5245 C.ar      1 <0>        -0.0548
     22 C18        -8.1937  -10.5338    7.3909 C.ar      1 <0>        -0.1124
     23 C19        -8.8074  -10.7759    8.6296 C.ar      1 <0>        -0.0772
     24 C20        -9.1211   -9.7294    9.4427 C.ar      1 <0>        -0.1175
     25 C21        -8.8409   -8.4178    9.0609 C.ar      1 <0>        -0.0151
     26 C22        -8.2465   -8.1465    7.8658 C.ar      1 <0>        -0.0841
     27 C23        -7.9070   -9.2016    6.9999 C.ar      1 <0>         0.1484
     28 N2         -7.3179   -8.9628    5.8255 N.ar      1 <0>        -0.4738
     29 Cl1        -9.2567   -7.1106   10.1250 Cl        1 <0>        -0.0619
     30 S2         -5.1777   -4.5898   -1.3574 S.3       1 <0>        -0.2600
     31 C24        -6.8978   -4.3762   -0.8224 C.3       1 <0>        -0.0425
     32 C25        -7.7432   -3.8952   -2.0035 C.3       1 <0>        -0.1675
     33 C26        -9.1722   -3.7177   -1.5591 C.2       1 <0>         0.4988
     34 O2         -9.4855   -3.9541   -0.4047 O.co2     1 <0>        -0.6949
     35 O3        -10.0151   -3.3379   -2.3539 O.co2     1 <0>        -0.6977
     36 H2          1.8119    0.9957   -1.1166 H         1 <0>         0.0742
     37 H3          0.2448    1.0472   -1.9593 H         1 <0>         0.0616
     38 H4          0.3179    1.3041   -0.1994 H         1 <0>         0.0610
     39 H5          2.0989   -1.6157    0.2921 H         1 <0>         0.0582
     40 H6          1.5075   -2.5436   -1.1071 H         1 <0>         0.0749
     41 H7          2.5637   -1.1327   -1.3569 H         1 <0>         0.0731
     42 H8         -0.3830   -3.2331   -1.3084 H         1 <0>         0.1030
     43 H9         -0.3100   -2.9762    0.4514 H         1 <0>         0.1016
     44 H10        -2.7383   -2.4750    0.4790 H         1 <0>         0.0903
     45 H11        -2.8113   -2.7318   -1.2808 H         1 <0>         0.1034
     46 H12        -3.7768   -7.2322   -1.2673 H         1 <0>         0.1327
     47 H13        -4.2473   -9.5711   -0.6691 H         1 <0>         0.1274
     48 H14        -5.3204  -10.1048    1.4784 H         1 <0>         0.1266
     49 H15        -5.4389   -5.9221    2.4333 H         1 <0>         0.1274
     50 H16        -6.3628   -7.5638    4.0670 H         1 <0>         0.1359
     51 H17        -6.0953  -10.4348    3.0376 H         1 <0>         0.1348
     52 H18        -6.9897  -12.0822    4.6514 H         1 <0>         0.1421
     53 H19        -8.0619  -12.6180    6.7960 H         1 <0>         0.1424
     54 H20        -9.0302  -11.7872    8.9363 H         1 <0>         0.1391
     55 H21        -9.5933   -9.9179   10.3956 H         1 <0>         0.1375
     56 H22        -8.0367   -7.1252    7.5841 H         1 <0>         0.1475
     57 H23        -7.2868   -5.3281   -0.4610 H         1 <0>         0.0814
     58 H24        -6.9402   -3.6385   -0.0210 H         1 <0>         0.0783
     59 H25        -7.3543   -2.9433   -2.3649 H         1 <0>         0.0662
     60 H26        -7.7009   -4.6328   -2.8048 H         1 <0>         0.0659
@<TRIPOS>BOND
     1    1    2 1
     2    1   36 1
     3    1   37 1
     4    1   38 1
     5    2    3 1
     6    2    4 am
     7    3   39 1
     8    3   40 1
     9    3   41 1
    10    4    5 2
    11    4    6 1
    12    6    7 1
    13    6   42 1
    14    6   43 1
    15    7    8 1
    16    7   44 1
    17    7   45 1
    18    8    9 1
    19    9   10 1
    20    9   11 1
    21    9   30 1
    22   11   16 ar
    23   11   12 ar
    24   12   13 ar
    25   12   46 1
    26   13   14 ar
    27   13   47 1
    28   14   15 ar
    29   14   48 1
    30   15   16 ar
    31   15   17 1
    32   16   49 1
    33   17   18 2
    34   17   50 1
    35   18   19 1
    36   18   51 1
    37   19   28 ar
    38   19   20 ar
    39   20   21 ar
    40   20   52 1
    41   21   22 ar
    42   21   53 1
    43   22   27 ar
    44   22   23 ar
    45   23   24 ar
    46   23   54 1
    47   24   25 ar
    48   24   55 1
    49   25   26 ar
    50   25   29 1
    51   26   27 ar
    52   26   56 1
    53   27   28 ar
    54   30   31 1
    55   31   32 1
    56   31   57 1
    57   31   58 1
    58   32   33 1
    59   32   59 1
    60   32   60 1
    61   33   34 2
    62   33   35 1
@<TRIPOS>MOLECULE
ZINC03784397
   60    62     0     0     0
SMALL
USER_CHARGES

@<TRIPOS>ATOM
      1 C1          1.4566   -4.9960   -5.1642 C.3       1 <0>         0.0897
      2 N1          1.0509   -4.6152   -3.8090 N.am      1 <0>        -0.6251
      3 C2          2.0019   -3.9406   -2.9220 C.3       1 <0>         0.0745
      4 C3         -0.1973   -4.8855   -3.3782 C.2       1 <0>         0.5181
      5 O1         -0.9846   -5.4439   -4.1125 O.2       1 <0>        -0.5352
      6 C4         -0.6146   -4.4937   -1.9842 C.3       1 <0>        -0.1215
      7 C5         -2.0678   -4.9116   -1.7504 C.3       1 <0>        -0.0793
      8 S1         -2.5701   -4.4401   -0.0724 S.3       1 <0>        -0.2274
      9 C6         -4.3340   -4.8587   -0.0084 C.3       1 <0>         0.0119
     10 H1         -4.8205   -4.5233   -0.9244 H         1 <0>         0.1077
     11 C7         -4.4915   -6.3513    0.1265 C.ar      1 <0>        -0.0655
     12 C8         -3.9564   -7.0057    1.2225 C.ar      1 <0>        -0.0693
     13 C9         -4.0960   -8.3759    1.3549 C.ar      1 <0>        -0.1215
     14 C10        -4.7704   -9.1000    0.3940 C.ar      1 <0>        -0.0985
     15 C11        -5.3138   -8.4462   -0.7151 C.ar      1 <0>        -0.0753
     16 C12        -5.1733   -7.0610   -0.8394 C.ar      1 <0>        -0.0776
     17 C13        -6.0353   -9.2127   -1.7461 C.2       1 <0>        -0.0319
     18 C14        -6.1721  -10.5436   -1.6212 C.2       1 <0>        -0.1474
     19 C15        -6.8929  -11.3093   -2.6513 C.ar      1 <0>         0.2061
     20 C16        -7.0323  -12.7019   -2.5027 C.ar      1 <0>        -0.1584
     21 C17        -7.6972  -13.4207   -3.4492 C.ar      1 <0>        -0.0542
     22 C18        -8.2296  -12.7343   -4.5598 C.ar      1 <0>        -0.1122
     23 C19        -8.9259  -13.4158   -5.5699 C.ar      1 <0>        -0.0770
     24 C20        -9.4278  -12.7222   -6.6290 C.ar      1 <0>        -0.1170
     25 C21        -9.2588  -11.3412   -6.7245 C.ar      1 <0>        -0.0147
     26 C22        -8.5881  -10.6481   -5.7627 C.ar      1 <0>        -0.0851
     27 C23        -8.0565  -11.3302   -4.6535 C.ar      1 <0>         0.1480
     28 N2         -7.4003  -10.6732   -3.6939 N.ar      1 <0>        -0.4745
     29 Cl1        -9.9127  -10.4926   -8.0905 Cl        1 <0>        -0.0609
     30 S2         -5.0988   -4.0386    1.4175 S.3       1 <0>        -0.2031
     31 C24        -4.9800   -2.2719    1.0235 C.3       1 <0>        -0.0511
     32 C25        -5.7074   -1.4599    2.0970 C.3       1 <0>        -0.1689
     33 C26        -5.6087    0.0078    1.7696 C.2       1 <0>         0.4998
     34 O2         -5.0119    0.3707    0.7703 O.co2     1 <0>        -0.6935
     35 O3         -6.1257    0.8323    2.5041 O.co2     1 <0>        -0.6972
     36 H2          2.4918   -4.6983   -5.3307 H         1 <0>         0.0745
     37 H3          1.3659   -6.0760   -5.2807 H         1 <0>         0.0598
     38 H4          0.8139   -4.4971   -5.8896 H         1 <0>         0.0608
     39 H5          1.9190   -2.8618   -3.0536 H         1 <0>         0.0608
     40 H6          1.7789   -4.1986   -1.8867 H         1 <0>         0.0758
     41 H7          3.0152   -4.2597   -3.1658 H         1 <0>         0.0730
     42 H8          0.0281   -4.9926   -1.2588 H         1 <0>         0.1020
     43 H9         -0.5239   -3.4138   -1.8677 H         1 <0>         0.1054
     44 H10        -2.7105   -4.4127   -2.4758 H         1 <0>         0.0873
     45 H11        -2.1585   -5.9916   -1.8669 H         1 <0>         0.0874
     46 H12        -3.4270   -6.4440    1.9779 H         1 <0>         0.1341
     47 H13        -3.6755   -8.8797    2.2127 H         1 <0>         0.1276
     48 H14        -4.8780  -10.1695    0.4984 H         1 <0>         0.1260
     49 H15        -5.5941   -6.5485   -1.6918 H         1 <0>         0.1264
     50 H16        -6.4543   -8.7047   -2.6022 H         1 <0>         0.1351
     51 H17        -5.7532  -11.0515   -0.7651 H         1 <0>         0.1348
     52 H18        -6.6129  -13.1992   -1.6406 H         1 <0>         0.1421
     53 H19        -7.8135  -14.4900   -3.3518 H         1 <0>         0.1427
     54 H20        -9.0628  -14.4853   -5.5078 H         1 <0>         0.1395
     55 H21        -9.9633  -13.2485   -7.4052 H         1 <0>         0.1380
     56 H22        -8.4649   -9.5788   -5.8514 H         1 <0>         0.1472
     57 H23        -3.9313   -1.9763    0.9926 H         1 <0>         0.0930
     58 H24        -5.4391   -2.0845    0.0528 H         1 <0>         0.0808
     59 H25        -6.7561   -1.7556    2.1279 H         1 <0>         0.0662
     60 H26        -5.2483   -1.6474    3.0677 H         1 <0>         0.0670
@<TRIPOS>BOND
     1    1    2 1
     2    1   36 1
     3    1   37 1
     4    1   38 1
     5    2    3 1
     6    2    4 am
     7    3   39 1
     8    3   40 1
     9    3   41 1
    10    4    5 2
    11    4    6 1
    12    6    7 1
    13    6   42 1
    14    6   43 1
    15    7    8 1
    16    7   44 1
    17    7   45 1
    18    8    9 1
    19    9   10 1
    20    9   11 1
    21    9   30 1
    22   11   16 ar
    23   11   12 ar
    24   12   13 ar
    25   12   46 1
    26   13   14 ar
    27   13   47 1
    28   14   15 ar
    29   14   48 1
    30   15   16 ar
    31   15   17 1
    32   16   49 1
    33   17   18 2
    34   17   50 1
    35   18   19 1
    36   18   51 1
    37   19   28 ar
    38   19   20 ar
    39   20   21 ar
    40   20   52 1
    41   21   22 ar
    42   21   53 1
    43   22   27 ar
    44   22   23 ar
    45   23   24 ar
    46   23   54 1
    47   24   25 ar
    48   24   55 1
    49   25   26 ar
    50   25   29 1
    51   26   27 ar
    52   26   56 1
    53   27   28 ar
    54   30   31 1
    55   31   32 1
    56   31   57 1
    57   31   58 1
    58   32   33 1
    59   32   59 1
    60   32   60 1
    61   33   34 2
    62   33   35 1
@<TRIPOS>MOLECULE
ZINC00602632
   43    45     0     0     0
SMALL
USER_CHARGES
4-[6-amino-5-bromo-2-(4-cyanophenyl)amino-pyrimidin-4-yl]oxy-3,5-dimethyl-benzonitrile
@<TRIPOS>ATOM
      1 C1          2.3134    5.1441   -2.3257 C.3       1 <0>        -0.1194
      2 C2          2.1650    6.0648   -1.1419 C.ar      1 <0>        -0.0679
      3 C3          2.0573    7.4240   -1.3372 C.ar      1 <0>        -0.0684
      4 C4          1.9246    8.2774   -0.2384 C.ar      1 <0>        -0.0083
      5 C5          1.8968    7.7467    1.0542 C.ar      1 <0>        -0.0683
      6 C6          2.0002    6.3859    1.2402 C.ar      1 <0>        -0.0685
      7 C7          2.1316    5.5409    0.1448 C.ar      1 <0>         0.1103
      8 O1          2.2333    4.2001    0.3326 O.3       1 <0>        -0.2193
      9 C8          1.0899    3.4720    0.3545 C.ar      1 <0>         0.4551
     10 C9          1.1354    2.0957    0.5433 C.ar      1 <0>        -0.3292
     11 C10        -0.0649    1.3883    0.5582 C.ar      1 <0>         0.5268
     12 N1         -1.2073    2.0489    0.3872 N.ar      1 <0>        -0.6132
     13 C11        -1.2114    3.3619    0.2149 C.ar      1 <0>         0.6407
     14 N2         -0.0892    4.0653    0.1953 N.ar      1 <0>        -0.6238
     15 N3         -2.4211    4.0165    0.0458 N.pl3     1 <0>        -0.6282
     16 C12        -3.6023    3.2835   -0.0520 C.ar      1 <0>         0.1955
     17 C13        -3.5968    2.0375   -0.6717 C.ar      1 <0>        -0.1163
     18 C14        -4.7608    1.3086   -0.7658 C.ar      1 <0>        -0.0484
     19 C15        -5.9514    1.8260   -0.2470 C.ar      1 <0>        -0.0482
     20 C16        -5.9544    3.0804    0.3702 C.ar      1 <0>        -0.0454
     21 C17        -4.7857    3.8017    0.4651 C.ar      1 <0>        -0.1478
     22 C18        -7.1653    1.0730   -0.3480 C.1       1 <0>         0.2530
     23 N4         -8.1282    0.4756   -0.4280 N.1       1 <0>        -0.4174
     24 N5         -0.0686    0.0142    0.7430 N.pl3     1 <0>        -0.8164
     25 Br1         2.7871    1.2043    0.7739 Br        1 <0>        -0.0126
     26 C19         1.9704    5.8126    2.6336 C.3       1 <0>        -0.1138
     27 C20         1.8169    9.6915   -0.4365 C.1       1 <0>         0.2500
     28 N6          1.7314   10.8133   -0.5936 N.1       1 <0>        -0.4050
     29 H1          1.3270    4.8363   -2.6725 H         1 <0>         0.0752
     30 H2          2.8345    5.6656   -3.1285 H         1 <0>         0.0777
     31 H3          2.8861    4.2643   -2.0321 H         1 <0>         0.0754
     32 H4          2.0796    7.8301   -2.3377 H         1 <0>         0.1414
     33 H5          1.7940    8.4027    1.9060 H         1 <0>         0.1415
     34 H6         -2.4456    4.9849   -0.0044 H         1 <0>         0.4302
     35 H7         -2.6774    1.6403   -1.0759 H         1 <0>         0.1454
     36 H8         -4.7549    0.3397   -1.2429 H         1 <0>         0.1357
     37 H9         -6.8724    3.4832    0.7717 H         1 <0>         0.1377
     38 H10        -4.7872    4.7708    0.9417 H         1 <0>         0.1376
     39 H11         0.7683   -0.4613    0.8630 H         1 <0>         0.4184
     40 H12        -0.9081   -0.4717    0.7522 H         1 <0>         0.4158
     41 H13         2.9857    5.7595    3.0264 H         1 <0>         0.0828
     42 H14         1.3649    6.4515    3.2765 H         1 <0>         0.0752
     43 H15         1.5388    4.8120    2.6055 H         1 <0>         0.0644
@<TRIPOS>BOND
     1    1    2 1
     2    1   29 1
     3    1   30 1
     4    1   31 1
     5    2    7 ar
     6    2    3 ar
     7    3    4 ar
     8    3   32 1
     9    4    5 ar
    10    4   27 1
    11    5    6 ar
    12    5   33 1
    13    6    7 ar
    14    6   26 1
    15    7    8 1
    16    8    9 1
    17    9   14 ar
    18    9   10 ar
    19   10   11 ar
    20   10   25 1
    21   11   12 ar
    22   11   24 1
    23   12   13 ar
    24   13   14 ar
    25   13   15 1
    26   15   16 1
    27   15   34 1
    28   16   21 ar
    29   16   17 ar
    30   17   18 ar
    31   17   35 1
    32   18   19 ar
    33   18   36 1
    34   19   20 ar
    35   19   22 1
    36   20   21 ar
    37   20   37 1
    38   21   38 1
    39   22   23 3
    40   24   39 1
    41   24   40 1
    42   26   41 1
    43   26   42 1
    44   26   43 1
    45   27   28 3
@<TRIPOS>MOLECULE
ZINC04095814
   88    87     0     0     0
SMALL
USER_CHARGES

@<TRIPOS>ATOM
      1 C1         -1.5959    3.2466    1.0720 C.3       1 <0>        -0.1548
      2 C2         -1.3844    1.7761    0.7063 C.3       1 <0>        -0.1247
      3 C3         -2.6902    1.0061    0.9139 C.3       1 <0>        -0.1232
      4 C4         -2.4787   -0.4645    0.5482 C.3       1 <0>        -0.1133
      5 C5         -3.7844   -1.2345    0.7558 C.3       1 <0>        -0.1034
      6 C6         -3.5761   -2.6829    0.3955 C.2       1 <0>        -0.1616
      7 C7         -3.9025   -3.6232    1.2473 C.2       1 <0>        -0.1480
      8 C8         -4.6230   -3.2679    2.5223 C.3       1 <0>        -0.0847
      9 C9         -5.8647   -4.1123    2.6496 C.2       1 <0>        -0.1392
     10 C10        -6.0743   -4.8269    3.7551 C.2       1 <0>        -0.1294
     11 C11        -5.1735   -4.6840    4.9013 C.2       1 <0>        -0.1299
     12 C12        -5.3337   -5.4685    5.9869 C.2       1 <0>        -0.1053
     13 C13        -4.4329   -5.3256    7.1331 C.2       1 <0>        -0.1283
     14 C14        -4.5911   -6.1008    8.2058 C.2       1 <0>        -0.1167
     15 C15        -3.6644   -5.9537    9.3850 C.3       1 <0>        -0.0696
     16 H1         -2.9352   -5.1703    9.1786 H         1 <0>         0.0958
     17 C16        -2.9360   -7.2769    9.6293 C.3       1 <0>         0.1369
     18 H2         -3.6606   -8.0472    9.8934 H         1 <0>         0.1057
     19 C17        -1.9351   -7.1043   10.7736 C.3       1 <0>        -0.1558
     20 C18        -1.3027   -8.4572   11.1063 C.3       1 <0>        -0.0845
     21 C19        -0.3018   -8.2847   12.2506 C.3       1 <0>        -0.1837
     22 C20         0.3211   -9.6172   12.5783 C.2       1 <0>         0.4890
     23 O1         -0.0052  -10.6126   11.9544 O.co2     1 <0>        -0.7007
     24 O2          1.1514   -9.6999   13.4673 O.co2     1 <0>        -0.7111
     25 O3         -2.2405   -7.6639    8.4425 O.3       1 <0>        -0.5449
     26 S1         -4.6260   -5.5119   10.8584 S.3       1 <0>        -0.2005
     27 C21        -5.3081   -3.8781   10.4635 C.3       1 <0>        -0.1041
     28 C22        -6.0464   -3.3251   11.6841 C.3       1 <0>         0.1491
     29 H3         -5.3519   -3.2366   12.5195 H         1 <0>         0.1244
     30 C23        -6.6131   -1.9678   11.3560 C.2       1 <0>         0.5014
     31 O4         -7.8093   -1.7783   11.4207 O.2       1 <0>        -0.5509
     32 N1         -5.7907   -0.9644   10.9908 N.am      1 <0>        -0.6926
     33 C24        -6.3416    0.3550   10.6719 C.3       1 <0>         0.0520
     34 C25        -5.2209    1.2900   10.2966 C.2       1 <0>         0.4907
     35 O5         -4.0688    0.8911   10.2956 O.co2     1 <0>        -0.6882
     36 O6         -5.4663    2.4453    9.9939 O.co2     1 <0>        -0.6897
     37 N2         -7.1359   -4.2340   12.0490 N.am      1 <0>        -0.7002
     38 C26        -7.5943   -4.2620   13.3161 C.2       1 <0>         0.5211
     39 O7         -7.1049   -3.5348   14.1543 O.2       1 <0>        -0.5238
     40 C27        -8.7150   -5.1970   13.6914 C.3       1 <0>        -0.1502
     41 C28        -9.0415   -5.0313   15.1770 C.3       1 <0>        -0.1120
     42 C29       -10.1793   -5.9806   15.5581 C.3       1 <0>        -0.0493
     43 H4         -9.9092   -7.0002   15.2835 H         1 <0>         0.1356
     44 C30       -10.4183   -5.9071   17.0442 C.2       1 <0>         0.4927
     45 O8        -11.4363   -5.3910   17.4731 O.co2     1 <0>        -0.6790
     46 O9         -9.5938   -6.3637   17.8176 O.co2     1 <0>        -0.6328
     47 N3        -11.4028   -5.5893   14.8454 N.4       1 <0>        -0.6138
     48 H5         -0.6657    3.7952    0.9242 H         1 <0>         0.0520
     49 H6         -2.3730    3.6710    0.4364 H         1 <0>         0.0517
     50 H7         -1.8997    3.3212    2.1162 H         1 <0>         0.0570
     51 H8         -1.0807    1.7014   -0.3378 H         1 <0>         0.0576
     52 H9         -0.6073    1.3517    1.3420 H         1 <0>         0.0617
     53 H10        -2.9939    1.0807    1.9581 H         1 <0>         0.0648
     54 H11        -3.4672    1.4304    0.2782 H         1 <0>         0.0599
     55 H12        -2.1749   -0.5391   -0.4960 H         1 <0>         0.0590
     56 H13        -1.7016   -0.8889    1.1839 H         1 <0>         0.0631
     57 H14        -4.0882   -1.1598    1.7999 H         1 <0>         0.0782
     58 H15        -4.5615   -0.8101    0.1201 H         1 <0>         0.0672
     59 H16        -3.1578   -2.9457   -0.5648 H         1 <0>         0.1070
     60 H17        -3.6551   -4.6530    1.0358 H         1 <0>         0.1086
     61 H18        -3.9682   -3.4539    3.3736 H         1 <0>         0.0838
     62 H19        -4.9009   -2.2141    2.5011 H         1 <0>         0.0865
     63 H20        -6.5848   -4.1384    1.8451 H         1 <0>         0.1114
     64 H21        -6.9082   -5.5113    3.8058 H         1 <0>         0.1129
     65 H22        -4.3812   -3.9505    4.8772 H         1 <0>         0.1194
     66 H23        -6.1260   -6.2020    6.0110 H         1 <0>         0.1128
     67 H24        -3.6405   -4.5921    7.1090 H         1 <0>         0.1133
     68 H25        -5.3835   -6.8343    8.2299 H         1 <0>         0.1209
     69 H26        -1.1565   -6.4034   10.4727 H         1 <0>         0.0614
     70 H27        -2.4513   -6.7186   11.6527 H         1 <0>         0.0801
     71 H28        -2.0813   -9.1581   11.4072 H         1 <0>         0.0564
     72 H29        -0.7865   -8.8430   10.2272 H         1 <0>         0.0632
     73 H30         0.4768   -7.5837   11.9497 H         1 <0>         0.0538
     74 H31        -0.8180   -7.8989   13.1297 H         1 <0>         0.0557
     75 H32        -1.5782   -7.0237    8.1482 H         1 <0>         0.3715
     76 H33        -4.4975   -3.2018   10.1920 H         1 <0>         0.1062
     77 H34        -6.0026   -3.9666    9.6281 H         1 <0>         0.0927
     78 H35        -4.8340   -1.1160   10.9392 H         1 <0>         0.4087
     79 H36        -7.0361    0.2665    9.8365 H         1 <0>         0.0647
     80 H37        -6.8676    0.7490   11.5415 H         1 <0>         0.0656
     81 H38        -7.5274   -4.8156   11.3786 H         1 <0>         0.4043
     82 H39        -9.5982   -4.9626   13.0971 H         1 <0>         0.0830
     83 H40        -8.4100   -6.2255   13.4989 H         1 <0>         0.1071
     84 H41        -8.1583   -5.2657   15.7714 H         1 <0>         0.1195
     85 H42        -9.3465   -4.0028   15.3695 H         1 <0>         0.0896
     86 H43       -11.6529   -4.6454   15.0995 H         1 <0>         0.4323
     87 H44       -11.2427   -5.6385   13.8504 H         1 <0>         0.4121
     88 H45       -12.1532   -6.2153   15.0967 H         1 <0>         0.4291
@<TRIPOS>BOND
     1    1    2 1
     2    1   48 1
     3    1   49 1
     4    1   50 1
     5    2    3 1
     6    2   51 1
     7    2   52 1
     8    3    4 1
     9    3   53 1
    10    3   54 1
    11    4    5 1
    12    4   55 1
    13    4   56 1
    14    5    6 1
    15    5   57 1
    16    5   58 1
    17    6    7 2
    18    6   59 1
    19    7    8 1
    20    7   60 1
    21    8    9 1
    22    8   61 1
    23    8   62 1
    24    9   10 2
    25    9   63 1
    26   10   11 1
    27   10   64 1
    28   11   12 2
    29   11   65 1
    30   12   13 1
    31   12   66 1
    32   13   14 2
    33   13   67 1
    34   14   15 1
    35   14   68 1
    36   15   16 1
    37   15   17 1
    38   15   26 1
    39   17   18 1
    40   17   19 1
    41   17   25 1
    42   19   20 1
    43   19   69 1
    44   19   70 1
    45   20   21 1
    46   20   71 1
    47   20   72 1
    48   21   22 1
    49   21   73 1
    50   21   74 1
    51   22   23 2
    52   22   24 1
    53   25   75 1
    54   26   27 1
    55   27   28 1
    56   27   76 1
    57   27   77 1
    58   28   29 1
    59   28   30 1
    60   28   37 1
    61   30   31 2
    62   30   32 am
    63   32   33 1
    64   32   78 1
    65   33   34 1
    66   33   79 1
    67   33   80 1
    68   34   35 2
    69   34   36 1
    70   37   38 am
    71   37   81 1
    72   38   39 2
    73   38   40 1
    74   40   41 1
    75   40   82 1
    76   40   83 1
    77   41   42 1
    78   41   84 1
    79   41   85 1
    80   42   43 1
    81   42   44 1
    82   42   47 1
    83   44   45 2
    84   44   46 1
    85   47   86 1
    86   47   87 1
    87   47   88 1
