@<TRIPOS>MOLECULE
ZINC00602632
   43    45     0     0     0
SMALL
USER_CHARGES
4-[6-amino-5-bromo-2-(4-cyanophenyl)amino-pyrimidin-4-yl]oxy-3,5-dimethyl-benzonitrile
@<TRIPOS>ATOM
      1 C1          2.3134    5.1441   -2.3257 C.3       1 <0>        -0.1194
      2 C2          2.1650    6.0648   -1.1419 C.ar      1 <0>        -0.0679
      3 C3          2.0573    7.4240   -1.3372 C.ar      1 <0>        -0.0684
      4 C4          1.9246    8.2774   -0.2384 C.ar      1 <0>        -0.0083
      5 C5          1.8968    7.7467    1.0542 C.ar      1 <0>        -0.0683
      6 C6          2.0002    6.3859    1.2402 C.ar      1 <0>        -0.0685
      7 C7          2.1316    5.5409    0.1448 C.ar      1 <0>         0.1103
      8 O1          2.2333    4.2001    0.3326 O.3       1 <0>        -0.2193
      9 C8          1.0899    3.4720    0.3545 C.ar      1 <0>         0.4551
     10 C9          1.1354    2.0957    0.5433 C.ar      1 <0>        -0.3292
     11 C10        -0.0649    1.3883    0.5582 C.ar      1 <0>         0.5268
     12 N1         -1.2073    2.0489    0.3872 N.ar      1 <0>        -0.6132
     13 C11        -1.2114    3.3619    0.2149 C.ar      1 <0>         0.6407
     14 N2         -0.0892    4.0653    0.1953 N.ar      1 <0>        -0.6238
     15 N3         -2.4211    4.0165    0.0458 N.pl3     1 <0>        -0.6282
     16 C12        -3.6023    3.2835   -0.0520 C.ar      1 <0>         0.1955
     17 C13        -3.5968    2.0375   -0.6717 C.ar      1 <0>        -0.1163
     18 C14        -4.7608    1.3086   -0.7658 C.ar      1 <0>        -0.0484
     19 C15        -5.9514    1.8260   -0.2470 C.ar      1 <0>        -0.0482
     20 C16        -5.9544    3.0804    0.3702 C.ar      1 <0>        -0.0454
     21 C17        -4.7857    3.8017    0.4651 C.ar      1 <0>        -0.1478
     22 C18        -7.1653    1.0730   -0.3480 C.1       1 <0>         0.2530
     23 N4         -8.1282    0.4756   -0.4280 N.1       1 <0>        -0.4174
     24 N5         -0.0686    0.0142    0.7430 N.pl3     1 <0>        -0.8164
     25 Br1         2.7871    1.2043    0.7739 Br        1 <0>        -0.0126
     26 C19         1.9704    5.8126    2.6336 C.3       1 <0>        -0.1138
     27 C20         1.8169    9.6915   -0.4365 C.1       1 <0>         0.2500
     28 N6          1.7314   10.8133   -0.5936 N.1       1 <0>        -0.4050
     29 H1          1.3270    4.8363   -2.6725 H         1 <0>         0.0752
     30 H2          2.8345    5.6656   -3.1285 H         1 <0>         0.0777
     31 H3          2.8861    4.2643   -2.0321 H         1 <0>         0.0754
     32 H4          2.0796    7.8301   -2.3377 H         1 <0>         0.1414
     33 H5          1.7940    8.4027    1.9060 H         1 <0>         0.1415
     34 H6         -2.4456    4.9849   -0.0044 H         1 <0>         0.4302
     35 H7         -2.6774    1.6403   -1.0759 H         1 <0>         0.1454
     36 H8         -4.7549    0.3397   -1.2429 H         1 <0>         0.1357
     37 H9         -6.8724    3.4832    0.7717 H         1 <0>         0.1377
     38 H10        -4.7872    4.7708    0.9417 H         1 <0>         0.1376
     39 H11         0.7683   -0.4613    0.8630 H         1 <0>         0.4184
     40 H12        -0.9081   -0.4717    0.7522 H         1 <0>         0.4158
     41 H13         2.9857    5.7595    3.0264 H         1 <0>         0.0828
     42 H14         1.3649    6.4515    3.2765 H         1 <0>         0.0752
     43 H15         1.5388    4.8120    2.6055 H         1 <0>         0.0644
@<TRIPOS>BOND
     1    1    2 1
     2    1   29 1
     3    1   30 1
     4    1   31 1
     5    2    7 ar
     6    2    3 ar
     7    3    4 ar
     8    3   32 1
     9    4    5 ar
    10    4   27 1
    11    5    6 ar
    12    5   33 1
    13    6    7 ar
    14    6   26 1
    15    7    8 1
    16    8    9 1
    17    9   14 ar
    18    9   10 ar
    19   10   11 ar
    20   10   25 1
    21   11   12 ar
    22   11   24 1
    23   12   13 ar
    24   13   14 ar
    25   13   15 1
    26   15   16 1
    27   15   34 1
    28   16   21 ar
    29   16   17 ar
    30   17   18 ar
    31   17   35 1
    32   18   19 ar
    33   18   36 1
    34   19   20 ar
    35   19   22 1
    36   20   21 ar
    37   20   37 1
    38   21   38 1
    39   22   23 3
    40   24   39 1
    41   24   40 1
    42   26   41 1
    43   26   42 1
    44   26   43 1
    45   27   28 3
