@<TRIPOS>MOLECULE
ZINC38140992
   67    67     0     0     0
SMALL
USER_CHARGES

@<TRIPOS>ATOM
      1 C1         -0.0187    1.5258    0.0104 C.3       1 <0>        -0.1543
      2 C2          0.0021   -0.0041    0.0020 C.3       1 <0>        -0.1261
      3 C3          0.7182   -0.4975   -1.2568 C.3       1 <0>        -0.1213
      4 C4          0.7390   -2.0273   -1.2652 C.3       1 <0>        -0.1211
      5 C5          1.4551   -2.5207   -2.5240 C.3       1 <0>        -0.1208
      6 C6          1.4758   -4.0506   -2.5324 C.3       1 <0>        -0.1205
      7 C7          2.1920   -4.5440   -3.7912 C.3       1 <0>        -0.1208
      8 C8          2.2127   -6.0738   -3.7996 C.3       1 <0>        -0.1205
      9 C9          2.9289   -6.5673   -5.0584 C.3       1 <0>        -0.1209
     10 C10         2.9496   -8.0971   -5.0668 C.3       1 <0>        -0.1203
     11 C11         3.6658   -8.5905   -6.3257 C.3       1 <0>        -0.1211
     12 C12         3.6865  -10.1203   -6.3341 C.3       1 <0>        -0.1190
     13 C13         4.4026  -10.6138   -7.5929 C.3       1 <0>        -0.1175
     14 C14         4.4234  -12.1436   -7.6013 C.3       1 <0>        -0.1312
     15 C15         5.1395  -12.6370   -8.8601 C.3       1 <0>         0.1167
     16 N1          5.1594  -14.1019   -8.8681 N.am      1 <0>        -0.7331
     17 C16         5.7424  -14.7623   -9.8881 C.2       1 <0>         0.5152
     18 O1          6.2506  -14.1439  -10.7993 O.2       1 <0>        -0.5378
     19 C17         5.7628  -16.2691   -9.8964 C.3       1 <0>        -0.1061
     20 C18         6.5028  -16.7760   -8.6569 C.3       1 <0>        -0.1099
     21 C19         6.5236  -18.3058   -8.6653 C.3       1 <0>        -0.1184
     22 C20         7.2397  -18.7992   -9.9241 C.3       1 <0>        -0.1233
     23 C21         6.4997  -18.2924  -11.1636 C.3       1 <0>        -0.1206
     24 C22         6.4790  -16.7626  -11.1552 C.3       1 <0>        -0.1000
     25 H1          1.0039    1.9031    0.0027 H         1 <0>         0.0533
     26 H2         -0.5459    1.8868   -0.8726 H         1 <0>         0.0533
     27 H3         -0.5289    1.8773    0.9072 H         1 <0>         0.0535
     28 H4          0.5293   -0.3651    0.8851 H         1 <0>         0.0602
     29 H5         -1.0205   -0.3814    0.0098 H         1 <0>         0.0602
     30 H6          0.1910   -0.1364   -2.1398 H         1 <0>         0.0606
     31 H7          1.7408   -0.1202   -1.2645 H         1 <0>         0.0606
     32 H8          1.2661   -2.3884   -0.3821 H         1 <0>         0.0605
     33 H9         -0.2836   -2.4046   -1.2575 H         1 <0>         0.0604
     34 H10         0.9279   -2.1597   -3.4071 H         1 <0>         0.0604
     35 H11         2.4777   -2.1435   -2.5317 H         1 <0>         0.0604
     36 H12         2.0030   -4.4117   -1.6494 H         1 <0>         0.0603
     37 H13         0.4533   -4.4279   -2.5247 H         1 <0>         0.0603
     38 H14         1.6648   -4.1829   -4.6743 H         1 <0>         0.0604
     39 H15         3.2146   -4.1667   -3.7990 H         1 <0>         0.0604
     40 H16         2.7399   -6.4349   -2.9166 H         1 <0>         0.0603
     41 H17         1.1901   -6.4511   -3.7919 H         1 <0>         0.0603
     42 H18         2.4017   -6.2062   -5.9415 H         1 <0>         0.0606
     43 H19         3.9515   -6.1900   -5.0662 H         1 <0>         0.0606
     44 H20         3.4768   -8.4582   -4.1838 H         1 <0>         0.0604
     45 H21         1.9270   -8.4744   -5.0591 H         1 <0>         0.0604
     46 H22         3.1386   -8.2294   -7.2087 H         1 <0>         0.0615
     47 H23         4.6884   -8.2132   -6.3334 H         1 <0>         0.0615
     48 H24         4.2137  -10.4814   -5.4510 H         1 <0>         0.0617
     49 H25         2.6639  -10.4976   -6.3263 H         1 <0>         0.0617
     50 H26         3.8755  -10.2527   -8.4759 H         1 <0>         0.0655
     51 H27         5.4252  -10.2365   -7.6006 H         1 <0>         0.0655
     52 H28         4.9506  -12.5047   -6.7182 H         1 <0>         0.0689
     53 H29         3.4008  -12.5209   -7.5935 H         1 <0>         0.0689
     54 H30         4.6123  -12.2759   -9.7431 H         1 <0>         0.0669
     55 H31         6.1621  -12.2597   -8.8678 H         1 <0>         0.0669
     56 H32         4.7530  -14.5964   -8.1394 H         1 <0>         0.4001
     57 H33         4.7402  -16.6464   -9.8887 H         1 <0>         0.0968
     58 H34         7.5254  -16.3987   -8.6646 H         1 <0>         0.0683
     59 H35         5.9926  -16.4245   -7.7601 H         1 <0>         0.0653
     60 H36         7.0508  -18.6669   -7.7822 H         1 <0>         0.0663
     61 H37         5.5010  -18.6831   -8.6576 H         1 <0>         0.0646
     62 H38         8.2623  -18.4219   -9.9318 H         1 <0>         0.0631
     63 H39         7.2545  -19.8891   -9.9301 H         1 <0>         0.0637
     64 H40         7.0099  -18.6439  -12.0604 H         1 <0>         0.0665
     65 H41         5.4771  -18.6697  -11.1559 H         1 <0>         0.0626
     66 H42         5.9518  -16.4015  -12.0383 H         1 <0>         0.0692
     67 H43         7.5016  -16.3853  -11.1630 H         1 <0>         0.0698
@<TRIPOS>BOND
     1    1    2 1
     2    1   25 1
     3    1   26 1
     4    1   27 1
     5    2    3 1
     6    2   28 1
     7    2   29 1
     8    3    4 1
     9    3   30 1
    10    3   31 1
    11    4    5 1
    12    4   32 1
    13    4   33 1
    14    5    6 1
    15    5   34 1
    16    5   35 1
    17    6    7 1
    18    6   36 1
    19    6   37 1
    20    7    8 1
    21    7   38 1
    22    7   39 1
    23    8    9 1
    24    8   40 1
    25    8   41 1
    26    9   10 1
    27    9   42 1
    28    9   43 1
    29   10   11 1
    30   10   44 1
    31   10   45 1
    32   11   12 1
    33   11   46 1
    34   11   47 1
    35   12   13 1
    36   12   48 1
    37   12   49 1
    38   13   14 1
    39   13   50 1
    40   13   51 1
    41   14   15 1
    42   14   52 1
    43   14   53 1
    44   15   16 1
    45   15   54 1
    46   15   55 1
    47   16   17 am
    48   16   56 1
    49   17   18 2
    50   17   19 1
    51   19   24 1
    52   19   20 1
    53   19   57 1
    54   20   21 1
    55   20   58 1
    56   20   59 1
    57   21   22 1
    58   21   60 1
    59   21   61 1
    60   22   23 1
    61   22   62 1
    62   22   63 1
    63   23   24 1
    64   23   64 1
    65   23   65 1
    66   24   66 1
    67   24   67 1
