@<TRIPOS>MOLECULE
ZINC15115178
   44    47     0     0     0
SMALL
USER_CHARGES
(6aR,11aR)-2-(3-methylbut-2-enyl)-6a,11a-dihydro-6H-chromeno[4,3-b]benzofuran-3,9-diol
@<TRIPOS>ATOM
      1 C1         -7.1794    4.5429    3.8351 C.3       1 <0>        -0.1187
      2 C2         -5.9568    5.3807    3.5621 C.2       1 <0>        -0.1207
      3 C3         -4.7622    4.8643    3.7112 C.2       1 <0>        -0.1628
      4 C4         -4.6091    3.4004    4.0347 C.3       1 <0>        -0.0423
      5 C5         -3.6973    2.7551    3.0231 C.ar      1 <0>        -0.1295
      6 C6         -2.3743    2.5250    3.3378 C.ar      1 <0>        -0.0436
      7 C7         -1.5214    1.9320    2.4161 C.ar      1 <0>        -0.1718
      8 C8         -2.0154    1.5780    1.1712 C.ar      1 <0>         0.1551
      9 C9         -3.3456    1.8032    0.8512 C.ar      1 <0>        -0.1732
     10 C10        -4.1909    2.3936    1.7777 C.ar      1 <0>         0.1596
     11 O1         -5.4953    2.6164    1.4684 O.3       1 <0>        -0.4855
     12 O2         -1.1938    1.0155    0.2437 O.3       1 <0>        -0.3100
     13 C11         0.1891    1.3916    0.3113 C.3       1 <0>         0.0753
     14 C12         0.7300    1.0285    1.6940 C.3       1 <0>        -0.1068
     15 H1          0.7824   -0.0519    1.8287 H         1 <0>         0.1161
     16 C13        -0.0954    1.6966    2.8082 C.3       1 <0>         0.1373
     17 H2         -0.0511    1.0926    3.7145 H         1 <0>         0.1040
     18 O3          0.5815    2.9489    3.0216 O.3       1 <0>        -0.2874
     19 C14         1.8826    2.8027    2.6917 C.ar      1 <0>         0.1294
     20 C15         2.0786    1.6762    1.8836 C.ar      1 <0>        -0.1897
     21 C16         3.3195    1.3158    1.4048 C.ar      1 <0>        -0.0393
     22 C17         4.3926    2.1244    1.7609 C.ar      1 <0>        -0.1796
     23 C18         4.2164    3.2405    2.5610 C.ar      1 <0>         0.1472
     24 C19         2.9648    3.6074    3.0449 C.ar      1 <0>        -0.1653
     25 O4          5.2969    3.9994    2.8824 O.3       1 <0>        -0.4972
     26 C20        -6.1086    6.8126    3.1176 C.3       1 <0>        -0.1182
     27 H3         -7.1222    4.1347    4.8442 H         1 <0>         0.0634
     28 H4         -8.0719    5.1618    3.7435 H         1 <0>         0.0587
     29 H5         -7.2282    3.7260    3.1150 H         1 <0>         0.0702
     30 H6         -3.8870    5.4876    3.6023 H         1 <0>         0.1060
     31 H7         -5.5858    2.9174    4.0036 H         1 <0>         0.0813
     32 H8         -4.1813    3.2913    5.0312 H         1 <0>         0.0775
     33 H9         -1.9983    2.8083    4.3098 H         1 <0>         0.1331
     34 H10        -3.7229    1.5191   -0.1200 H         1 <0>         0.1418
     35 H11        -6.0839    1.8833    1.6944 H         1 <0>         0.3920
     36 H12         0.2702    2.4678    0.1589 H         1 <0>         0.0691
     37 H13         0.7632    0.8690   -0.4538 H         1 <0>         0.1205
     38 H14         3.4524    0.4441    0.7812 H         1 <0>         0.1410
     39 H15         5.3826    1.8773    1.4069 H         1 <0>         0.1340
     40 H16         2.8368    4.4800    3.6683 H         1 <0>         0.1437
     41 H17         5.7430    3.7245    3.6951 H         1 <0>         0.3958
     42 H18        -6.1549    6.8523    2.0293 H         1 <0>         0.0676
     43 H19        -7.0258    7.2275    3.5355 H         1 <0>         0.0611
     44 H20        -5.2550    7.3938    3.4664 H         1 <0>         0.0605
@<TRIPOS>BOND
     1    1    2 1
     2    1   27 1
     3    1   28 1
     4    1   29 1
     5    2    3 2
     6    2   26 1
     7    3    4 1
     8    3   30 1
     9    4    5 1
    10    4   31 1
    11    4   32 1
    12    5   10 ar
    13    5    6 ar
    14    6    7 ar
    15    6   33 1
    16    7   16 1
    17    7    8 ar
    18    8    9 ar
    19    8   12 1
    20    9   10 ar
    21    9   34 1
    22   10   11 1
    23   11   35 1
    24   12   13 1
    25   13   14 1
    26   13   36 1
    27   13   37 1
    28   14   15 1
    29   14   20 1
    30   14   16 1
    31   16   17 1
    32   16   18 1
    33   18   19 1
    34   19   24 ar
    35   19   20 ar
    36   20   21 ar
    37   21   22 ar
    38   21   38 1
    39   22   23 ar
    40   22   39 1
    41   23   24 ar
    42   23   25 1
    43   24   40 1
    44   25   41 1
    45   26   42 1
    46   26   43 1
    47   26   44 1
@<TRIPOS>MOLECULE
ZINC00902004
   31    34     0     0     0
SMALL
USER_CHARGES
BLAHdiol
@<TRIPOS>ATOM
      1 C1          2.3625   -0.0057   -0.0327 C.ar      1 <0>        -0.1784
      2 C2          1.1747   -0.7278   -0.0217 C.ar      1 <0>        -0.0396
      3 C3          0.0021   -0.0041    0.0020 C.ar      1 <0>        -0.1881
      4 C4         -0.0169    1.3958    0.0097 C.ar      1 <0>         0.1285
      5 C5          1.1789    2.1124    0.0021 C.ar      1 <0>        -0.1656
      6 C6          2.3609    1.3789   -0.0196 C.ar      1 <0>         0.1469
      7 O1          3.5480    2.0403   -0.0279 O.3       1 <0>        -0.4975
      8 O2         -1.2811    1.8695    0.0149 O.3       1 <0>        -0.2878
      9 C7         -2.1677    0.8209    0.4464 C.3       1 <0>         0.1355
     10 H1         -2.2821    0.8489    1.5301 H         1 <0>         0.1048
     11 C8         -1.4331   -0.4660    0.0317 C.3       1 <0>        -0.1067
     12 H2         -1.5809   -1.2618    0.7617 H         1 <0>         0.1173
     13 C9         -1.8529   -0.8946   -1.3737 C.3       1 <0>         0.0733
     14 O3         -3.2712   -1.0821   -1.3989 O.3       1 <0>        -0.3053
     15 C10        -4.0088    0.0175   -1.0844 C.ar      1 <0>         0.1560
     16 C11        -3.5059    0.9667   -0.2098 C.ar      1 <0>        -0.1751
     17 C12        -4.2641    2.0953    0.0721 C.ar      1 <0>        -0.0438
     18 C13        -5.5047    2.2692   -0.5048 C.ar      1 <0>        -0.1747
     19 C14        -6.0100    1.3124   -1.3734 C.ar      1 <0>         0.1523
     20 C15        -5.2584    0.1839   -1.6613 C.ar      1 <0>        -0.1739
     21 O4         -7.2343    1.4810   -1.9388 O.3       1 <0>        -0.4940
     22 H3          3.3041   -0.5345   -0.0514 H         1 <0>         0.1342
     23 H4          1.1709   -1.8078   -0.0318 H         1 <0>         0.1411
     24 H5          1.1874    3.1923    0.0127 H         1 <0>         0.1439
     25 H6          3.8808    2.2401   -0.9135 H         1 <0>         0.3960
     26 H7         -1.5744   -0.1211   -2.0895 H         1 <0>         0.0705
     27 H8         -1.3567   -1.8297   -1.6334 H         1 <0>         0.1190
     28 H9         -3.8791    2.8434    0.7492 H         1 <0>         0.1347
     29 H10        -6.0845    3.1521   -0.2796 H         1 <0>         0.1361
     30 H11        -5.6461   -0.5656   -2.3354 H         1 <0>         0.1426
     31 H12        -7.2160    1.9513   -2.7835 H         1 <0>         0.3975
@<TRIPOS>BOND
     1    1    6 ar
     2    1    2 ar
     3    1   22 1
     4    2    3 ar
     5    2   23 1
     6    3   11 1
     7    3    4 ar
     8    4    5 ar
     9    4    8 1
    10    5    6 ar
    11    5   24 1
    12    6    7 1
    13    7   25 1
    14    8    9 1
    15    9   10 1
    16    9   16 1
    17    9   11 1
    18   11   12 1
    19   11   13 1
    20   13   14 1
    21   13   26 1
    22   13   27 1
    23   14   15 1
    24   15   20 ar
    25   15   16 ar
    26   16   17 ar
    27   17   18 ar
    28   17   28 1
    29   18   19 ar
    30   18   29 1
    31   19   20 ar
    32   19   21 1
    33   20   30 1
    34   21   31 1
@<TRIPOS>MOLECULE
ZINC13382497
   57    60     0     0     0
SMALL
USER_CHARGES
(3S)-3,5,9-trihydroxy-8-methoxy-2,2-dimethyl-7-(3-methylbut-2-enyl)-3,4-dihydropyrano[5,6-b]xanthen-6-one
@<TRIPOS>ATOM
      1 C1          8.2658   -3.7189   -0.9717 C.3       1 <0>        -0.1252
      2 C2          7.1956   -3.2019   -1.8981 C.2       1 <0>        -0.1341
      3 C3          6.2743   -2.3882   -1.4452 C.2       1 <0>        -0.1426
      4 C4          6.3583   -1.8654   -0.0342 C.3       1 <0>        -0.0693
      5 C5          6.2734   -0.3609   -0.0501 C.ar      1 <0>         0.0186
      6 C6          5.0285    0.2716   -0.0855 C.ar      1 <0>        -0.2246
      7 C7          4.9420    1.6725   -0.1015 C.ar      1 <0>         0.1798
      8 C8          6.1111    2.4235   -0.0795 C.ar      1 <0>        -0.1690
      9 C9          7.3417    1.7930   -0.0436 C.ar      1 <0>         0.1641
     10 C10         7.4246    0.3983   -0.0292 C.ar      1 <0>         0.0389
     11 O1          8.6407   -0.2106    0.0049 O.3       1 <0>        -0.3152
     12 C11         9.2508   -0.5119   -1.2517 C.3       1 <0>         0.0235
     13 O2          8.4785    2.5355   -0.0216 O.3       1 <0>        -0.4772
     14 O3          3.7451    2.2949   -0.1382 O.3       1 <0>        -0.2233
     15 C12         2.5659    1.6402   -0.1539 C.ar      1 <0>         0.2144
     16 C13         1.3779    2.3533   -0.1823 C.ar      1 <0>        -0.1908
     17 C14         0.1543    1.6916   -0.1982 C.ar      1 <0>         0.2193
     18 C15         0.1081    0.3045   -0.1903 C.ar      1 <0>        -0.2198
     19 C16         1.2846   -0.4272   -0.1605 C.ar      1 <0>         0.2427
     20 C17         2.5180    0.2357   -0.1410 C.ar      1 <0>        -0.2890
     21 C18         3.7820   -0.5185   -0.1072 C.2       1 <0>         0.4426
     22 O4          3.7983   -1.7364   -0.0973 O.2       1 <0>        -0.4263
     23 O5          1.2415   -1.7833   -0.1507 O.3       1 <0>        -0.4705
     24 C19        -1.2032   -0.4393   -0.2184 C.3       1 <0>        -0.1040
     25 C20        -2.3385    0.5020    0.1915 C.3       1 <0>         0.0828
     26 H1         -2.2719    0.7153    1.2584 H         1 <0>         0.0724
     27 C21        -2.1951    1.8043   -0.6063 C.3       1 <0>         0.1202
     28 O6         -0.9783    2.4408   -0.2153 O.3       1 <0>        -0.2894
     29 C22        -2.1544    1.4898   -2.1030 C.3       1 <0>        -0.1731
     30 C23        -3.3790    2.7257   -0.3056 C.3       1 <0>        -0.1349
     31 O7         -3.5981   -0.1066   -0.1003 O.3       1 <0>        -0.5507
     32 C24         7.1852   -3.6209   -3.3456 C.3       1 <0>        -0.1169
     33 H2          7.8004   -4.1963   -0.1094 H         1 <0>         0.0669
     34 H3          8.8836   -4.4453   -1.4997 H         1 <0>         0.0610
     35 H4          8.8876   -2.8890   -0.6359 H         1 <0>         0.0712
     36 H5          5.4545   -2.0919   -2.0829 H         1 <0>         0.1059
     37 H6          7.3051   -2.1713    0.4108 H         1 <0>         0.0902
     38 H7          5.5335   -2.2697    0.5527 H         1 <0>         0.1141
     39 H8          6.0586    3.5022   -0.0908 H         1 <0>         0.1561
     40 H9          9.4007    0.4102   -1.8132 H         1 <0>         0.0423
     41 H10        10.2134   -0.9944   -1.0818 H         1 <0>         0.0979
     42 H11         8.6038   -1.1814   -1.8185 H         1 <0>         0.0586
     43 H12         8.8299    2.7428   -0.8984 H         1 <0>         0.3974
     44 H13         1.4023    3.4330   -0.1922 H         1 <0>         0.1560
     45 H14         1.2470   -2.1834   -1.0310 H         1 <0>         0.4020
     46 H15        -1.3872   -0.8122   -1.2259 H         1 <0>         0.0910
     47 H16        -1.1592   -1.2784    0.4759 H         1 <0>         0.0931
     48 H17        -3.0769    0.9873   -2.3940 H         1 <0>         0.0855
     49 H18        -2.0525    2.4172   -2.6666 H         1 <0>         0.0701
     50 H19        -1.3047    0.8407   -2.3149 H         1 <0>         0.0626
     51 H20        -3.3996    2.9549    0.7598 H         1 <0>         0.0669
     52 H21        -3.2738    3.6498   -0.8741 H         1 <0>         0.0699
     53 H22        -4.3071    2.2289   -0.5884 H         1 <0>         0.0912
     54 H23        -3.7456   -0.9449    0.3586 H         1 <0>         0.3868
     55 H24         7.2777   -2.7393   -3.9798 H         1 <0>         0.0628
     56 H25         8.0213   -4.2941   -3.5350 H         1 <0>         0.0627
     57 H26         6.2490   -4.1326   -3.5691 H         1 <0>         0.0647
@<TRIPOS>BOND
     1    1    2 1
     2    1   33 1
     3    1   34 1
     4    1   35 1
     5    2    3 2
     6    2   32 1
     7    3    4 1
     8    3   36 1
     9    4    5 1
    10    4   37 1
    11    4   38 1
    12    5   10 ar
    13    5    6 ar
    14    6   21 1
    15    6    7 ar
    16    7    8 ar
    17    7   14 1
    18    8    9 ar
    19    8   39 1
    20    9   10 ar
    21    9   13 1
    22   10   11 1
    23   11   12 1
    24   12   40 1
    25   12   41 1
    26   12   42 1
    27   13   43 1
    28   14   15 1
    29   15   20 ar
    30   15   16 ar
    31   16   17 ar
    32   16   44 1
    33   17   28 1
    34   17   18 ar
    35   18   19 ar
    36   18   24 1
    37   19   20 ar
    38   19   23 1
    39   20   21 1
    40   21   22 2
    41   23   45 1
    42   24   25 1
    43   24   46 1
    44   24   47 1
    45   25   26 1
    46   25   27 1
    47   25   31 1
    48   27   28 1
    49   27   29 1
    50   27   30 1
    51   29   48 1
    52   29   49 1
    53   29   50 1
    54   30   51 1
    55   30   52 1
    56   30   53 1
    57   31   54 1
    58   32   55 1
    59   32   56 1
    60   32   57 1
@<TRIPOS>MOLECULE
ZINC13382498
   57    60     0     0     0
SMALL
USER_CHARGES
(3R)-3,5,9-trihydroxy-8-methoxy-2,2-dimethyl-7-(3-methylbut-2-enyl)-3,4-dihydropyrano[5,6-b]xanthen-6-one
@<TRIPOS>ATOM
      1 C1          0.6739    9.0324    0.9585 C.3       1 <0>        -0.1294
      2 C2          0.6263    7.8458    1.8862 C.2       1 <0>        -0.1360
      3 C3          0.9274    6.6520    1.4386 C.2       1 <0>        -0.1393
      4 C4          1.4968    6.4882    0.0530 C.3       1 <0>        -0.0747
      5 C5          2.7649    5.6770    0.1237 C.ar      1 <0>         0.0181
      6 C6          2.7056    4.2814    0.1362 C.ar      1 <0>        -0.2248
      7 C7          3.8826    3.5195    0.2022 C.ar      1 <0>         0.1803
      8 C8          5.1090    4.1710    0.2539 C.ar      1 <0>        -0.1695
      9 C9          5.1630    5.5530    0.2409 C.ar      1 <0>         0.1635
     10 C10         3.9897    6.3088    0.1759 C.ar      1 <0>         0.0384
     11 O1          4.0553    7.6676    0.1645 O.3       1 <0>        -0.3151
     12 C11         4.0254    8.3292    1.4308 C.3       1 <0>         0.0261
     13 O2          6.3663    6.1805    0.2912 O.3       1 <0>        -0.4774
     14 O3          3.8379    2.1708    0.2169 O.3       1 <0>        -0.2240
     15 C12         2.6905    1.4634    0.1645 C.ar      1 <0>         0.2139
     16 C13         2.7294    0.0781    0.1760 C.ar      1 <0>        -0.1951
     17 C14         1.5543   -0.6644    0.1222 C.ar      1 <0>         0.2321
     18 C15         0.3240   -0.0249    0.0608 C.ar      1 <0>        -0.2172
     19 C16         0.2633    1.3595    0.0467 C.ar      1 <0>         0.2399
     20 C17         1.4446    2.1100    0.0973 C.ar      1 <0>        -0.2917
     21 C18         1.4072    3.5817    0.0809 C.2       1 <0>         0.4429
     22 O4          0.3550    4.1927    0.0240 O.2       1 <0>        -0.4280
     23 O5         -0.9380    1.9865   -0.0216 O.3       1 <0>        -0.4709
     24 C19        -0.9662   -0.8037    0.0132 C.3       1 <0>        -0.1033
     25 C20        -0.6809   -2.2487   -0.4032 C.3       1 <0>         0.0775
     26 H1         -1.5658   -2.8619   -0.2328 H         1 <0>         0.0801
     27 C21         0.4833   -2.7732    0.4470 C.3       1 <0>         0.1220
     28 O6          1.6522   -2.0189    0.1254 O.3       1 <0>        -0.2843
     29 C22         0.7229   -4.2520    0.1362 C.3       1 <0>        -0.1394
     30 C23         0.1543   -2.6055    1.9317 C.3       1 <0>        -0.1793
     31 O7         -0.3246   -2.2910   -1.7865 O.3       1 <0>        -0.5505
     32 C24         0.2324    8.0325    3.3288 C.3       1 <0>        -0.1159
     33 H2          1.0380    8.7152   -0.0188 H         1 <0>         0.0735
     34 H3         -0.3264    9.4528    0.8547 H         1 <0>         0.0677
     35 H4          1.3446    9.7875    1.3685 H         1 <0>         0.0622
     36 H5          0.7675    5.7851    2.0627 H         1 <0>         0.1059
     37 H6          1.7162    7.4694   -0.3680 H         1 <0>         0.0961
     38 H7          0.7722    5.9753   -0.5793 H         1 <0>         0.1138
     39 H8          6.0223    3.5967    0.3044 H         1 <0>         0.1558
     40 H9          4.0845    9.4070    1.2792 H         1 <0>         0.0969
     41 H10         3.0966    8.0851    1.9464 H         1 <0>         0.0569
     42 H11         4.8725    8.0000    2.0328 H         1 <0>         0.0414
     43 H12         6.6725    6.3725    1.1881 H         1 <0>         0.3970
     44 H13         3.6811   -0.4298    0.2276 H         1 <0>         0.1539
     45 H14        -1.3328    2.1751    0.8408 H         1 <0>         0.4003
     46 H15        -1.4314   -0.7954    0.9989 H         1 <0>         0.0889
     47 H16        -1.6407   -0.3444   -0.7094 H         1 <0>         0.0941
     48 H17         1.5624   -4.6164    0.7283 H         1 <0>         0.0709
     49 H18        -0.1713   -4.8246    0.3829 H         1 <0>         0.0804
     50 H19         0.9481   -4.3687   -0.9238 H         1 <0>         0.0775
     51 H20        -0.0245   -1.5522    2.1476 H         1 <0>         0.0675
     52 H21        -0.7382   -3.1826    2.1735 H         1 <0>         0.0806
     53 H22         0.9913   -2.9624    2.5319 H         1 <0>         0.0781
     54 H23        -1.0175   -1.9724   -2.3810 H         1 <0>         0.3833
     55 H24         1.1224    8.2325    3.9255 H         1 <0>         0.0651
     56 H25        -0.4568    8.8728    3.4114 H         1 <0>         0.0625
     57 H26        -0.2531    7.1271    3.6929 H         1 <0>         0.0607
@<TRIPOS>BOND
     1    1    2 1
     2    1   33 1
     3    1   34 1
     4    1   35 1
     5    2    3 2
     6    2   32 1
     7    3    4 1
     8    3   36 1
     9    4    5 1
    10    4   37 1
    11    4   38 1
    12    5   10 ar
    13    5    6 ar
    14    6   21 1
    15    6    7 ar
    16    7    8 ar
    17    7   14 1
    18    8    9 ar
    19    8   39 1
    20    9   10 ar
    21    9   13 1
    22   10   11 1
    23   11   12 1
    24   12   40 1
    25   12   41 1
    26   12   42 1
    27   13   43 1
    28   14   15 1
    29   15   20 ar
    30   15   16 ar
    31   16   17 ar
    32   16   44 1
    33   17   28 1
    34   17   18 ar
    35   18   19 ar
    36   18   24 1
    37   19   20 ar
    38   19   23 1
    39   20   21 1
    40   21   22 2
    41   23   45 1
    42   24   25 1
    43   24   46 1
    44   24   47 1
    45   25   26 1
    46   25   27 1
    47   25   31 1
    48   27   28 1
    49   27   29 1
    50   27   30 1
    51   29   48 1
    52   29   49 1
    53   29   50 1
    54   30   51 1
    55   30   52 1
    56   30   53 1
    57   31   54 1
    58   32   55 1
    59   32   56 1
    60   32   57 1
@<TRIPOS>MOLECULE
ZINC03869768
   31    33     0     0     0
SMALL
USER_CHARGES

@<TRIPOS>ATOM
      1 C1          0.9745   -0.2752   -0.9649 C.ar      1 <0>        -0.0474
      2 C2          2.1550    0.4346   -0.9693 C.ar      1 <0>        -0.1488
      3 C3          2.3800    1.4188   -0.0145 C.ar      1 <0>         0.1280
      4 C4          1.4162    1.6917    0.9485 C.ar      1 <0>        -0.1504
      5 C5          0.2327    0.9869    0.9606 C.ar      1 <0>        -0.0665
      6 C6          0.0021   -0.0041    0.0020 C.ar      1 <0>        -0.0625
      7 C7         -1.2634   -0.7608    0.0105 C.2       1 <0>         0.1356
      8 C8         -1.2167   -2.1184   -0.0957 C.2       1 <0>        -0.0454
      9 C9         -2.4259   -2.8610   -0.0886 C.2       1 <0>         0.4007
     10 O1         -2.4232   -4.0781   -0.1814 O.2       1 <0>        -0.4492
     11 C10        -3.6832   -2.1065    0.0355 C.ar      1 <0>        -0.2689
     12 C11        -4.9234   -2.7585    0.0517 C.ar      1 <0>         0.2243
     13 C12        -6.0821   -2.0144    0.1703 C.ar      1 <0>        -0.2086
     14 C13        -6.0155   -0.6287    0.2722 C.ar      1 <0>         0.1994
     15 C14        -4.7926    0.0230    0.2564 C.ar      1 <0>        -0.1859
     16 C15        -3.6188   -0.7060    0.1392 C.ar      1 <0>         0.1873
     17 O2         -2.4200   -0.0864    0.1283 O.3       1 <0>        -0.1981
     18 O3         -7.1599    0.0925    0.3877 O.3       1 <0>        -0.4869
     19 O4         -4.9864   -4.1104   -0.0487 O.3       1 <0>        -0.4727
     20 O5         -0.0202   -2.7570   -0.2082 O.3       1 <0>        -0.4492
     21 O6          3.5454    2.1157   -0.0224 O.3       1 <0>        -0.4978
     22 H1          0.7987   -1.0369   -1.7101 H         1 <0>         0.1366
     23 H2          2.9071    0.2256   -1.7157 H         1 <0>         0.1375
     24 H3          1.5954    2.4572    1.6889 H         1 <0>         0.1366
     25 H4         -0.5157    1.1995    1.7097 H         1 <0>         0.1340
     26 H5         -7.0416   -2.5100    0.1835 H         1 <0>         0.1512
     27 H6         -4.7536    1.0994    0.3359 H         1 <0>         0.1553
     28 H7         -7.4448    0.2345    1.3008 H         1 <0>         0.4049
     29 H8         -4.9577   -4.5698    0.8018 H         1 <0>         0.4037
     30 H9         -0.0926   -3.7187   -0.2778 H         1 <0>         0.4073
     31 H10         3.5195    2.9194   -0.5594 H         1 <0>         0.3958
@<TRIPOS>BOND
     1    1    6 ar
     2    1    2 ar
     3    1   22 1
     4    2    3 ar
     5    2   23 1
     6    3    4 ar
     7    3   21 1
     8    4    5 ar
     9    4   24 1
    10    5    6 ar
    11    5   25 1
    12    6    7 1
    13    7   17 1
    14    7    8 2
    15    8    9 1
    16    8   20 1
    17    9   10 2
    18    9   11 1
    19   11   16 ar
    20   11   12 ar
    21   12   13 ar
    22   12   19 1
    23   13   14 ar
    24   13   26 1
    25   14   15 ar
    26   14   18 1
    27   15   16 ar
    28   15   27 1
    29   16   17 1
    30   18   28 1
    31   19   29 1
    32   20   30 1
    33   21   31 1
@<TRIPOS>MOLECULE
ZINC03869768
   30    32     0     0     0
SMALL
USER_CHARGES

@<TRIPOS>ATOM
      1 C1          0.1387    1.1253   -0.8121 C.ar      1 <0>        -0.0723
      2 C2          1.3222    1.8291   -0.8163 C.ar      1 <0>        -0.1492
      3 C3          2.3802    1.4188   -0.0136 C.ar      1 <0>         0.1107
      4 C4          2.2493    0.2973    0.7970 C.ar      1 <0>        -0.1487
      5 C5          1.0698   -0.4131    0.8081 C.ar      1 <0>        -0.0549
      6 C6          0.0021   -0.0041    0.0020 C.ar      1 <0>        -0.0373
      7 C7         -1.2618   -0.7600    0.0105 C.2       1 <0>         0.1024
      8 C8         -1.2272   -2.1382   -0.0967 C.2       1 <0>        -0.0073
      9 C9         -2.4246   -2.8649   -0.0894 C.2       1 <0>         0.3353
     10 C10        -3.6396   -2.1555    0.0286 C.2       1 <0>        -0.3335
     11 C11        -4.8747   -2.8371    0.0419 C.2       1 <0>         0.2665
     12 C12        -6.0380   -2.1324    0.1573 C.2       1 <0>        -0.3754
     13 C13        -6.0102   -0.7324    0.2627 C.2       1 <0>         0.3645
     14 O1         -7.1532   -0.0530    0.3751 O.2       1 <0>        -0.6613
     15 C14        -4.7917   -0.0455    0.2513 C.2       1 <0>        -0.3154
     16 C15        -3.6071   -0.7470    0.1346 C.2       1 <0>         0.2120
     17 O2         -2.4247   -0.0966    0.1278 O.3       1 <0>        -0.2026
     18 O3         -4.9062   -4.1898   -0.0602 O.3       1 <0>        -0.4482
     19 O4         -2.4171   -4.2129   -0.1933 O.3       1 <0>        -0.5752
     20 O5         -0.0356   -2.7853   -0.2091 O.3       1 <0>        -0.4646
     21 O6          3.5454    2.1154   -0.0218 O.3       1 <0>        -0.5000
     22 H1         -0.6842    1.4472   -1.4330 H         1 <0>         0.1347
     23 H2          1.4286    2.7011   -1.4445 H         1 <0>         0.1321
     24 H3          3.0741   -0.0177    1.4190 H         1 <0>         0.1323
     25 H4          0.9692   -1.2847    1.4377 H         1 <0>         0.1358
     26 H5         -6.9838   -2.6538    0.1671 H         1 <0>         0.1177
     27 H6         -4.7769    1.0313    0.3327 H         1 <0>         0.1225
     28 H7         -5.7973   -4.5650   -0.0417 H         1 <0>         0.3845
     29 H8         -0.1151   -3.7466   -0.2784 H         1 <0>         0.4051
     30 H9          3.5829    2.8269    0.6320 H         1 <0>         0.3897
@<TRIPOS>BOND
     1    1    6 ar
     2    1    2 ar
     3    1   22 1
     4    2    3 ar
     5    2   23 1
     6    3    4 ar
     7    3   21 1
     8    4    5 ar
     9    4   24 1
    10    5    6 ar
    11    5   25 1
    12    6    7 1
    13    7   17 1
    14    7    8 2
    15    8    9 1
    16    8   20 1
    17    9   10 2
    18    9   19 1
    19   10   16 1
    20   10   11 1
    21   11   12 2
    22   11   18 1
    23   12   13 1
    24   12   26 1
    25   13   14 2
    26   13   15 1
    27   15   16 2
    28   15   27 1
    29   16   17 1
    30   18   28 1
    31   20   29 1
    32   21   30 1
@<TRIPOS>MOLECULE
ZINC18185774
   31    33     0     0     0
SMALL
USER_CHARGES

@<TRIPOS>ATOM
      1 C1         -0.0169    1.3929    0.0097 C.ar      1 <0>        -0.0705
      2 C2          1.1675    2.0983    0.0022 C.ar      1 <0>        -0.1309
      3 C3          2.3803    1.4240   -0.0135 C.ar      1 <0>         0.1099
      4 C4          2.4067    0.0300   -0.0212 C.ar      1 <0>         0.0792
      5 C5          1.2240   -0.6832   -0.0138 C.ar      1 <0>        -0.0904
      6 C6          0.0021   -0.0041    0.0020 C.ar      1 <0>        -0.0661
      7 C7         -1.2642   -0.7606    0.0105 C.2       1 <0>         0.2069
      8 C8         -2.4374   -0.0724    0.0203 C.2       1 <0>        -0.3067
      9 C9         -3.6620   -0.7813    0.0286 C.2       1 <0>         0.4226
     10 O1         -4.7331   -0.1964    0.0371 O.2       1 <0>        -0.4521
     11 C10        -3.5935   -2.2524    0.0260 C.ar      1 <0>        -0.2661
     12 C11        -4.7554   -3.0344    0.0332 C.ar      1 <0>         0.2196
     13 C12        -4.6484   -4.4128    0.0300 C.ar      1 <0>        -0.2046
     14 C13        -3.3955   -5.0163    0.0203 C.ar      1 <0>         0.1928
     15 C14        -2.2415   -4.2483    0.0131 C.ar      1 <0>        -0.1829
     16 C15        -2.3286   -2.8648    0.0157 C.ar      1 <0>         0.1832
     17 O2         -1.2147   -2.1022    0.0028 O.3       1 <0>        -0.2181
     18 O3         -3.3016   -6.3705    0.0182 O.3       1 <0>        -0.4872
     19 O4         -5.9771   -2.4436    0.0436 O.3       1 <0>        -0.4722
     20 O5          3.5971   -0.6274   -0.0366 O.3       1 <0>        -0.4831
     21 O6          3.5446    2.1239   -0.0217 O.3       1 <0>        -0.4848
     22 H1         -0.9593    1.9201    0.0260 H         1 <0>         0.1451
     23 H2          1.1515    3.1781    0.0081 H         1 <0>         0.1468
     24 H3          1.2430   -1.7630   -0.0205 H         1 <0>         0.1466
     25 H4         -2.4342    1.0076    0.0222 H         1 <0>         0.1649
     26 H5         -5.5400   -5.0224    0.0355 H         1 <0>         0.1504
     27 H6         -1.2739   -4.7281    0.0059 H         1 <0>         0.1535
     28 H7         -3.2809   -6.7620   -0.8658 H         1 <0>         0.4041
     29 H8         -6.3379   -2.2705   -0.8367 H         1 <0>         0.4034
     30 H9          3.9502   -0.8223    0.8423 H         1 <0>         0.3919
     31 H10         3.8907    2.3221    0.8592 H         1 <0>         0.3948
@<TRIPOS>BOND
     1    1    6 ar
     2    1    2 ar
     3    1   22 1
     4    2    3 ar
     5    2   23 1
     6    3    4 ar
     7    3   21 1
     8    4    5 ar
     9    4   20 1
    10    5    6 ar
    11    5   24 1
    12    6    7 1
    13    7   17 1
    14    7    8 2
    15    8    9 1
    16    8   25 1
    17    9   10 2
    18    9   11 1
    19   11   16 ar
    20   11   12 ar
    21   12   13 ar
    22   12   19 1
    23   13   14 ar
    24   13   26 1
    25   14   15 ar
    26   14   18 1
    27   15   16 ar
    28   15   27 1
    29   16   17 1
    30   18   28 1
    31   19   29 1
    32   20   30 1
    33   21   31 1
@<TRIPOS>MOLECULE
ZINC13412042
   53    55     0     0     0
SMALL
USER_CHARGES
2-(1,1-dimethylprop-2-enyl)-1,3,6,7-tetrahydroxy-5-(3-methylbut-2-enyl)xanthen-9-one
@<TRIPOS>ATOM
      1 C1          6.4529    0.3071   -0.4670 C.3       1 <0>        -0.1267
      2 C2          5.7114   -0.3691   -1.5913 C.2       1 <0>        -0.1224
      3 C3          4.5387   -0.9096   -1.3707 C.2       1 <0>        -0.1673
      4 C4          3.8755   -0.7487   -0.0270 C.3       1 <0>        -0.0478
      5 C5          2.5360   -0.0814   -0.2046 C.ar      1 <0>        -0.1134
      6 C6          2.4408    1.2982   -0.1584 C.ar      1 <0>         0.1552
      7 C7          1.2059    1.9303   -0.3210 C.ar      1 <0>         0.0567
      8 C8          0.0687    1.1780   -0.5300 C.ar      1 <0>        -0.0436
      9 C9          0.1600   -0.2147   -0.5774 C.ar      1 <0>        -0.2177
     10 C10         1.3999   -0.8530   -0.4139 C.ar      1 <0>         0.1732
     11 O1          1.5002   -2.1981   -0.4580 O.3       1 <0>        -0.2209
     12 C11         0.4469   -3.0170   -0.6561 C.ar      1 <0>         0.1960
     13 C12         0.6358   -4.3916   -0.6872 C.ar      1 <0>        -0.1888
     14 C13        -0.4419   -5.2401   -0.8875 C.ar      1 <0>         0.2018
     15 C14        -1.7237   -4.7301   -1.0621 C.ar      1 <0>        -0.1552
     16 C15        -1.9341   -3.3640   -1.0359 C.ar      1 <0>         0.2255
     17 C16        -0.8482   -2.5006   -0.8324 C.ar      1 <0>        -0.2695
     18 C17        -1.0423   -1.0415   -0.7991 C.2       1 <0>         0.4406
     19 O2         -2.1427   -0.5406   -0.9471 O.2       1 <0>        -0.4318
     20 O3         -3.1831   -2.8621   -1.2054 O.3       1 <0>        -0.4583
     21 C18        -2.8839   -5.6669   -1.2796 C.3       1 <0>         0.0142
     22 C19        -2.7253   -6.3707   -2.6288 C.3       1 <0>        -0.1433
     23 C20        -2.9139   -6.7100   -0.1606 C.3       1 <0>        -0.1432
     24 C21        -4.1710   -4.8831   -1.2702 C.2       1 <0>        -0.1099
     25 C22        -4.9482   -4.8873   -2.3247 C.2       1 <0>        -0.2295
     26 O4         -0.2437   -6.5825   -0.9150 O.3       1 <0>        -0.4787
     27 O5          1.1248    3.2875   -0.2733 O.3       1 <0>        -0.4834
     28 O6          3.5571    2.0437    0.0472 O.3       1 <0>        -0.4785
     29 C23         6.3190   -0.4236   -2.9693 C.3       1 <0>        -0.1204
     30 H1          6.7132   -0.4306    0.2920 H         1 <0>         0.0680
     31 H2          7.3625    0.7652   -0.8554 H         1 <0>         0.0616
     32 H3          5.8193    1.0757   -0.0244 H         1 <0>         0.0745
     33 H4          4.0470   -1.4705   -2.1518 H         1 <0>         0.1088
     34 H5          4.5047   -0.1348    0.6174 H         1 <0>         0.0954
     35 H6          3.7356   -1.7289    0.4288 H         1 <0>         0.0882
     36 H7         -0.8869    1.6639   -0.6608 H         1 <0>         0.1539
     37 H8          1.6259   -4.8018   -0.5534 H         1 <0>         0.1535
     38 H9         -3.4117   -2.6790   -2.1270 H         1 <0>         0.3989
     39 H10        -1.8394   -7.0053   -2.6056 H         1 <0>         0.0585
     40 H11        -3.6056   -6.9827   -2.8251 H         1 <0>         0.0688
     41 H12        -2.6177   -5.6254   -3.4169 H         1 <0>         0.0564
     42 H13        -3.0269   -6.2086    0.8006 H         1 <0>         0.0539
     43 H14        -3.7531   -7.3876   -0.3179 H         1 <0>         0.0586
     44 H15        -1.9829   -7.2769   -0.1674 H         1 <0>         0.0830
     45 H16        -4.4527   -4.3179   -0.3940 H         1 <0>         0.1193
     46 H17        -4.6665   -5.4525   -3.2008 H         1 <0>         0.0992
     47 H18        -5.8706   -4.3256   -2.3180 H         1 <0>         0.0968
     48 H19         0.0253   -6.9227   -1.7793 H         1 <0>         0.3988
     49 H20         0.9666    3.6412    0.6127 H         1 <0>         0.3956
     50 H21         4.0152    2.2982   -0.7655 H         1 <0>         0.4007
     51 H22         5.6601    0.0792   -3.6771 H         1 <0>         0.0657
     52 H23         7.2886    0.0743   -2.9587 H         1 <0>         0.0634
     53 H24         6.4479   -1.4637   -3.2687 H         1 <0>         0.0656
@<TRIPOS>BOND
     1    1    2 1
     2    1   30 1
     3    1   31 1
     4    1   32 1
     5    2    3 2
     6    2   29 1
     7    3    4 1
     8    3   33 1
     9    4    5 1
    10    4   34 1
    11    4   35 1
    12    5   10 ar
    13    5    6 ar
    14    6    7 ar
    15    6   28 1
    16    7    8 ar
    17    7   27 1
    18    8    9 ar
    19    8   36 1
    20    9   18 1
    21    9   10 ar
    22   10   11 1
    23   11   12 1
    24   12   17 ar
    25   12   13 ar
    26   13   14 ar
    27   13   37 1
    28   14   15 ar
    29   14   26 1
    30   15   16 ar
    31   15   21 1
    32   16   17 ar
    33   16   20 1
    34   17   18 1
    35   18   19 2
    36   20   38 1
    37   21   22 1
    38   21   23 1
    39   21   24 1
    40   22   39 1
    41   22   40 1
    42   22   41 1
    43   23   42 1
    44   23   43 1
    45   23   44 1
    46   24   25 2
    47   24   45 1
    48   25   46 1
    49   25   47 1
    50   26   48 1
    51   27   49 1
    52   28   50 1
    53   29   51 1
    54   29   52 1
    55   29   53 1
@<TRIPOS>MOLECULE
ZINC06525297
   33    35     0     0     0
SMALL
USER_CHARGES

@<TRIPOS>ATOM
      1 C1          1.0665   -0.4113    0.8105 C.ar      1 <0>        -0.0733
      2 C2          2.2492    0.2973    0.8015 C.ar      1 <0>        -0.1339
      3 C3          2.3858    1.4152   -0.0090 C.ar      1 <0>         0.1033
      4 C4          1.3281    1.8273   -0.8182 C.ar      1 <0>         0.0780
      5 C5          0.1401    1.1224   -0.8146 C.ar      1 <0>        -0.0768
      6 C6          0.0021   -0.0041    0.0020 C.ar      1 <0>        -0.0444
      7 C7         -1.2637   -0.7605    0.0100 C.2       1 <0>         0.1321
      8 C8         -2.4364   -0.0759    0.1234 C.2       1 <0>        -0.0418
      9 C9         -3.6630   -0.7889    0.1322 C.2       1 <0>         0.4018
     10 O1         -4.7327   -0.2094    0.2318 O.2       1 <0>        -0.4444
     11 C10        -3.5955   -2.2546    0.0160 C.ar      1 <0>        -0.2550
     12 C11        -4.7571   -3.0374    0.0155 C.ar      1 <0>         0.2175
     13 C12        -4.6540   -4.4112   -0.0958 C.ar      1 <0>        -0.1930
     14 C13        -3.4050   -5.0124   -0.2067 C.ar      1 <0>         0.1734
     15 C14        -2.2481   -4.2445   -0.2071 C.ar      1 <0>         0.0448
     16 C15        -2.3326   -2.8618   -0.0960 C.ar      1 <0>         0.1601
     17 O2         -1.2183   -2.0991   -0.1002 O.3       1 <0>        -0.1878
     18 O3         -1.0313   -4.8460   -0.3159 O.3       1 <0>        -0.4656
     19 O4         -3.3159   -6.3637   -0.3151 O.3       1 <0>        -0.4742
     20 O5         -5.9768   -2.4503    0.1242 O.3       1 <0>        -0.4702
     21 O6         -2.4312    1.2810    0.2278 O.3       1 <0>        -0.4472
     22 O7          1.4657    2.9238   -1.6109 O.3       1 <0>        -0.4824
     23 O8          3.5534    2.1102   -0.0137 O.3       1 <0>        -0.4856
     24 H1          0.9644   -1.2837    1.4390 H         1 <0>         0.1388
     25 H2          3.0710   -0.0182    1.4271 H         1 <0>         0.1425
     26 H3         -0.6802    1.4409   -1.4407 H         1 <0>         0.1429
     27 H4         -5.5463   -5.0197   -0.0964 H         1 <0>         0.1567
     28 H5         -0.7251   -4.9521   -1.2269 H         1 <0>         0.3892
     29 H6         -3.3356   -6.6874   -1.2261 H         1 <0>         0.4013
     30 H7         -6.3757   -2.2121   -0.7239 H         1 <0>         0.4039
     31 H8         -3.3119    1.6731    0.3036 H         1 <0>         0.4085
     32 H9          1.8070    2.7299   -2.4946 H         1 <0>         0.3890
     33 H10         4.1931    1.8002   -0.6692 H         1 <0>         0.3920
@<TRIPOS>BOND
     1    1    6 ar
     2    1    2 ar
     3    1   24 1
     4    2    3 ar
     5    2   25 1
     6    3    4 ar
     7    3   23 1
     8    4    5 ar
     9    4   22 1
    10    5    6 ar
    11    5   26 1
    12    6    7 1
    13    7   17 1
    14    7    8 2
    15    8    9 1
    16    8   21 1
    17    9   10 2
    18    9   11 1
    19   11   16 ar
    20   11   12 ar
    21   12   13 ar
    22   12   20 1
    23   13   14 ar
    24   13   27 1
    25   14   15 ar
    26   14   19 1
    27   15   16 ar
    28   15   18 1
    29   16   17 1
    30   18   28 1
    31   19   29 1
    32   20   30 1
    33   21   31 1
    34   22   32 1
    35   23   33 1
@<TRIPOS>MOLECULE
ZINC06525297
   32    34     0     0     0
SMALL
USER_CHARGES

@<TRIPOS>ATOM
      1 C1          0.1387    1.1246   -0.8121 C.ar      1 <0>        -0.0618
      2 C2          1.3225    1.8304   -0.8180 C.ar      1 <0>        -0.1340
      3 C3          2.3810    1.4236   -0.0177 C.ar      1 <0>         0.0879
      4 C4          2.2522    0.2990    0.7968 C.ar      1 <0>         0.0755
      5 C5          1.0696   -0.4136    0.8085 C.ar      1 <0>        -0.0974
      6 C6          0.0021   -0.0041    0.0020 C.ar      1 <0>        -0.0203
      7 C7         -1.2620   -0.7597    0.0105 C.2       1 <0>         0.1107
      8 C8         -2.4585   -0.0762    0.1255 C.2       1 <0>        -0.0148
      9 C9         -3.6658   -0.7863    0.1345 C.2       1 <0>         0.3413
     10 C10        -3.6183   -2.1931    0.0243 C.2       1 <0>        -0.3142
     11 C11        -4.8029   -2.9574    0.0274 C.2       1 <0>         0.2605
     12 C12        -4.7356   -4.3171   -0.0805 C.2       1 <0>        -0.3671
     13 C13        -3.4926   -4.9579   -0.1941 C.2       1 <0>         0.3216
     14 O1         -3.4388   -6.2890   -0.2992 O.2       1 <0>        -0.6616
     15 C14        -2.3077   -4.2107   -0.1986 C.2       1 <0>        -0.0607
     16 C15        -2.3628   -2.8329   -0.0903 C.2       1 <0>         0.1677
     17 O2         -1.2289   -2.0988   -0.0991 O.3       1 <0>        -0.1890
     18 O3         -1.1038   -4.8397   -0.3088 O.3       1 <0>        -0.4827
     19 O4         -6.0084   -2.3429    0.1380 O.3       1 <0>        -0.4463
     20 O5         -4.8482   -0.1402    0.2463 O.3       1 <0>        -0.5717
     21 O6         -2.4631    1.2804    0.2300 O.3       1 <0>        -0.4654
     22 O7          3.2918   -0.0962    1.5795 O.3       1 <0>        -0.4853
     23 O8          3.5458    2.1225   -0.0283 O.3       1 <0>        -0.4880
     24 H1         -0.6847    1.4458   -1.4327 H         1 <0>         0.1398
     25 H2          1.4268    2.7019   -1.4472 H         1 <0>         0.1380
     26 H3          0.9689   -1.2851    1.4384 H         1 <0>         0.1413
     27 H4         -5.6434   -4.9021   -0.0781 H         1 <0>         0.1223
     28 H5         -1.1678   -5.8021   -0.3788 H         1 <0>         0.3929
     29 H6         -6.7613   -2.9496    0.1306 H         1 <0>         0.3850
     30 H7         -3.3466    1.6661    0.3057 H         1 <0>         0.4048
     31 H8          3.2923    0.2991    2.4620 H         1 <0>         0.3852
     32 H9          3.5830    2.8348    0.6247 H         1 <0>         0.3860
@<TRIPOS>BOND
     1    1    6 ar
     2    1    2 ar
     3    1   24 1
     4    2    3 ar
     5    2   25 1
     6    3    4 ar
     7    3   23 1
     8    4    5 ar
     9    4   22 1
    10    5    6 ar
    11    5   26 1
    12    6    7 1
    13    7   17 1
    14    7    8 2
    15    8    9 1
    16    8   21 1
    17    9   10 2
    18    9   20 1
    19   10   16 1
    20   10   11 1
    21   11   12 2
    22   11   19 1
    23   12   13 1
    24   12   27 1
    25   13   14 2
    26   13   15 1
    27   15   16 2
    28   15   18 1
    29   16   17 1
    30   18   28 1
    31   19   29 1
    32   21   30 1
    33   22   31 1
    34   23   32 1
@<TRIPOS>MOLECULE
ZINC05195818
   53    55     0     0     0
SMALL
USER_CHARGES

@<TRIPOS>ATOM
      1 C1          1.8494    1.5479    0.1386 C.3       1 <0>        -0.1235
      2 C2          2.1353    0.0688    0.1775 C.2       1 <0>        -0.1284
      3 C3          2.1550   -0.5646    1.3241 C.2       1 <0>        -0.1620
      4 C4          1.7739    0.1577    2.5906 C.3       1 <0>        -0.0432
      5 C5          0.5958   -0.5330    3.2278 C.ar      1 <0>        -0.1601
      6 C6         -0.6987   -0.1531    2.8909 C.ar      1 <0>         0.1965
      7 C7         -1.7934   -0.7752    3.4704 C.ar      1 <0>        -0.1813
      8 C8         -1.6098   -1.7922    4.3971 C.ar      1 <0>         0.1865
      9 C9         -0.3010   -2.1828    4.7300 C.ar      1 <0>        -0.2632
     10 C10         0.8018   -1.5487    4.1433 C.ar      1 <0>         0.2210
     11 O1          2.0626   -1.9248    4.4747 O.3       1 <0>        -0.4718
     12 C11        -0.1195   -3.2793    5.6981 C.2       1 <0>         0.4416
     13 O2          0.9620   -3.5236    6.2024 O.2       1 <0>        -0.4216
     14 C12        -1.3295   -4.0638    6.0200 C.ar      1 <0>        -0.2196
     15 C13        -2.5782   -3.5636    5.6159 C.ar      1 <0>         0.1695
     16 O3         -2.6788   -2.3866    4.9643 O.3       1 <0>        -0.2211
     17 C14        -3.7231   -4.2970    5.9014 C.ar      1 <0>        -0.1659
     18 C15        -3.6275   -5.4986    6.5806 C.ar      1 <0>         0.1549
     19 C16        -2.3844   -5.9886    6.9874 C.ar      1 <0>         0.0532
     20 C17        -1.2374   -5.2742    6.7080 C.ar      1 <0>         0.0073
     21 C18         0.1069   -5.7984    7.1429 C.3       1 <0>        -0.0612
     22 C19         0.4254   -5.2814    8.5222 C.2       1 <0>        -0.1450
     23 C20         0.6495   -6.1224    9.5013 C.2       1 <0>        -0.1258
     24 C21         0.5418   -7.6060    9.2598 C.3       1 <0>        -0.1235
     25 C22         1.0150   -5.6062   10.8691 C.3       1 <0>        -0.1171
     26 O4         -2.3045   -7.1693    7.6586 O.3       1 <0>        -0.4702
     27 O5         -4.7527   -6.2079    6.8546 O.3       1 <0>        -0.4784
     28 O6         -0.8925    0.8385    1.9847 O.3       1 <0>        -0.4833
     29 C23         2.3986   -0.6817   -1.1025 C.3       1 <0>        -0.1197
     30 H1          2.5480    2.0703    0.7923 H         1 <0>         0.0664
     31 H2          1.9641    1.9134   -0.8818 H         1 <0>         0.0609
     32 H3          0.8295    1.7298    0.4773 H         1 <0>         0.0724
     33 H4          2.4443   -1.6045    1.3616 H         1 <0>         0.1100
     34 H5          2.6171    0.1495    3.2813 H         1 <0>         0.0829
     35 H6          1.5072    1.1880    2.3551 H         1 <0>         0.0910
     36 H7         -2.7927   -0.4673    3.2003 H         1 <0>         0.1531
     37 H8          2.4324   -1.4419    5.2265 H         1 <0>         0.4029
     38 H9         -4.6900   -3.9285    5.5922 H         1 <0>         0.1546
     39 H10         0.0839   -6.8880    7.1597 H         1 <0>         0.0853
     40 H11         0.8719   -5.4618    6.4432 H         1 <0>         0.1055
     41 H12         0.4689   -4.2176    8.7034 H         1 <0>         0.1067
     42 H13         1.4812   -7.9765    8.8496 H         1 <0>         0.0631
     43 H14         0.3315   -8.1130   10.2015 H         1 <0>         0.0599
     44 H15        -0.2652   -7.8015    8.5537 H         1 <0>         0.0752
     45 H16         0.1079   -5.4508   11.4532 H         1 <0>         0.0656
     46 H17         1.6519   -6.3328   11.3735 H         1 <0>         0.0627
     47 H18         1.5496   -4.6614   10.7701 H         1 <0>         0.0610
     48 H19        -2.2000   -7.9412    7.0856 H         1 <0>         0.3846
     49 H20        -4.9960   -6.8412    6.1655 H         1 <0>         0.3980
     50 H21        -0.9542    0.5294    1.0705 H         1 <0>         0.4008
     51 H22         2.3406    0.0066   -1.9457 H         1 <0>         0.0626
     52 H23         3.3928   -1.1270   -1.0647 H         1 <0>         0.0654
     53 H24         1.6529   -1.4675   -1.2230 H         1 <0>         0.0648
@<TRIPOS>BOND
     1    1    2 1
     2    1   30 1
     3    1   31 1
     4    1   32 1
     5    2    3 2
     6    2   29 1
     7    3    4 1
     8    3   33 1
     9    4    5 1
    10    4   34 1
    11    4   35 1
    12    5   10 ar
    13    5    6 ar
    14    6    7 ar
    15    6   28 1
    16    7    8 ar
    17    7   36 1
    18    8   16 1
    19    8    9 ar
    20    9   10 ar
    21    9   12 1
    22   10   11 1
    23   11   37 1
    24   12   13 2
    25   12   14 1
    26   14   20 ar
    27   14   15 ar
    28   15   16 1
    29   15   17 ar
    30   17   18 ar
    31   17   38 1
    32   18   19 ar
    33   18   27 1
    34   19   20 ar
    35   19   26 1
    36   20   21 1
    37   21   22 1
    38   21   39 1
    39   21   40 1
    40   22   23 2
    41   22   41 1
    42   23   24 1
    43   23   25 1
    44   24   42 1
    45   24   43 1
    46   24   44 1
    47   25   45 1
    48   25   46 1
    49   25   47 1
    50   26   48 1
    51   27   49 1
    52   28   50 1
    53   29   51 1
    54   29   52 1
    55   29   53 1
@<TRIPOS>MOLECULE
ZINC05195818
   52    54     0     0     0
SMALL
USER_CHARGES

@<TRIPOS>ATOM
      1 C1         -0.8001    1.0338   -0.2881 C.3       1 <0>        -0.1180
      2 C2         -0.7065   -0.4686   -0.2173 C.2       1 <0>        -0.1428
      3 C3         -0.4244   -1.0545    0.9199 C.2       1 <0>        -0.1489
      4 C4         -0.3109   -0.2370    2.1808 C.3       1 <0>        -0.0380
      5 C5         -1.2269   -0.8070    3.2330 C.ar      1 <0>        -0.1827
      6 C6         -2.5400   -0.3554    3.3283 C.ar      1 <0>         0.1872
      7 C7         -3.3964   -0.8690    4.2905 C.ar      1 <0>        -0.1952
      8 C8         -2.9518   -1.8420    5.1717 C.ar      1 <0>         0.1931
      9 C9         -1.6232   -2.3040    5.0804 C.ar      1 <0>        -0.2271
     10 C10        -0.7630   -1.7793    4.0956 C.ar      1 <0>         0.2240
     11 O1          0.5149   -2.2234    3.9992 O.3       1 <0>        -0.4627
     12 C11        -1.1667   -3.2971    5.9789 C.2       1 <0>         0.3783
     13 C12        -2.0694   -3.7921    6.9428 C.2       1 <0>        -0.3009
     14 C13        -1.6617   -4.7809    7.8600 C.2       1 <0>         0.0111
     15 C14        -2.5392   -5.2517    8.7862 C.2       1 <0>        -0.0211
     16 C15        -3.8597   -4.7522    8.8322 C.2       1 <0>         0.3035
     17 O2         -4.7142   -5.2184    9.7428 O.2       1 <0>        -0.6636
     18 C16        -4.2739   -3.7712    7.9274 C.2       1 <0>        -0.3005
     19 C17        -3.3888   -3.2874    6.9824 C.2       1 <0>         0.1905
     20 O3         -3.7878   -2.3391    6.1078 O.3       1 <0>        -0.2256
     21 O4         -2.1441   -6.2069    9.6709 O.3       1 <0>        -0.4831
     22 C18        -0.2541   -5.3171    7.8143 C.3       1 <0>        -0.0611
     23 C19         0.6605   -4.3928    8.5761 C.2       1 <0>        -0.0927
     24 C20         1.4378   -4.8692    9.5168 C.2       1 <0>        -0.1774
     25 C21         1.5495   -6.3583    9.7196 C.3       1 <0>        -0.1127
     26 C22         2.2204   -3.9282   10.3961 C.3       1 <0>        -0.1040
     27 O5          0.0986   -3.7587    5.9149 O.3       1 <0>        -0.5481
     28 O6         -2.9864    0.5972    2.4714 O.3       1 <0>        -0.4876
     29 C23        -0.9376   -1.2970   -1.4548 C.3       1 <0>        -0.1158
     30 H1          0.1233    1.4735    0.0889 H         1 <0>         0.0633
     31 H2         -0.9523    1.3401   -1.3230 H         1 <0>         0.0567
     32 H3         -1.6390    1.3746    0.3188 H         1 <0>         0.0710
     33 H4         -0.2730   -2.1233    0.9537 H         1 <0>         0.1095
     34 H5          0.7176   -0.2650    2.5407 H         1 <0>         0.0798
     35 H6         -0.5948    0.7944    1.9720 H         1 <0>         0.0857
     36 H7         -4.4128   -0.5094    4.3537 H         1 <0>         0.1460
     37 H8          1.1458   -1.7258    4.5372 H         1 <0>         0.3950
     38 H9         -5.2844   -3.3920    7.9659 H         1 <0>         0.1222
     39 H10        -2.8350   -6.4791   10.2904 H         1 <0>         0.3894
     40 H11        -0.2279   -6.3083    8.2669 H         1 <0>         0.0722
     41 H12         0.0765   -5.3821    6.7777 H         1 <0>         0.1135
     42 H13         0.6750   -3.3375    8.3465 H         1 <0>         0.0987
     43 H14         0.9966   -6.8744    8.9347 H         1 <0>         0.0705
     44 H15         2.5982   -6.6529    9.6791 H         1 <0>         0.0509
     45 H16         1.1345   -6.6248   10.6916 H         1 <0>         0.0553
     46 H17         1.6252   -3.6697   11.2719 H         1 <0>         0.0576
     47 H18         3.1440   -4.4118   10.7143 H         1 <0>         0.0516
     48 H19         2.4580   -3.0225    9.8381 H         1 <0>         0.0539
     49 H20        -3.3730    0.2446    1.6582 H         1 <0>         0.3942
     50 H21        -1.1580   -0.6399   -2.2961 H         1 <0>         0.0591
     51 H22        -0.0432   -1.8802   -1.6739 H         1 <0>         0.0626
     52 H23        -1.7788   -1.9702   -1.2895 H         1 <0>         0.0635
@<TRIPOS>BOND
     1    1    2 1
     2    1   30 1
     3    1   31 1
     4    1   32 1
     5    2    3 2
     6    2   29 1
     7    3    4 1
     8    3   33 1
     9    4    5 1
    10    4   34 1
    11    4   35 1
    12    5   10 ar
    13    5    6 ar
    14    6    7 ar
    15    6   28 1
    16    7    8 ar
    17    7   36 1
    18    8   20 1
    19    8    9 ar
    20    9   10 ar
    21    9   12 1
    22   10   11 1
    23   11   37 1
    24   12   13 2
    25   12   27 1
    26   13   19 1
    27   13   14 1
    28   14   15 2
    29   14   22 1
    30   15   16 1
    31   15   21 1
    32   16   17 2
    33   16   18 1
    34   18   19 2
    35   18   38 1
    36   19   20 1
    37   21   39 1
    38   22   23 1
    39   22   40 1
    40   22   41 1
    41   23   24 2
    42   23   42 1
    43   24   25 1
    44   24   26 1
    45   25   43 1
    46   25   44 1
    47   25   45 1
    48   26   46 1
    49   26   47 1
    50   26   48 1
    51   28   49 1
    52   29   50 1
    53   29   51 1
    54   29   52 1
@<TRIPOS>MOLECULE
ZINC05430812
   56    58     0     0     0
SMALL
USER_CHARGES

@<TRIPOS>ATOM
      1 C1         -0.1716    1.4909    0.0169 C.3       1 <0>        -0.1226
      2 C2         -0.0710   -0.0127    0.0071 C.2       1 <0>        -0.1279
      3 C3          0.1206   -0.6637    1.1276 C.2       1 <0>        -0.1623
      4 C4          0.1232    0.0784    2.4392 C.3       1 <0>        -0.0426
      5 C5         -0.8640   -0.5621    3.3807 C.ar      1 <0>        -0.1608
      6 C6         -2.1862   -0.1320    3.3999 C.ar      1 <0>         0.1967
      7 C7         -3.1061   -0.7076    4.2624 C.ar      1 <0>        -0.1812
      8 C8         -2.7173   -1.7274    5.1200 C.ar      1 <0>         0.1863
      9 C9         -1.3828   -2.1686    5.0932 C.ar      1 <0>        -0.2628
     10 C10        -0.4565   -1.5815    4.2215 C.ar      1 <0>         0.2209
     11 O1          0.8319   -2.0064    4.2059 O.3       1 <0>        -0.4717
     12 C11        -0.9877   -3.2676    5.9925 C.2       1 <0>         0.4418
     13 O2          0.1800   -3.5529    6.1898 O.2       1 <0>        -0.4213
     14 C12        -2.0942   -4.0017    6.6403 C.ar      1 <0>        -0.2216
     15 C13        -3.3860   -3.4536    6.5807 C.ar      1 <0>         0.1729
     16 O3         -3.6148   -2.2762    5.9633 O.3       1 <0>        -0.2206
     17 C14        -4.4378   -4.1396    7.1752 C.ar      1 <0>        -0.1673
     18 C15        -4.2074   -5.3413    7.8210 C.ar      1 <0>         0.1618
     19 C16        -2.9198   -5.8789    7.8846 C.ar      1 <0>         0.0416
     20 C17        -1.8650   -5.2121    7.2956 C.ar      1 <0>         0.0152
     21 C18        -0.4738   -5.7879    7.3594 C.3       1 <0>        -0.0611
     22 C19         0.2246   -5.2785    8.5939 C.2       1 <0>        -0.1431
     23 C20         0.7360   -6.1246    9.4533 C.2       1 <0>        -0.1263
     24 C21         0.6260   -7.6074    9.2075 C.3       1 <0>        -0.1213
     25 C22         1.4344   -5.6152   10.6878 C.3       1 <0>        -0.1161
     26 O4         -2.7058   -7.0591    8.5266 O.3       1 <0>        -0.3115
     27 C23        -2.8128   -8.2511    7.7457 C.3       1 <0>         0.0270
     28 O5         -5.2424   -6.0039    8.3988 O.3       1 <0>        -0.4773
     29 O6         -2.5804    0.8628    2.5651 O.3       1 <0>        -0.4836
     30 C24        -0.1908   -0.7674   -1.2918 C.3       1 <0>        -0.1196
     31 H1          0.7134    1.9111    0.4947 H         1 <0>         0.0659
     32 H2         -0.2400    1.8572   -1.0074 H         1 <0>         0.0609
     33 H3         -1.0610    1.7919    0.5705 H         1 <0>         0.0718
     34 H4          0.2767   -1.7323    1.1114 H         1 <0>         0.1096
     35 H5          1.1206    0.0392    2.8769 H         1 <0>         0.0834
     36 H6         -0.1585    1.1176    2.2692 H         1 <0>         0.0911
     37 H7         -4.1290   -0.3611    4.2673 H         1 <0>         0.1531
     38 H8          1.4088   -1.5356    4.8229 H         1 <0>         0.4030
     39 H9         -5.4378   -3.7339    7.1329 H         1 <0>         0.1555
     40 H10        -0.5322   -6.8756    7.3978 H         1 <0>         0.0833
     41 H11         0.0857   -5.4850    6.4744 H         1 <0>         0.1055
     42 H12         0.3034   -4.2159    8.7700 H         1 <0>         0.1070
     43 H13         1.1178   -7.8573    8.2674 H         1 <0>         0.0624
     44 H14         1.1061   -8.1475   10.0235 H         1 <0>         0.0590
     45 H15        -0.4254   -7.8898    9.1538 H         1 <0>         0.0729
     46 H16         0.7118   -5.5112   11.4972 H         1 <0>         0.0663
     47 H17         2.2113   -6.3205   10.9828 H         1 <0>         0.0623
     48 H18         1.8851   -4.6456   10.4762 H         1 <0>         0.0608
     49 H19        -3.8170   -8.3229    7.3280 H         1 <0>         0.0451
     50 H20        -2.0837   -8.2218    6.9360 H         1 <0>         0.0484
     51 H21        -2.6194   -9.1180    8.3776 H         1 <0>         0.1002
     52 H22        -5.6863   -6.6297    7.8103 H         1 <0>         0.3971
     53 H23        -2.8982    0.5527    1.7061 H         1 <0>         0.4013
     54 H24        -0.3461   -0.0626   -2.1086 H         1 <0>         0.0626
     55 H25         0.7239   -1.3331   -1.4690 H         1 <0>         0.0653
     56 H26        -1.0369   -1.4525   -1.2373 H         1 <0>         0.0647
@<TRIPOS>BOND
     1    1    2 1
     2    1   31 1
     3    1   32 1
     4    1   33 1
     5    2    3 2
     6    2   30 1
     7    3    4 1
     8    3   34 1
     9    4    5 1
    10    4   35 1
    11    4   36 1
    12    5   10 ar
    13    5    6 ar
    14    6    7 ar
    15    6   29 1
    16    7    8 ar
    17    7   37 1
    18    8   16 1
    19    8    9 ar
    20    9   10 ar
    21    9   12 1
    22   10   11 1
    23   11   38 1
    24   12   13 2
    25   12   14 1
    26   14   20 ar
    27   14   15 ar
    28   15   16 1
    29   15   17 ar
    30   17   18 ar
    31   17   39 1
    32   18   19 ar
    33   18   28 1
    34   19   20 ar
    35   19   26 1
    36   20   21 1
    37   21   22 1
    38   21   40 1
    39   21   41 1
    40   22   23 2
    41   22   42 1
    42   23   24 1
    43   23   25 1
    44   24   43 1
    45   24   44 1
    46   24   45 1
    47   25   46 1
    48   25   47 1
    49   25   48 1
    50   26   27 1
    51   27   49 1
    52   27   50 1
    53   27   51 1
    54   28   52 1
    55   29   53 1
    56   30   54 1
    57   30   55 1
    58   30   56 1
@<TRIPOS>MOLECULE
ZINC05430812
   55    57     0     0     0
SMALL
USER_CHARGES

@<TRIPOS>ATOM
      1 C1         -0.8510    2.1659    0.2391 C.3       1 <0>        -0.1183
      2 C2         -0.1716    0.8232    0.1586 C.2       1 <0>        -0.1427
      3 C3          0.1514    0.1856    1.2565 C.2       1 <0>        -0.1488
      4 C4         -0.2428    0.7478    2.5980 C.3       1 <0>        -0.0384
      5 C5         -1.0453   -0.2778    3.3563 C.ar      1 <0>        -0.1820
      6 C6         -2.4298   -0.3155    3.2190 C.ar      1 <0>         0.1874
      7 C7         -3.1836   -1.2526    3.9095 C.ar      1 <0>        -0.1950
      8 C8         -2.5634   -2.1659    4.7475 C.ar      1 <0>         0.1936
      9 C9         -1.1615   -2.1333    4.8907 C.ar      1 <0>        -0.2270
     10 C10        -0.4046   -1.1805    4.1805 C.ar      1 <0>         0.2239
     11 O1          0.9451   -1.1473    4.3100 O.3       1 <0>        -0.4627
     12 C11        -0.5258   -3.0644    5.7457 C.2       1 <0>         0.3796
     13 C12        -1.3292   -4.0001    6.4300 C.2       1 <0>        -0.3196
     14 C13        -0.7429   -4.9469    7.2931 C.2       1 <0>         0.0475
     15 C14        -1.5258   -5.8448    7.9490 C.2       1 <0>        -0.0640
     16 C15        -2.9266   -5.8317    7.7678 C.2       1 <0>         0.3280
     17 O2         -3.6876   -6.7149    8.4141 O.2       1 <0>        -0.6453
     18 C16        -3.5180   -4.8966    6.9144 C.2       1 <0>        -0.3028
     19 C17        -2.7299   -3.9806    6.2434 C.2       1 <0>         0.2005
     20 O3         -3.3003   -3.0762    5.4187 O.3       1 <0>        -0.2269
     21 O4         -0.9581   -6.7587    8.7818 O.3       1 <0>        -0.3135
     22 C18        -1.0509   -8.1320    8.3978 C.3       1 <0>         0.0309
     23 C19         0.7512   -4.9649    7.4891 C.3       1 <0>        -0.0625
     24 C20         1.1359   -3.9297    8.5145 C.2       1 <0>        -0.1004
     25 C21         1.7524   -4.2925    9.6120 C.2       1 <0>        -0.1689
     26 C22         1.9983   -5.7529    9.8906 C.3       1 <0>        -0.1179
     27 C23         2.2156   -3.2493   10.5959 C.3       1 <0>        -0.1056
     28 O5          0.8135   -3.0575    5.9019 O.3       1 <0>        -0.5491
     29 O6         -3.0481    0.5738    2.4019 O.3       1 <0>        -0.4874
     30 C24         0.1364    0.2138   -1.1849 C.3       1 <0>        -0.1158
     31 H1         -0.2504    2.8410    0.8486 H         1 <0>         0.0635
     32 H2         -0.9579    2.5797   -0.7637 H         1 <0>         0.0566
     33 H3         -1.8361    2.0481    0.6904 H         1 <0>         0.0714
     34 H4          0.7000   -0.7429    1.2002 H         1 <0>         0.1095
     35 H5          0.6540    0.9989    3.1644 H         1 <0>         0.0797
     36 H6         -0.8442    1.6453    2.4533 H         1 <0>         0.0858
     37 H7         -4.2573   -1.2707    3.7941 H         1 <0>         0.1462
     38 H8          1.2577   -0.5756    5.0245 H         1 <0>         0.3950
     39 H9         -4.5894   -4.8900    6.7786 H         1 <0>         0.1220
     40 H10        -0.4964   -8.2889    7.4726 H         1 <0>         0.0274
     41 H11        -0.6301   -8.7585    9.1843 H         1 <0>         0.0750
     42 H12        -2.0971   -8.3963    8.2436 H         1 <0>         0.0573
     43 H13         1.0605   -5.9513    7.8348 H         1 <0>         0.0683
     44 H14         1.2444   -4.7402    6.5433 H         1 <0>         0.1148
     45 H15         0.9033   -2.8888    8.3446 H         1 <0>         0.1011
     46 H16         2.9186   -6.0668    9.3981 H         1 <0>         0.0518
     47 H17         2.0906   -5.9072   10.9656 H         1 <0>         0.0488
     48 H18         1.1635   -6.3411    9.5095 H         1 <0>         0.0846
     49 H19         1.3575   -2.6792   10.9520 H         1 <0>         0.0561
     50 H20         2.7034   -3.7370   11.4399 H         1 <0>         0.0532
     51 H21         2.9211   -2.5770   10.1075 H         1 <0>         0.0558
     52 H22        -3.1450    0.2681    1.4896 H         1 <0>         0.3941
     53 H23        -0.2031    0.8843   -1.9744 H         1 <0>         0.0591
     54 H24         1.2116    0.0601   -1.2762 H         1 <0>         0.0627
     55 H25        -0.3766   -0.7436   -1.2758 H         1 <0>         0.0635
@<TRIPOS>BOND
     1    1    2 1
     2    1   31 1
     3    1   32 1
     4    1   33 1
     5    2    3 2
     6    2   30 1
     7    3    4 1
     8    3   34 1
     9    4    5 1
    10    4   35 1
    11    4   36 1
    12    5   10 ar
    13    5    6 ar
    14    6    7 ar
    15    6   29 1
    16    7    8 ar
    17    7   37 1
    18    8   20 1
    19    8    9 ar
    20    9   10 ar
    21    9   12 1
    22   10   11 1
    23   11   38 1
    24   12   13 2
    25   12   28 1
    26   13   19 1
    27   13   14 1
    28   14   15 2
    29   14   23 1
    30   15   16 1
    31   15   21 1
    32   16   17 2
    33   16   18 1
    34   18   19 2
    35   18   39 1
    36   19   20 1
    37   21   22 1
    38   22   40 1
    39   22   41 1
    40   22   42 1
    41   23   24 1
    42   23   43 1
    43   23   44 1
    44   24   25 2
    45   24   45 1
    46   25   26 1
    47   25   27 1
    48   26   46 1
    49   26   47 1
    50   26   48 1
    51   27   49 1
    52   27   50 1
    53   27   51 1
    54   29   52 1
    55   30   53 1
    56   30   54 1
    57   30   55 1
@<TRIPOS>MOLECULE
ZINC13411981
   56    58     0     0     0
SMALL
USER_CHARGES
5-(1,1-dimethylprop-2-enyl)-2,3,8-trihydroxy-6-methoxy-1-(3-methylbut-2-enyl)xanthen-9-one
@<TRIPOS>ATOM
      1 C1         -3.9072   -0.3527    0.9716 C.3       1 <0>        -0.1263
      2 C2         -2.8458   -0.9036    1.8886 C.2       1 <0>        -0.1355
      3 C3         -1.6472   -1.1575    1.4250 C.2       1 <0>        -0.1429
      4 C4         -1.2994   -0.8048    0.0017 C.3       1 <0>        -0.0713
      5 C5         -0.0607    0.0534   -0.0148 C.ar      1 <0>         0.0105
      6 C6          1.2039   -0.5386    0.0265 C.ar      1 <0>        -0.2230
      7 C7          2.3617    0.2549    0.0109 C.ar      1 <0>         0.1744
      8 C8          2.2349    1.6375   -0.0465 C.ar      1 <0>        -0.1670
      9 C9          0.9806    2.2193   -0.0867 C.ar      1 <0>         0.1566
     10 C10        -0.1701    1.4270   -0.0711 C.ar      1 <0>         0.0489
     11 O1         -1.3983    2.0103   -0.1172 O.3       1 <0>        -0.4746
     12 O2          0.8668    3.5713   -0.1428 O.3       1 <0>        -0.4789
     13 O3          3.5889   -0.3052    0.0504 O.3       1 <0>        -0.2105
     14 C11         3.7980   -1.6365    0.1074 C.ar      1 <0>         0.2245
     15 C12         2.7199   -2.5383    0.1284 C.ar      1 <0>        -0.2962
     16 C13         1.3476   -2.0063    0.0876 C.2       1 <0>         0.4417
     17 O4          0.3772   -2.7423    0.1039 O.2       1 <0>        -0.4280
     18 C14         2.9528   -3.9193    0.1878 C.ar      1 <0>         0.2416
     19 C15         4.2520   -4.3912    0.2252 C.ar      1 <0>        -0.2689
     20 C16         5.3174   -3.4985    0.2039 C.ar      1 <0>         0.2111
     21 C17         5.0936   -2.1313    0.1457 C.ar      1 <0>        -0.1498
     22 C18         6.2619   -1.1796    0.1244 C.3       1 <0>         0.0202
     23 C19         7.5666   -1.9752    0.0491 C.3       1 <0>        -0.1332
     24 C20         6.1516   -0.2640   -1.0964 C.3       1 <0>        -0.1424
     25 C21         6.2536   -0.3460    1.3799 C.2       1 <0>        -0.1363
     26 C22         5.3150   -0.5218    2.2766 C.2       1 <0>        -0.1916
     27 O5          6.5896   -3.9699    0.2409 O.3       1 <0>        -0.2771
     28 C23         6.7544   -5.3881    0.3003 C.3       1 <0>         0.0011
     29 O6          1.9102   -4.7872    0.2078 O.3       1 <0>        -0.4743
     30 C24        -3.1633   -1.1625    3.3388 C.3       1 <0>        -0.1164
     31 H1         -4.3924   -1.1732    0.4430 H         1 <0>         0.0677
     32 H2         -4.6483    0.1901    1.5584 H         1 <0>         0.0604
     33 H3         -3.4488    0.3236    0.2501 H         1 <0>         0.0737
     34 H4         -0.9082   -1.6196    2.0628 H         1 <0>         0.1062
     35 H5         -2.1268   -0.2572   -0.4494 H         1 <0>         0.0934
     36 H6         -1.1163   -1.7179   -0.5646 H         1 <0>         0.1120
     37 H7          3.1178    2.2594   -0.0590 H         1 <0>         0.1540
     38 H8         -1.7699    2.2139    0.7520 H         1 <0>         0.3866
     39 H9          0.8213    3.9984    0.7236 H         1 <0>         0.3979
     40 H10         4.4392   -5.4539    0.2713 H         1 <0>         0.1492
     41 H11         7.5726   -2.5781   -0.8589 H         1 <0>         0.0670
     42 H12         8.4115   -1.2868    0.0337 H         1 <0>         0.0564
     43 H13         7.6451   -2.6274    0.9189 H         1 <0>         0.0783
     44 H14         5.2221    0.3028   -1.0427 H         1 <0>         0.0676
     45 H15         6.9966    0.4244   -1.1118 H         1 <0>         0.0629
     46 H16         6.1576   -0.8669   -2.0045 H         1 <0>         0.0568
     47 H17         7.0214    0.3963    1.5403 H         1 <0>         0.1157
     48 H18         4.5471   -1.2641    2.1163 H         1 <0>         0.0911
     49 H19         5.3090    0.0756    3.1764 H         1 <0>         0.0971
     50 H20         6.2734   -5.7724    1.1997 H         1 <0>         0.0608
     51 H21         6.2986   -5.8440   -0.5786 H         1 <0>         0.0604
     52 H22         7.8170   -5.6296    0.3251 H         1 <0>         0.1063
     53 H23         1.6207   -5.0746   -0.6689 H         1 <0>         0.4029
     54 H24        -2.9464   -0.2685    3.9235 H         1 <0>         0.0655
     55 H25        -4.2186   -1.4157    3.4402 H         1 <0>         0.0625
     56 H26        -2.5545   -1.9906    3.7018 H         1 <0>         0.0609
@<TRIPOS>BOND
     1    1    2 1
     2    1   31 1
     3    1   32 1
     4    1   33 1
     5    2    3 2
     6    2   30 1
     7    3    4 1
     8    3   34 1
     9    4    5 1
    10    4   35 1
    11    4   36 1
    12    5   10 ar
    13    5    6 ar
    14    6   16 1
    15    6    7 ar
    16    7    8 ar
    17    7   13 1
    18    8    9 ar
    19    8   37 1
    20    9   10 ar
    21    9   12 1
    22   10   11 1
    23   11   38 1
    24   12   39 1
    25   13   14 1
    26   14   21 ar
    27   14   15 ar
    28   15   16 1
    29   15   18 ar
    30   16   17 2
    31   18   19 ar
    32   18   29 1
    33   19   20 ar
    34   19   40 1
    35   20   21 ar
    36   20   27 1
    37   21   22 1
    38   22   23 1
    39   22   24 1
    40   22   25 1
    41   23   41 1
    42   23   42 1
    43   23   43 1
    44   24   44 1
    45   24   45 1
    46   24   46 1
    47   25   26 2
    48   25   47 1
    49   26   48 1
    50   26   49 1
    51   27   28 1
    52   28   50 1
    53   28   51 1
    54   28   52 1
    55   29   53 1
    56   30   54 1
    57   30   55 1
    58   30   56 1
@<TRIPOS>MOLECULE
ZINC04098607
   48    51     0     0     0
SMALL
USER_CHARGES
methoxy-(3-methylbut-2-enyl)BLAHdiol
@<TRIPOS>ATOM
      1 C1          4.8899   -6.5900   -4.1821 C.3       1 <0>        -0.1205
      2 C2          5.0807   -6.0975   -2.7706 C.2       1 <0>        -0.1263
      3 C3          4.2681   -5.1971   -2.2756 C.2       1 <0>        -0.1584
      4 C4          3.1425   -4.6537   -3.1176 C.3       1 <0>        -0.0360
      5 C5          1.8358   -4.8405   -2.3905 C.ar      1 <0>        -0.1231
      6 C6          1.0760   -5.9947   -2.5516 C.ar      1 <0>         0.1768
      7 C7         -0.1263   -6.1771   -1.8896 C.ar      1 <0>        -0.2418
      8 C8         -0.6276   -5.2100   -1.0260 C.ar      1 <0>        -0.0133
      9 C9          0.1245   -4.0668   -0.8619 C.ar      1 <0>        -0.2493
     10 C10         1.3388   -3.8638   -1.5286 C.ar      1 <0>         0.1566
     11 O1          1.8787   -2.6674   -1.2125 O.3       1 <0>        -0.2771
     12 C11         1.2713   -2.1882    0.0012 C.3       1 <0>         0.1472
     13 H1          1.8458   -2.5294    0.8624 H         1 <0>         0.1133
     14 C12        -0.1176   -2.8504   -0.0042 C.3       1 <0>         0.1291
     15 C13        -1.1414   -1.9466   -0.6895 C.3       1 <0>         0.0444
     16 O2         -1.1754   -0.6863   -0.0133 O.3       1 <0>        -0.2990
     17 C14         0.0021   -0.0041    0.0020 C.ar      1 <0>         0.1566
     18 C15         1.2045   -0.6919   -0.0048 C.ar      1 <0>        -0.1701
     19 C16         2.3932    0.0258   -0.0148 C.ar      1 <0>        -0.0431
     20 C17         2.3801    1.4051   -0.0119 C.ar      1 <0>        -0.1724
     21 C18         1.1743    2.0914    0.0021 C.ar      1 <0>         0.1530
     22 C19        -0.0167    1.3820    0.0096 C.ar      1 <0>        -0.1744
     23 O3          1.1609    3.4503    0.0078 O.3       1 <0>        -0.4940
     24 O4         -0.5266   -3.2151    1.3156 O.3       1 <0>        -0.5280
     25 O5          1.5264   -6.9708   -3.3829 O.3       1 <0>        -0.3067
     26 C20         0.7111   -8.1368   -3.5162 C.3       1 <0>         0.0245
     27 C21         6.2062   -6.6409   -1.9286 C.3       1 <0>        -0.1172
     28 H2          4.9730   -5.7516   -4.8737 H         1 <0>         0.0639
     29 H3          5.6551   -7.3304   -4.4150 H         1 <0>         0.0572
     30 H4          3.9037   -7.0440   -4.2783 H         1 <0>         0.0744
     31 H5          4.4048   -4.8442   -1.2641 H         1 <0>         0.1051
     32 H6          3.1092   -5.1872   -4.0676 H         1 <0>         0.0875
     33 H7          3.3069   -3.5922   -3.3026 H         1 <0>         0.0813
     34 H8         -0.6850   -7.0879   -2.0469 H         1 <0>         0.1346
     35 H9         -1.5647   -5.3482   -0.5072 H         1 <0>         0.1369
     36 H10        -0.8552   -1.7947   -1.7302 H         1 <0>         0.0816
     37 H11        -2.1263   -2.4114   -0.6446 H         1 <0>         0.1203
     38 H12         3.3362   -0.5005   -0.0254 H         1 <0>         0.1360
     39 H13         3.3111    1.9524   -0.0205 H         1 <0>         0.1370
     40 H14        -0.9593    1.9093    0.0170 H         1 <0>         0.1426
     41 H15         1.1648    3.8399    0.8929 H         1 <0>         0.3978
     42 H16        -1.3965   -3.6354    1.3557 H         1 <0>         0.3860
     43 H17        -0.2684   -7.8532   -3.9012 H         1 <0>         0.0581
     44 H18         1.1848   -8.8345   -4.2068 H         1 <0>         0.1031
     45 H19         0.5949   -8.6122   -2.5422 H         1 <0>         0.0581
     46 H20         5.8602   -7.5180   -1.3819 H         1 <0>         0.0650
     47 H21         7.0400   -6.9199   -2.5729 H         1 <0>         0.0622
     48 H22         6.5326   -5.8777   -1.2221 H         1 <0>         0.0607
@<TRIPOS>BOND
     1    1    2 1
     2    1   28 1
     3    1   29 1
     4    1   30 1
     5    2    3 2
     6    2   27 1
     7    3    4 1
     8    3   31 1
     9    4    5 1
    10    4   32 1
    11    4   33 1
    12    5   10 ar
    13    5    6 ar
    14    6    7 ar
    15    6   25 1
    16    7    8 ar
    17    7   34 1
    18    8    9 ar
    19    8   35 1
    20    9   14 1
    21    9   10 ar
    22   10   11 1
    23   11   12 1
    24   12   13 1
    25   12   18 1
    26   12   14 1
    27   14   15 1
    28   14   24 1
    29   15   16 1
    30   15   36 1
    31   15   37 1
    32   16   17 1
    33   17   22 ar
    34   17   18 ar
    35   18   19 ar
    36   19   20 ar
    37   19   38 1
    38   20   21 ar
    39   20   39 1
    40   21   22 ar
    41   21   23 1
    42   22   40 1
    43   23   41 1
    44   24   42 1
    45   25   26 1
    46   26   43 1
    47   26   44 1
    48   26   45 1
    49   27   46 1
    50   27   47 1
    51   27   48 1
@<TRIPOS>MOLECULE
ZINC02570158
   57    60     0     0     0
SMALL
USER_CHARGES
(6aR,11aR)-2,10-bis(3-methylbut-2-enyl)-6a,11a-dihydro-6H-chromeno[4,3-b]benzofuran-3,9-diol
@<TRIPOS>ATOM
      1 C1          2.2718    7.3599   -2.3897 C.3       1 <0>        -0.1213
      2 C2          3.2024    6.6008   -3.3001 C.2       1 <0>        -0.1321
      3 C3          2.7478    6.0748   -4.4104 C.2       1 <0>        -0.1551
      4 C4          1.2713    6.1075   -4.7104 C.3       1 <0>        -0.0437
      5 C5          0.7770    4.7049   -4.9543 C.ar      1 <0>        -0.1272
      6 C6          0.1245    4.0213   -3.9498 C.ar      1 <0>        -0.0411
      7 C7         -0.3548    2.7395   -4.1517 C.ar      1 <0>        -0.1670
      8 C8         -0.1296    2.1303   -5.3912 C.ar      1 <0>         0.1501
      9 C9          0.5245    2.8134   -6.4047 C.ar      1 <0>        -0.1728
     10 C10         0.9802    4.1046   -6.1887 C.ar      1 <0>         0.1558
     11 O1          1.6220    4.7780   -7.1793 O.3       1 <0>        -0.4888
     12 O2         -0.5649    0.8610   -5.6169 O.3       1 <0>        -0.3059
     13 C11        -0.5852    0.0074   -4.4695 C.3       1 <0>         0.0741
     14 C12        -1.5105    0.6127   -3.4144 C.3       1 <0>        -0.1047
     15 H1         -2.5532    0.6057   -3.7321 H         1 <0>         0.1150
     16 C13        -1.0581    2.0366   -3.0319 C.3       1 <0>         0.1364
     17 H2         -1.9110    2.6267   -2.6967 H         1 <0>         0.1030
     18 O3         -0.1553    1.8142   -1.9331 O.3       1 <0>        -0.2820
     19 C14        -0.5110    0.6756   -1.3006 C.ar      1 <0>         0.1323
     20 C15        -1.3239   -0.1250   -2.1122 C.ar      1 <0>        -0.1868
     21 C16        -1.8164   -1.3426   -1.6949 C.ar      1 <0>        -0.0453
     22 C17        -1.4684   -1.7591   -0.4151 C.ar      1 <0>        -0.1765
     23 C18        -0.6631   -0.9810    0.3991 C.ar      1 <0>         0.1461
     24 C19        -0.1641    0.2483   -0.0198 C.ar      1 <0>        -0.1190
     25 C20         0.7104    1.0865    0.8767 C.3       1 <0>        -0.0369
     26 C21         2.1552    0.7202    0.6543 C.2       1 <0>        -0.1608
     27 C22         3.0063    1.6292    0.2476 C.2       1 <0>        -0.1242
     28 C23         4.4703    1.2917    0.1297 C.3       1 <0>        -0.1175
     29 C24         2.5214    3.0124   -0.1025 C.3       1 <0>        -0.1203
     30 O4         -0.3515   -1.4306    1.6430 O.3       1 <0>        -0.4923
     31 C25         4.6559    6.4468   -2.9333 C.3       1 <0>        -0.1173
     32 H3          1.7557    6.6602   -1.7323 H         1 <0>         0.0655
     33 H4          2.8461    8.0658   -1.7898 H         1 <0>         0.0621
     34 H5          1.5404    7.9027   -2.9885 H         1 <0>         0.0651
     35 H6          3.4311    5.6177   -5.1108 H         1 <0>         0.1110
     36 H7          1.0943    6.7146   -5.5982 H         1 <0>         0.0788
     37 H8          0.7378    6.5385   -3.8632 H         1 <0>         0.0802
     38 H9         -0.0293    4.4959   -2.9919 H         1 <0>         0.1298
     39 H10         0.6795    2.3394   -7.3627 H         1 <0>         0.1415
     40 H11         1.0347    5.2931   -7.7492 H         1 <0>         0.3942
     41 H12         0.4223   -0.0815   -4.0632 H         1 <0>         0.0699
     42 H13        -0.9521   -0.9790   -4.7535 H         1 <0>         0.1178
     43 H14        -2.4448   -1.9459   -2.3333 H         1 <0>         0.1394
     44 H15        -1.8334   -2.7073   -0.0489 H         1 <0>         0.1331
     45 H16         0.4452    0.9029    1.9179 H         1 <0>         0.0815
     46 H17         0.5632    2.1413    0.6449 H         1 <0>         0.0817
     47 H18         2.4880   -0.2928    0.8260 H         1 <0>         0.1086
     48 H19         4.6763    0.9126   -0.8713 H         1 <0>         0.0643
     49 H20         5.0652    2.1873    0.3087 H         1 <0>         0.0629
     50 H21         4.7282    0.5309    0.8665 H         1 <0>         0.0617
     51 H22         2.1227    3.4944    0.7902 H         1 <0>         0.0624
     52 H23         3.3519    3.6006   -0.4928 H         1 <0>         0.0578
     53 H24         1.7388    2.9427   -0.8580 H         1 <0>         0.0748
     54 H25        -0.9781   -1.1592    2.3278 H         1 <0>         0.3924
     55 H26         5.2251    7.2795   -3.3465 H         1 <0>         0.0650
     56 H27         4.7580    6.4399   -1.8481 H         1 <0>         0.0630
     57 H28         5.0359    5.5096   -3.3399 H         1 <0>         0.0614
@<TRIPOS>BOND
     1    1    2 1
     2    1   32 1
     3    1   33 1
     4    1   34 1
     5    2    3 2
     6    2   31 1
     7    3    4 1
     8    3   35 1
     9    4    5 1
    10    4   36 1
    11    4   37 1
    12    5   10 ar
    13    5    6 ar
    14    6    7 ar
    15    6   38 1
    16    7   16 1
    17    7    8 ar
    18    8    9 ar
    19    8   12 1
    20    9   10 ar
    21    9   39 1
    22   10   11 1
    23   11   40 1
    24   12   13 1
    25   13   14 1
    26   13   41 1
    27   13   42 1
    28   14   15 1
    29   14   20 1
    30   14   16 1
    31   16   17 1
    32   16   18 1
    33   18   19 1
    34   19   24 ar
    35   19   20 ar
    36   20   21 ar
    37   21   22 ar
    38   21   43 1
    39   22   23 ar
    40   22   44 1
    41   23   24 ar
    42   23   30 1
    43   24   25 1
    44   25   26 1
    45   25   45 1
    46   25   46 1
    47   26   27 2
    48   26   47 1
    49   27   28 1
    50   27   29 1
    51   28   48 1
    52   28   49 1
    53   28   50 1
    54   29   51 1
    55   29   52 1
    56   29   53 1
    57   30   54 1
    58   31   55 1
    59   31   56 1
    60   31   57 1
@<TRIPOS>MOLECULE
ZINC05447704
   51    54     0     0     0
SMALL
USER_CHARGES

@<TRIPOS>ATOM
      1 C1          0.2964    2.1346    0.1571 C.3       1 <0>        -0.1710
      2 C2          0.0837    0.6270    0.0062 C.3       1 <0>         0.1324
      3 C3          0.7070    0.1642   -1.2842 C.2       1 <0>        -0.1836
      4 C4          1.9839   -0.2137   -1.3086 C.2       1 <0>        -0.0847
      5 C5          2.7442   -0.1745   -0.0419 C.ar      1 <0>        -0.1891
      6 C6          4.1354   -0.2204   -0.0306 C.ar      1 <0>         0.2435
      7 C7          4.8071   -0.1840    1.1973 C.ar      1 <0>        -0.2858
      8 C8          6.2790   -0.2491    1.2551 C.2       1 <0>         0.4472
      9 O1          6.9718   -0.1011    0.2644 O.2       1 <0>        -0.4344
     10 C9          6.8620   -0.5042    2.5888 C.ar      1 <0>        -0.2196
     11 C10         8.2065   -0.8475    2.7316 C.ar      1 <0>        -0.0197
     12 C11         8.7185   -1.0878    3.9759 C.ar      1 <0>        -0.1593
     13 C12         7.9038   -0.9914    5.1000 C.ar      1 <0>         0.1484
     14 C13         6.5650   -0.6464    4.9746 C.ar      1 <0>         0.0580
     15 C14         6.0289   -0.3941    3.7138 C.ar      1 <0>         0.1434
     16 O2          4.7327   -0.0417    3.5901 O.3       1 <0>        -0.1982
     17 C15         4.0905   -0.0918    2.4050 C.ar      1 <0>         0.2144
     18 C16         2.7016   -0.0479    2.3730 C.ar      1 <0>        -0.1364
     19 C17         2.0303   -0.0886    1.1662 C.ar      1 <0>         0.2153
     20 O3          0.6746   -0.0457    1.1185 O.3       1 <0>        -0.2718
     21 C18         1.9244    0.0441    3.6608 C.3       1 <0>         0.0194
     22 C19         0.4273   -0.0563    3.3613 C.3       1 <0>        -0.1349
     23 C20         2.3367   -1.1008    4.5883 C.3       1 <0>        -0.1448
     24 C21         2.2154    1.3625    4.3302 C.2       1 <0>        -0.1304
     25 C22         3.0400    2.2130    3.7710 C.2       1 <0>        -0.1952
     26 O4          5.7778   -0.5553    6.0810 O.3       1 <0>        -0.4668
     27 O5          8.4232   -1.2375    6.3308 O.3       1 <0>        -0.4786
     28 O6          4.8301   -0.2997   -1.1923 O.3       1 <0>        -0.4714
     29 C23        -1.4169    0.3298   -0.0241 C.3       1 <0>        -0.1372
     30 H1          1.3646    2.3494    0.1885 H         1 <0>         0.0593
     31 H2         -0.1534    2.6517   -0.6904 H         1 <0>         0.0766
     32 H3         -0.1703    2.4767    1.0809 H         1 <0>         0.0721
     33 H4          0.1188    0.1391   -2.1896 H         1 <0>         0.1355
     34 H5          2.4498   -0.5394   -2.2268 H         1 <0>         0.1396
     35 H6          8.8412   -0.9234    1.8611 H         1 <0>         0.1506
     36 H7          9.7594   -1.3532    4.0871 H         1 <0>         0.1488
     37 H8          0.2168   -1.0099    2.8771 H         1 <0>         0.0670
     38 H9         -0.1349    0.0102    4.2927 H         1 <0>         0.0550
     39 H10         0.1335    0.7593    2.7005 H         1 <0>         0.0769
     40 H11         3.4033   -1.0293    4.8017 H         1 <0>         0.0742
     41 H12         1.7746   -1.0342    5.5198 H         1 <0>         0.0629
     42 H13         2.1262   -2.0544    4.1042 H         1 <0>         0.0548
     43 H14         1.7442    1.6062    5.2709 H         1 <0>         0.1161
     44 H15         3.5113    1.9693    2.8302 H         1 <0>         0.0902
     45 H16         3.2487    3.1579    4.2506 H         1 <0>         0.0973
     46 H17         5.7627    0.3247    6.4816 H         1 <0>         0.3886
     47 H18         8.7862   -0.4551    6.7681 H         1 <0>         0.3982
     48 H19         5.0611    0.5592   -1.5719 H         1 <0>         0.4043
     49 H20        -1.8732    0.8493   -0.8667 H         1 <0>         0.0814
     50 H21        -1.5726   -0.7437   -0.1316 H         1 <0>         0.0693
     51 H22        -1.8739    0.6721    0.9044 H         1 <0>         0.0719
@<TRIPOS>BOND
     1    1    2 1
     2    1   30 1
     3    1   31 1
     4    1   32 1
     5    2   20 1
     6    2    3 1
     7    2   29 1
     8    3    4 2
     9    3   33 1
    10    4    5 1
    11    4   34 1
    12    5   19 ar
    13    5    6 ar
    14    6    7 ar
    15    6   28 1
    16    7   17 ar
    17    7    8 1
    18    8    9 2
    19    8   10 1
    20   10   15 ar
    21   10   11 ar
    22   11   12 ar
    23   11   35 1
    24   12   13 ar
    25   12   36 1
    26   13   14 ar
    27   13   27 1
    28   14   15 ar
    29   14   26 1
    30   15   16 1
    31   16   17 1
    32   17   18 ar
    33   18   19 ar
    34   18   21 1
    35   19   20 1
    36   21   22 1
    37   21   23 1
    38   21   24 1
    39   22   37 1
    40   22   38 1
    41   22   39 1
    42   23   40 1
    43   23   41 1
    44   23   42 1
    45   24   25 2
    46   24   43 1
    47   25   44 1
    48   25   45 1
    49   26   46 1
    50   27   47 1
    51   28   48 1
    52   29   49 1
    53   29   50 1
    54   29   51 1
@<TRIPOS>MOLECULE
ZINC05447704
   50    53     0     0     0
SMALL
USER_CHARGES

@<TRIPOS>ATOM
      1 C1         -0.0270    1.5317    0.0294 C.3       1 <0>        -0.1342
      2 C2         -0.0048    0.0019    0.0151 C.3       1 <0>         0.1352
      3 C3         -1.4190   -0.5151   -0.0003 C.2       1 <0>        -0.2055
      4 C4         -1.6989   -1.7037    0.5316 C.2       1 <0>        -0.0668
      5 C5         -0.5905   -2.4724    1.1367 C.ar      1 <0>        -0.2179
      6 C6         -0.7137   -3.8315    1.3989 C.ar      1 <0>         0.2518
      7 C7          0.3701   -4.5208    1.9762 C.ar      1 <0>        -0.2573
      8 C8          0.2721   -5.9061    2.2497 C.2       1 <0>         0.3903
      9 C9          1.3837   -6.5533    2.8301 C.2       1 <0>        -0.3143
     10 C10         1.3363   -7.9295    3.1192 C.2       1 <0>         0.0146
     11 C11         2.4104   -8.5446    3.6793 C.2       1 <0>        -0.2725
     12 C12         3.5741   -7.8120    3.9736 C.2       1 <0>         0.2965
     13 O1          4.6230   -8.4251    4.5251 O.2       1 <0>        -0.6658
     14 C13         3.6374   -6.4409    3.6900 C.2       1 <0>        -0.0454
     15 C14         2.5488   -5.8063    3.1192 C.2       1 <0>         0.1540
     16 O2          2.6049   -4.4851    2.8421 O.3       1 <0>        -0.1960
     17 C15         1.5623   -3.8323    2.2846 C.ar      1 <0>         0.2305
     18 C16         1.6652   -2.4751    2.0135 C.ar      1 <0>        -0.1543
     19 C17         0.6043   -1.7956    1.4444 C.ar      1 <0>         0.2123
     20 O3          0.6897   -0.4697    1.1702 O.3       1 <0>        -0.2753
     21 C18         2.9388   -1.7390    2.3407 C.3       1 <0>         0.0249
     22 C19         4.1207   -2.4415    1.6695 C.3       1 <0>        -0.1429
     23 C20         2.8426   -0.3006    1.8283 C.3       1 <0>        -0.1268
     24 C21         3.1431   -1.7278    3.8338 C.2       1 <0>        -0.1388
     25 C22         2.2693   -2.3077    4.6188 C.2       1 <0>        -0.1822
     26 O4          4.7671   -5.7356    3.9754 O.3       1 <0>        -0.4820
     27 O5         -0.8540   -6.5893    1.9635 O.3       1 <0>        -0.5678
     28 O6         -1.8633   -4.4857    1.1029 O.3       1 <0>        -0.4638
     29 C23         0.7216   -0.4802   -1.2421 C.3       1 <0>        -0.1706
     30 H1          0.9952    1.9100    0.0209 H         1 <0>         0.0687
     31 H2         -0.5565    1.8956   -0.8511 H         1 <0>         0.0762
     32 H3         -0.5355    1.8793    0.9287 H         1 <0>         0.0665
     33 H4         -2.2060    0.0775   -0.4429 H         1 <0>         0.1281
     34 H5         -2.7058   -2.0942    0.5214 H         1 <0>         0.1341
     35 H6          0.4451   -8.4974    2.8961 H         1 <0>         0.1226
     36 H7          2.3702   -9.6010    3.8998 H         1 <0>         0.1158
     37 H8          3.9730   -2.4496    0.5896 H         1 <0>         0.0503
     38 H9          5.0420   -1.9091    1.9062 H         1 <0>         0.0572
     39 H10         4.1893   -3.4663    2.0346 H         1 <0>         0.0793
     40 H11         2.0006    0.1999    2.3065 H         1 <0>         0.0750
     41 H12         3.7638    0.2318    2.0650 H         1 <0>         0.0487
     42 H13         2.6949   -0.3087    0.7484 H         1 <0>         0.0611
     43 H14         4.0099   -1.2417    4.2566 H         1 <0>         0.1109
     44 H15         1.4025   -2.7938    4.1960 H         1 <0>         0.0913
     45 H16         2.4157   -2.2996    5.6888 H         1 <0>         0.0942
     46 H17         5.4721   -6.2656    4.3718 H         1 <0>         0.3915
     47 H18        -1.8849   -4.8592    0.2113 H         1 <0>         0.3973
     48 H19         1.7432   -0.1001   -1.2399 H         1 <0>         0.0688
     49 H20         0.7396   -1.5700   -1.2560 H         1 <0>         0.0610
     50 H21         0.1997   -0.1142   -2.1263 H         1 <0>         0.0714
@<TRIPOS>BOND
     1    1    2 1
     2    1   30 1
     3    1   31 1
     4    1   32 1
     5    2   20 1
     6    2    3 1
     7    2   29 1
     8    3    4 2
     9    3   33 1
    10    4    5 1
    11    4   34 1
    12    5   19 ar
    13    5    6 ar
    14    6    7 ar
    15    6   28 1
    16    7   17 ar
    17    7    8 1
    18    8    9 2
    19    8   27 1
    20    9   15 1
    21    9   10 1
    22   10   11 2
    23   10   35 1
    24   11   12 1
    25   11   36 1
    26   12   13 2
    27   12   14 1
    28   14   15 2
    29   14   26 1
    30   15   16 1
    31   16   17 1
    32   17   18 ar
    33   18   19 ar
    34   18   21 1
    35   19   20 1
    36   21   22 1
    37   21   23 1
    38   21   24 1
    39   22   37 1
    40   22   38 1
    41   22   39 1
    42   23   40 1
    43   23   41 1
    44   23   42 1
    45   24   25 2
    46   24   43 1
    47   25   44 1
    48   25   45 1
    49   26   46 1
    50   28   47 1
    51   29   48 1
    52   29   49 1
    53   29   50 1
@<TRIPOS>MOLECULE
ZINC05854400
   53    55     0     0     0
SMALL
USER_CHARGES
1,3,5,8-tetrahydroxy-2,4-bis(3-methylbut-2-enyl)xanthen-9-one
@<TRIPOS>ATOM
      1 C1         -3.5093    1.6087    5.0671 C.3       1 <0>        -0.1198
      2 C2         -3.9585    3.0185    4.7809 C.2       1 <0>        -0.1352
      3 C3         -3.0728    3.9757    4.6571 C.2       1 <0>        -0.1528
      4 C4         -1.6163    3.6936    4.9221 C.3       1 <0>        -0.0294
      5 C5         -0.7972    4.1210    3.7316 C.ar      1 <0>        -0.2015
      6 C6         -0.5483    3.2223    2.7002 C.ar      1 <0>         0.2784
      7 C7          0.2075    3.5985    1.6008 C.ar      1 <0>        -0.2487
      8 C8          0.7188    4.8857    1.5116 C.ar      1 <0>         0.2469
      9 C9          0.4639    5.7962    2.5514 C.ar      1 <0>        -0.3658
     10 C10        -0.2970    5.4081    3.6631 C.ar      1 <0>         0.3021
     11 O1         -0.5406    6.2896    4.6653 O.3       1 <0>        -0.4974
     12 C11         1.0090    7.1605    2.4508 C.2       1 <0>         0.4594
     13 O2          0.8187    7.9897    3.3225 O.2       1 <0>        -0.4559
     14 C12         1.7963    7.4750    1.2434 C.ar      1 <0>        -0.2352
     15 C13         2.3537    8.7467    1.0620 C.ar      1 <0>         0.2128
     16 C14         3.0882    9.0145   -0.0802 C.ar      1 <0>        -0.2096
     17 C15         3.2696    8.0293   -1.0364 C.ar      1 <0>        -0.0577
     18 C16         2.7238    6.7698   -0.8666 C.ar      1 <0>         0.1003
     19 C17         1.9796    6.4767    0.2754 C.ar      1 <0>         0.1107
     20 O3          1.4495    5.2460    0.4366 O.3       1 <0>        -0.2303
     21 O4          2.9131    5.8145   -1.8169 O.3       1 <0>        -0.5008
     22 O5          2.1743    9.7113    2.0004 O.3       1 <0>        -0.4769
     23 C18         0.4697    2.6082    0.4956 C.3       1 <0>        -0.0393
     24 C19         1.7410    1.8537    0.7883 C.2       1 <0>        -0.1619
     25 C20         1.7214    0.5469    0.8771 C.2       1 <0>        -0.1326
     26 C21         2.9956   -0.2087    1.1536 C.3       1 <0>        -0.1210
     27 C22         0.4246   -0.2008    0.7028 C.3       1 <0>        -0.1210
     28 O6         -1.0469    1.9620    2.7728 O.3       1 <0>        -0.4870
     29 C23        -5.4265    3.3270    4.6370 C.3       1 <0>        -0.1173
     30 H1         -4.3881    0.9508    5.1362 H         1 <0>         0.0556
     31 H2         -2.9582    1.5856    6.0188 H         1 <0>         0.0625
     32 H3         -2.8537    1.2608    4.2552 H         1 <0>         0.0759
     33 H4         -3.3922    4.9854    4.3597 H         1 <0>         0.1057
     34 H5         -1.2904    4.2531    5.8114 H         1 <0>         0.0832
     35 H6         -1.4771    2.6163    5.0953 H         1 <0>         0.0845
     36 H7         -0.1409    7.3128    4.6071 H         1 <0>         0.4480
     37 H8          3.5209    9.9932   -0.2258 H         1 <0>         0.1473
     38 H9          3.8442    8.2469   -1.9247 H         1 <0>         0.1496
     39 H10         2.4797    4.8123   -1.6833 H         1 <0>         0.4394
     40 H11         2.6137   10.7091    1.8544 H         1 <0>         0.4385
     41 H12        -0.3700    1.9006    0.4305 H         1 <0>         0.0743
     42 H13         0.5728    3.1437   -0.4597 H         1 <0>         0.0925
     43 H14         2.6854    2.4003    0.9274 H         1 <0>         0.1151
     44 H15         2.7814   -1.2870    1.1922 H         1 <0>         0.0641
     45 H16         3.4131    0.1170    2.1178 H         1 <0>         0.0668
     46 H17         3.7223   -0.0076    0.3527 H         1 <0>         0.0677
     47 H18         0.6064   -1.2803    0.8108 H         1 <0>         0.0746
     48 H19         0.0150    0.0038   -0.2974 H         1 <0>         0.0764
     49 H20        -0.2941    0.1284    1.4677 H         1 <0>         0.0567
     50 H21        -0.8535    1.2464    1.9601 H         1 <0>         0.4222
     51 H22        -5.5573    4.3997    4.4317 H         1 <0>         0.0584
     52 H23        -5.9492    3.0656    5.5689 H         1 <0>         0.0649
     53 H24        -5.8445    2.7409    3.8053 H         1 <0>         0.0623
@<TRIPOS>BOND
     1    1    2 1
     2    1   30 1
     3    1   31 1
     4    1   32 1
     5    2    3 2
     6    2   29 1
     7    3    4 1
     8    3   33 1
     9    4    5 1
    10    4   34 1
    11    4   35 1
    12    5   10 ar
    13    5    6 ar
    14    6    7 ar
    15    6   28 1
    16    7    8 ar
    17    7   23 1
    18    8   20 1
    19    8    9 ar
    20    9   10 ar
    21    9   12 1
    22   10   11 1
    23   11   36 1
    24   12   13 2
    25   12   14 1
    26   14   19 ar
    27   14   15 ar
    28   15   16 ar
    29   15   22 1
    30   16   17 ar
    31   16   37 1
    32   17   18 ar
    33   17   38 1
    34   18   19 ar
    35   18   21 1
    36   19   20 1
    37   21   39 1
    38   22   40 1
    39   23   24 1
    40   23   41 1
    41   23   42 1
    42   24   25 2
    43   24   43 1
    44   25   26 1
    45   25   27 1
    46   26   44 1
    47   26   45 1
    48   26   46 1
    49   27   47 1
    50   27   48 1
    51   27   49 1
    52   28   50 1
    53   29   51 1
    54   29   52 1
    55   29   53 1
@<TRIPOS>MOLECULE
ZINC03869685
   32    34     0     0     0
SMALL
USER_CHARGES

@<TRIPOS>ATOM
      1 C1          0.9741   -0.2755   -0.9644 C.ar      1 <0>        -0.0748
      2 C2          2.1569    0.4329   -0.9701 C.ar      1 <0>        -0.1346
      3 C3          2.3856    1.4156   -0.0177 C.ar      1 <0>         0.1032
      4 C4          1.4203    1.6918    0.9495 C.ar      1 <0>         0.0788
      5 C5          0.2328    0.9863    0.9617 C.ar      1 <0>        -0.0762
      6 C6          0.0021   -0.0041    0.0020 C.ar      1 <0>        -0.0447
      7 C7         -1.2637   -0.7605    0.0100 C.2       1 <0>         0.1350
      8 C8         -2.4363   -0.0759    0.1235 C.2       1 <0>        -0.0429
      9 C9         -3.6628   -0.7894    0.1327 C.2       1 <0>         0.4011
     10 O1         -4.7327   -0.2102    0.2323 O.2       1 <0>        -0.4484
     11 C10        -3.5946   -2.2549    0.0170 C.ar      1 <0>        -0.2690
     12 C11        -4.7561   -3.0387    0.0170 C.ar      1 <0>         0.2244
     13 C12        -4.6504   -4.4123   -0.0941 C.ar      1 <0>        -0.2081
     14 C13        -3.3994   -5.0103   -0.2044 C.ar      1 <0>         0.2000
     15 C14        -2.2463   -4.2416   -0.2047 C.ar      1 <0>        -0.1854
     16 C15        -2.3316   -2.8618   -0.0952 C.ar      1 <0>         0.1876
     17 O2         -1.2182   -2.0992   -0.1003 O.3       1 <0>        -0.1970
     18 O3         -3.3070   -6.3605   -0.3125 O.3       1 <0>        -0.4866
     19 O4         -5.9758   -2.4535    0.1257 O.3       1 <0>        -0.4726
     20 O5         -2.4312    1.2810    0.2275 O.3       1 <0>        -0.4502
     21 O6          1.6480    2.6557    1.8815 O.3       1 <0>        -0.4836
     22 O7          3.5534    2.1101   -0.0273 O.3       1 <0>        -0.4861
     23 H1          0.7971   -1.0371   -1.7094 H         1 <0>         0.1379
     24 H2          2.9075    0.2221   -1.7176 H         1 <0>         0.1421
     25 H3         -0.5155    1.1988    1.7108 H         1 <0>         0.1429
     26 H4         -5.5413   -5.0229   -0.0948 H         1 <0>         0.1515
     27 H5         -1.2805   -4.7174   -0.2903 H         1 <0>         0.1559
     28 H6         -3.3257   -6.6843   -1.2235 H         1 <0>         0.4050
     29 H7         -6.3751   -2.2160   -0.7224 H         1 <0>         0.4036
     30 H8         -3.3120    1.6729    0.3033 H         1 <0>         0.4079
     31 H9          1.3508    3.5370    1.6166 H         1 <0>         0.3905
     32 H10         3.5287    2.9137   -0.5647 H         1 <0>         0.3924
@<TRIPOS>BOND
     1    1    6 ar
     2    1    2 ar
     3    1   23 1
     4    2    3 ar
     5    2   24 1
     6    3    4 ar
     7    3   22 1
     8    4    5 ar
     9    4   21 1
    10    5    6 ar
    11    5   25 1
    12    6    7 1
    13    7   17 1
    14    7    8 2
    15    8    9 1
    16    8   20 1
    17    9   10 2
    18    9   11 1
    19   11   16 ar
    20   11   12 ar
    21   12   13 ar
    22   12   19 1
    23   13   14 ar
    24   13   26 1
    25   14   15 ar
    26   14   18 1
    27   15   16 ar
    28   15   27 1
    29   16   17 1
    30   18   28 1
    31   19   29 1
    32   20   30 1
    33   21   31 1
    34   22   32 1
@<TRIPOS>MOLECULE
ZINC03869685
   31    33     0     0     0
SMALL
USER_CHARGES

@<TRIPOS>ATOM
      1 C1          0.1390    1.1246   -0.8120 C.ar      1 <0>        -0.0626
      2 C2          1.3229    1.8301   -0.8179 C.ar      1 <0>        -0.1333
      3 C3          2.3812    1.4233   -0.0172 C.ar      1 <0>         0.0878
      4 C4          2.2522    0.2984    0.7970 C.ar      1 <0>         0.0757
      5 C5          1.0694   -0.4139    0.8086 C.ar      1 <0>        -0.0997
      6 C6          0.0021   -0.0041    0.0020 C.ar      1 <0>        -0.0194
      7 C7         -1.2620   -0.7597    0.0100 C.2       1 <0>         0.1007
      8 C8         -2.4587   -0.0763    0.1245 C.2       1 <0>        -0.0038
      9 C9         -3.6655   -0.7872    0.1324 C.2       1 <0>         0.3349
     10 C10        -3.6167   -2.1939    0.0219 C.2       1 <0>        -0.3331
     11 C11        -4.8018   -2.9593    0.0240 C.2       1 <0>         0.2664
     12 C12        -4.7326   -4.3182   -0.0844 C.2       1 <0>        -0.3749
     13 C13        -3.4871   -4.9570   -0.1979 C.2       1 <0>         0.3648
     14 O1         -3.4307   -6.2860   -0.3033 O.2       1 <0>        -0.6598
     15 C14        -2.3054   -4.2086   -0.2016 C.2       1 <0>        -0.3143
     16 C15        -2.3616   -2.8325   -0.0921 C.2       1 <0>         0.2118
     17 O2         -1.2290   -2.0988   -0.0996 O.3       1 <0>        -0.2018
     18 O3         -6.0073   -2.3463    0.1339 O.3       1 <0>        -0.4482
     19 O4         -4.8484   -0.1420    0.2437 O.3       1 <0>        -0.5747
     20 O5         -2.4638    1.2803    0.2294 O.3       1 <0>        -0.4649
     21 O6          3.2919   -0.0973    1.5794 O.3       1 <0>        -0.4856
     22 O7          3.5458    2.1225   -0.0269 O.3       1 <0>        -0.4881
     23 H1         -0.6843    1.4460   -1.4327 H         1 <0>         0.1397
     24 H2          1.4276    2.7014   -1.4473 H         1 <0>         0.1381
     25 H3          0.9685   -1.2854    1.4384 H         1 <0>         0.1410
     26 H4         -5.6395   -4.9047   -0.0825 H         1 <0>         0.1180
     27 H5         -1.3506   -4.7057   -0.2895 H         1 <0>         0.1230
     28 H6         -6.7597   -2.9537    0.1258 H         1 <0>         0.3847
     29 H7         -3.3475    1.6656    0.3047 H         1 <0>         0.4058
     30 H8          3.2925    0.2977    2.4620 H         1 <0>         0.3855
     31 H9          3.5825    2.8346    0.6263 H         1 <0>         0.3863
@<TRIPOS>BOND
     1    1    6 ar
     2    1    2 ar
     3    1   23 1
     4    2    3 ar
     5    2   24 1
     6    3    4 ar
     7    3   22 1
     8    4    5 ar
     9    4   21 1
    10    5    6 ar
    11    5   25 1
    12    6    7 1
    13    7   17 1
    14    7    8 2
    15    8    9 1
    16    8   20 1
    17    9   10 2
    18    9   19 1
    19   10   16 1
    20   10   11 1
    21   11   12 2
    22   11   18 1
    23   12   13 1
    24   12   26 1
    25   13   14 2
    26   13   15 1
    27   15   16 2
    28   15   27 1
    29   16   17 1
    30   18   28 1
    31   20   29 1
    32   21   30 1
    33   22   31 1
@<TRIPOS>MOLECULE
ZINC00895662
   44    47     0     0     0
SMALL
USER_CHARGES
3-methylbut-2-enylBLAHdiol
@<TRIPOS>ATOM
      1 C1          2.4126    0.9655   -0.2067 C.3       1 <0>        -0.1184
      2 C2          1.1249    1.7382   -0.0804 C.2       1 <0>        -0.1291
      3 C3          0.0102    1.1115    0.2036 C.2       1 <0>        -0.1600
      4 C4         -1.2818    1.8807    0.3050 C.3       1 <0>        -0.0434
      5 C5         -2.3078    1.2619   -0.6090 C.ar      1 <0>        -0.1176
      6 C6         -2.4496    1.6814   -1.9279 C.ar      1 <0>         0.1487
      7 C7         -3.3868    1.1188   -2.7776 C.ar      1 <0>        -0.1762
      8 C8         -4.2387    0.1094   -2.3442 C.ar      1 <0>        -0.0445
      9 C9         -4.1018   -0.3071   -1.0376 C.ar      1 <0>        -0.1856
     10 C10        -3.1579    0.2496   -0.1660 C.ar      1 <0>         0.1296
     11 O1         -3.2251   -0.3173    1.0576 O.3       1 <0>        -0.2848
     12 C11        -3.9227   -1.5717    0.9504 C.3       1 <0>         0.1361
     13 H1         -3.2127   -2.3744    0.7515 H         1 <0>         0.1032
     14 C12        -4.8450   -1.3673   -0.2647 C.3       1 <0>        -0.1056
     15 H2         -4.9626   -2.2884   -0.8356 H         1 <0>         0.1163
     16 C13        -6.1978   -0.8119    0.1789 C.3       1 <0>         0.0723
     17 O2         -6.7858   -1.7164    1.1186 O.3       1 <0>        -0.3055
     18 C14        -6.0591   -1.9358    2.2481 C.ar      1 <0>         0.1564
     19 C15        -4.6763   -1.8607    2.2120 C.ar      1 <0>        -0.1746
     20 C16        -3.9583   -2.0600    3.3836 C.ar      1 <0>        -0.0436
     21 C17        -4.6095   -2.3379    4.5672 C.ar      1 <0>        -0.1750
     22 C18        -5.9941   -2.4221    4.5986 C.ar      1 <0>         0.1522
     23 C19        -6.7182   -2.2200    3.4340 C.ar      1 <0>        -0.1742
     24 O3         -6.6361   -2.7004    5.7636 O.3       1 <0>        -0.4940
     25 O4         -1.6415    2.6681   -2.3971 O.3       1 <0>        -0.4923
     26 C20         1.1197    3.2318   -0.2810 C.3       1 <0>        -0.1219
     27 H3          2.5436    0.6439   -1.2399 H         1 <0>         0.0664
     28 H4          3.2483    1.6019    0.0845 H         1 <0>         0.0634
     29 H5          2.3773    0.0917    0.4441 H         1 <0>         0.0612
     30 H6          0.0163    0.0430    0.3607 H         1 <0>         0.1064
     31 H7         -1.6441    1.8485    1.3325 H         1 <0>         0.0821
     32 H8         -1.1119    2.9167    0.0119 H         1 <0>         0.0901
     33 H9         -3.4601    1.4736   -3.7950 H         1 <0>         0.1335
     34 H10        -4.9746   -0.3290   -3.0020 H         1 <0>         0.1399
     35 H11        -6.8518   -0.7091   -0.6870 H         1 <0>         0.1186
     36 H12        -6.0580    0.1620    0.6482 H         1 <0>         0.0705
     37 H13        -2.8802   -1.9972    3.3679 H         1 <0>         0.1341
     38 H14        -4.0400   -2.4908    5.4721 H         1 <0>         0.1357
     39 H15        -7.7962   -2.2839    3.4507 H         1 <0>         0.1423
     40 H16        -6.8703   -1.9174    6.2804 H         1 <0>         0.3974
     41 H17        -0.8173    2.3484   -2.7890 H         1 <0>         0.3921
     42 H18         0.6817    3.7141    0.5928 H         1 <0>         0.0658
     43 H19         2.1424    3.5838   -0.4158 H         1 <0>         0.0601
     44 H20         0.5313    3.4776   -1.1649 H         1 <0>         0.0717
@<TRIPOS>BOND
     1    1    2 1
     2    1   27 1
     3    1   28 1
     4    1   29 1
     5    2    3 2
     6    2   26 1
     7    3    4 1
     8    3   30 1
     9    4    5 1
    10    4   31 1
    11    4   32 1
    12    5   10 ar
    13    5    6 ar
    14    6    7 ar
    15    6   25 1
    16    7    8 ar
    17    7   33 1
    18    8    9 ar
    19    8   34 1
    20    9   14 1
    21    9   10 ar
    22   10   11 1
    23   11   12 1
    24   12   13 1
    25   12   19 1
    26   12   14 1
    27   14   15 1
    28   14   16 1
    29   16   17 1
    30   16   35 1
    31   16   36 1
    32   17   18 1
    33   18   23 ar
    34   18   19 ar
    35   19   20 ar
    36   20   21 ar
    37   20   37 1
    38   21   22 ar
    39   21   38 1
    40   22   23 ar
    41   22   24 1
    42   23   39 1
    43   24   40 1
    44   25   41 1
    45   26   42 1
    46   26   43 1
    47   26   44 1
@<TRIPOS>MOLECULE
ZINC13382495
   54    57     0     0     0
SMALL
USER_CHARGES
5,9-dihydroxy-8-methoxy-2,2-dimethyl-7-(3-methylbut-2-enyl)pyrano[5,6-b]xanthen-6-one
@<TRIPOS>ATOM
      1 C1         -1.2777   -0.7511   -1.6929 C.3       1 <0>        -0.1197
      2 C2         -1.2240    0.6594   -2.2206 C.2       1 <0>        -0.1286
      3 C3         -0.7307    1.6186   -1.4770 C.2       1 <0>        -0.1418
      4 C4         -0.1407    1.2983   -0.1278 C.3       1 <0>        -0.0669
      5 C5         -0.8003    2.1522    0.9243 C.ar      1 <0>         0.0176
      6 C6         -0.3453    3.4517    1.1602 C.ar      1 <0>        -0.2243
      7 C7         -0.9579    4.2544    2.1353 C.ar      1 <0>         0.1788
      8 C8         -2.0172    3.7365    2.8708 C.ar      1 <0>        -0.1688
      9 C9         -2.4612    2.4476    2.6371 C.ar      1 <0>         0.1641
     10 C10        -1.8523    1.6525    1.6629 C.ar      1 <0>         0.0392
     11 O1         -2.2968    0.3856    1.4432 O.3       1 <0>        -0.3124
     12 C11        -1.6894   -0.6569    2.2089 C.3       1 <0>         0.0279
     13 O2         -3.4972    1.9506    3.3609 O.3       1 <0>        -0.4773
     14 O3         -0.5296    5.5123    2.3699 O.3       1 <0>        -0.2225
     15 C12         0.5022    6.0832    1.7142 C.ar      1 <0>         0.2186
     16 C13         0.8812    7.3831    2.0302 C.ar      1 <0>        -0.1870
     17 C14         1.9272    7.9864    1.3598 C.ar      1 <0>         0.2188
     18 C15         2.6175    7.2933    0.3494 C.ar      1 <0>        -0.1953
     19 C16         2.2530    5.9917    0.0200 C.ar      1 <0>         0.2511
     20 C17         1.1924    5.3853    0.7071 C.ar      1 <0>        -0.2871
     21 C18         0.7819    4.0077    0.3867 C.2       1 <0>         0.4419
     22 O4          1.3461    3.3580   -0.4754 O.2       1 <0>        -0.4245
     23 O5          2.9153    5.3184   -0.9529 O.3       1 <0>        -0.4681
     24 C19         3.7280    7.9796   -0.3436 C.2       1 <0>        -0.0807
     25 C20         4.2437    9.0679    0.2256 C.2       1 <0>        -0.1870
     26 C21         3.7020    9.5561    1.5431 C.3       1 <0>         0.1463
     27 O6          2.3112    9.2538    1.6575 O.3       1 <0>        -0.2941
     28 C22         3.8987   11.0704    1.6395 C.3       1 <0>        -0.1380
     29 C23         4.4617    8.8753    2.6834 C.3       1 <0>        -0.1748
     30 C24        -1.7377    0.9667   -3.6036 C.3       1 <0>        -0.1155
     31 H1         -2.1820   -0.8825   -1.0987 H         1 <0>         0.0726
     32 H2         -1.2869   -1.4514   -2.5282 H         1 <0>         0.0590
     33 H3         -0.4032   -0.9397   -1.0703 H         1 <0>         0.0631
     34 H4         -0.7467    2.6388   -1.8310 H         1 <0>         0.1047
     35 H5         -0.3078    0.2458    0.1012 H         1 <0>         0.0865
     36 H6          0.9301    1.5016   -0.1419 H         1 <0>         0.1109
     37 H7         -2.4948    4.3420    3.6269 H         1 <0>         0.1562
     38 H8         -0.6192   -0.6823    2.0036 H         1 <0>         0.0483
     39 H9         -1.8514   -0.4697    3.2704 H         1 <0>         0.0448
     40 H10        -2.1344   -1.6140    1.9367 H         1 <0>         0.0999
     41 H11        -3.2291    1.5018    4.1745 H         1 <0>         0.3975
     42 H12         0.3555    7.9233    2.8036 H         1 <0>         0.1573
     43 H13         2.5400    5.4340   -1.8366 H         1 <0>         0.4034
     44 H14         4.1103    7.6094   -1.2834 H         1 <0>         0.1388
     45 H15         5.0496    9.6001   -0.2578 H         1 <0>         0.1378
     46 H16         3.5256   11.4248    2.6004 H         1 <0>         0.0726
     47 H17         4.9596   11.3052    1.5526 H         1 <0>         0.0841
     48 H18         3.3511   11.5598    0.8341 H         1 <0>         0.0701
     49 H19         4.3162    7.7967    2.6238 H         1 <0>         0.0613
     50 H20         5.5242    9.1038    2.5995 H         1 <0>         0.0793
     51 H21         4.0859    9.2403    3.6393 H         1 <0>         0.0730
     52 H22        -0.9270    0.8603   -4.3243 H         1 <0>         0.0666
     53 H23        -2.5407    0.2739   -3.8551 H         1 <0>         0.0625
     54 H24        -2.1171    1.9882   -3.6317 H         1 <0>         0.0596
@<TRIPOS>BOND
     1    1    2 1
     2    1   31 1
     3    1   32 1
     4    1   33 1
     5    2    3 2
     6    2   30 1
     7    3    4 1
     8    3   34 1
     9    4    5 1
    10    4   35 1
    11    4   36 1
    12    5   10 ar
    13    5    6 ar
    14    6   21 1
    15    6    7 ar
    16    7    8 ar
    17    7   14 1
    18    8    9 ar
    19    8   37 1
    20    9   10 ar
    21    9   13 1
    22   10   11 1
    23   11   12 1
    24   12   38 1
    25   12   39 1
    26   12   40 1
    27   13   41 1
    28   14   15 1
    29   15   20 ar
    30   15   16 ar
    31   16   17 ar
    32   16   42 1
    33   17   27 1
    34   17   18 ar
    35   18   19 ar
    36   18   24 1
    37   19   20 ar
    38   19   23 1
    39   20   21 1
    40   21   22 2
    41   23   43 1
    42   24   25 2
    43   24   44 1
    44   25   26 1
    45   25   45 1
    46   26   27 1
    47   26   28 1
    48   26   29 1
    49   28   46 1
    50   28   47 1
    51   28   48 1
    52   29   49 1
    53   29   50 1
    54   29   51 1
    55   30   52 1
    56   30   53 1
    57   30   54 1
@<TRIPOS>MOLECULE
ZINC06536276
   32    34     0     0     0
SMALL
USER_CHARGES
3,5,7,8-tetrahydroxy-2-(4-hydroxyphenyl)chromen-4-one
@<TRIPOS>ATOM
      1 C1         -3.5418    3.6855   -0.8742 C.ar      1 <0>        -0.0442
      2 C2         -4.7753    4.2982   -0.8517 C.ar      1 <0>        -0.1679
      3 C3         -5.0416    5.2945    0.0796 C.ar      1 <0>         0.1772
      4 C4         -4.0675    5.6740    0.9950 C.ar      1 <0>        -0.2189
      5 C5         -2.8330    5.0631    0.9832 C.ar      1 <0>        -0.0232
      6 C6         -2.5608    4.0600    0.0485 C.ar      1 <0>        -0.0921
      7 C7         -1.2408    3.4030    0.0320 C.2       1 <0>         0.1243
      8 C8         -0.1212    4.1793    0.0611 C.2       1 <0>        -0.0269
      9 C9          1.1565    3.5625    0.0462 C.2       1 <0>         0.4041
     10 O1          2.1810    4.2257    0.0709 O.2       1 <0>        -0.4521
     11 C10         1.1985    2.0921   -0.0007 C.ar      1 <0>        -0.2786
     12 C11         2.4165    1.4003   -0.0174 C.ar      1 <0>         0.2586
     13 C12         2.4160    0.0189   -0.0622 C.ar      1 <0>        -0.2655
     14 C13         1.2140   -0.6798   -0.0897 C.ar      1 <0>         0.2350
     15 C14         0.0018   -0.0027   -0.0725 C.ar      1 <0>        -0.0007
     16 C15        -0.0169    1.3862   -0.0280 C.ar      1 <0>         0.1397
     17 O2         -1.1864    2.0611   -0.0163 O.3       1 <0>        -0.2091
     18 O3         -1.1679   -0.6992   -0.0998 O.3       1 <0>        -0.5128
     19 O4          1.2258   -2.0377   -0.1332 O.3       1 <0>        -0.4911
     20 O5          3.5903    2.0826    0.0104 O.3       1 <0>        -0.4708
     21 O6         -0.2277    5.5354    0.1036 O.3       1 <0>        -0.4823
     22 O7         -6.2572    5.8995    0.0948 O.3       1 <0>        -0.5069
     23 H1         -3.3344    2.9140   -1.6010 H         1 <0>         0.1337
     24 H2         -5.5353    4.0066   -1.5615 H         1 <0>         0.1347
     25 H3         -4.2788    6.4489    1.7170 H         1 <0>         0.1335
     26 H4         -2.0764    5.3590    1.6949 H         1 <0>         0.1322
     27 H5          3.3521   -0.5195   -0.0755 H         1 <0>         0.1518
     28 H6         -2.1280   -0.1626   -0.0862 H         1 <0>         0.4475
     29 H7          0.2780   -2.5955   -0.1551 H         1 <0>         0.4508
     30 H8          4.5447    1.5359   -0.0028 H         1 <0>         0.4400
     31 H9          0.6790    6.1578    0.1270 H         1 <0>         0.4421
     32 H10        -6.4698    6.6884    0.8313 H         1 <0>         0.4379
@<TRIPOS>BOND
     1    1    6 ar
     2    1    2 ar
     3    1   23 1
     4    2    3 ar
     5    2   24 1
     6    3    4 ar
     7    3   22 1
     8    4    5 ar
     9    4   25 1
    10    5    6 ar
    11    5   26 1
    12    6    7 1
    13    7   17 1
    14    7    8 2
    15    8    9 1
    16    8   21 1
    17    9   10 2
    18    9   11 1
    19   11   16 ar
    20   11   12 ar
    21   12   13 ar
    22   12   20 1
    23   13   14 ar
    24   13   27 1
    25   14   15 ar
    26   14   19 1
    27   15   16 ar
    28   15   18 1
    29   16   17 1
    30   18   28 1
    31   19   29 1
    32   20   30 1
    33   21   31 1
    34   22   32 1
