@<TRIPOS>MOLECULE
ZINC16052637
   32    33     0     0     0
SMALL
USER_CHARGES
(3aR,5R,6S,7R,7aR)-2-ethylamino-5-(hydroxymethyl)-5,6,7,7a-tetrahydro-3aH-pyrano[5,6-d]thiazole-6,7-diol
@<TRIPOS>ATOM
      1 C1         -2.4389    0.6711    0.0173 C.3       1 <0>        -0.1647
      2 C2         -1.2896    1.6810    0.0173 C.3       1 <0>         0.1180
      3 N1         -0.0111    0.9658    0.0074 N.pl3     1 <0>        -0.6842
      4 C3          1.1708    1.6698   -0.0002 C.2       1 <0>         0.4585
      5 N2          2.3713    1.1811   -0.0090 N.2       1 <0>        -0.6108
      6 C4          3.5507    2.0379    0.0241 C.3       1 <0>         0.0781
      7 H1          4.1311    1.8067   -0.8691 H         1 <0>         0.1212
      8 C5          4.3991    1.6336    1.2095 C.3       1 <0>         0.1332
      9 H2          3.7479    1.1960    1.9662 H         1 <0>         0.0724
     10 C6          5.1770    2.7628    1.8437 C.3       1 <0>         0.0462
     11 H3          5.9998    3.0438    1.1863 H         1 <0>         0.0823
     12 C7          4.2889    3.9749    2.0760 C.3       1 <0>         0.0670
     13 H4          3.4994    3.7119    2.7799 H         1 <0>         0.0818
     14 O1          3.7205    4.4004    0.8644 O.3       1 <0>        -0.3200
     15 C8          3.1943    3.5108   -0.0539 C.3       1 <0>         0.1522
     16 H5          3.4687    3.8611   -1.0490 H         1 <0>         0.1414
     17 S1          1.3664    3.4424    0.0081 S.3       1 <0>        -0.2511
     18 C9          5.1296    5.1105    2.6630 C.3       1 <0>         0.0827
     19 O2          4.2799    6.2114    2.9917 O.3       1 <0>        -0.5583
     20 O3          5.7065    2.3224    3.0957 O.3       1 <0>        -0.5531
     21 O4          5.3267    0.6344    0.7816 O.3       1 <0>        -0.5506
     22 H6         -2.3769    0.0501   -0.8764 H         1 <0>         0.0659
     23 H7         -2.3685    0.0404    0.9035 H         1 <0>         0.0655
     24 H8         -3.3902    1.2032    0.0247 H         1 <0>         0.0809
     25 H9         -1.3516    2.3020    0.9110 H         1 <0>         0.0709
     26 H10        -1.3601    2.3116   -0.8689 H         1 <0>         0.0715
     27 H11         0.0021   -0.0041    0.0020 H         1 <0>         0.4152
     28 H12         5.6353    4.7604    3.5629 H         1 <0>         0.0666
     29 H13         5.8710    5.4298    1.9305 H         1 <0>         0.0617
     30 H14         4.7466    6.9692    3.3698 H         1 <0>         0.3854
     31 H15         6.2200    2.9948    3.5640 H         1 <0>         0.3863
     32 H16         5.9131    0.3165    1.4817 H         1 <0>         0.3879
@<TRIPOS>BOND
     1    1    2 1
     2    1   22 1
     3    1   23 1
     4    1   24 1
     5    2    3 1
     6    2   25 1
     7    2   26 1
     8    3    4 1
     9    3   27 1
    10    4   17 1
    11    4    5 2
    12    5    6 1
    13    6    7 1
    14    6   15 1
    15    6    8 1
    16    8    9 1
    17    8   10 1
    18    8   21 1
    19   10   11 1
    20   10   12 1
    21   10   20 1
    22   12   13 1
    23   12   14 1
    24   12   18 1
    25   14   15 1
    26   15   16 1
    27   15   17 1
    28   18   19 1
    29   18   28 1
    30   18   29 1
    31   19   30 1
    32   20   31 1
    33   21   32 1
@<TRIPOS>MOLECULE
ZINC16051892
   27    28     0     0     0
SMALL
USER_CHARGES
(3aR,5R,6S,7R,7aR)-5-(hydroxymethyl)-2-methyl-5,6,7,7a-tetrahydro-3aH-pyrano[5,6-d]thiazole-6,7-diol
@<TRIPOS>ATOM
      1 C1          1.2754   -1.3325    4.9426 C.3       1 <0>        -0.0705
      2 C2          1.2949   -1.0002    3.4728 C.2       1 <0>         0.2277
      3 N1          2.1890   -0.3230    2.8433 N.2       1 <0>        -0.5249
      4 C3          2.0859   -0.0413    1.4162 C.3       1 <0>         0.0446
      5 H1          2.9748   -0.4772    0.9602 H         1 <0>         0.1314
      6 C4          2.1754    1.4533    1.2008 C.3       1 <0>         0.1372
      7 H2          1.8167    1.9533    2.1005 H         1 <0>         0.0759
      8 C5          1.3983    1.9613   -0.0008 C.3       1 <0>         0.0493
      9 H3          1.8942    1.6602   -0.9235 H         1 <0>         0.0856
     10 C6         -0.0170    1.4054    0.0098 C.3       1 <0>         0.0635
     11 H4         -0.5327    1.7527    0.9051 H         1 <0>         0.0827
     12 O1          0.0021   -0.0041    0.0020 O.3       1 <0>        -0.3189
     13 C7          0.8877   -0.7241    0.7823 C.3       1 <0>         0.1486
     14 H5          1.2628   -1.5520    0.1805 H         1 <0>         0.1397
     15 S1          0.0862   -1.4495    2.2595 S.3       1 <0>        -0.2639
     16 C8         -0.7646    1.9063   -1.2276 C.3       1 <0>         0.0827
     17 O2         -2.1344    1.5066   -1.1508 O.3       1 <0>        -0.5583
     18 O3          1.3424    3.3881    0.0565 O.3       1 <0>        -0.5522
     19 O4          3.5482    1.8009    1.0095 O.3       1 <0>        -0.5517
     20 H6          0.7921   -0.6126    5.4407 H         1 <0>         0.0872
     21 H7          0.7653   -2.2839    5.0932 H         1 <0>         0.0930
     22 H8          2.2982   -1.4061    5.3121 H         1 <0>         0.0974
     23 H9         -0.7054    2.9938   -1.2725 H         1 <0>         0.0672
     24 H10        -0.3116    1.4805   -2.1229 H         1 <0>         0.0618
     25 H11        -2.6699    1.7907   -1.9043 H         1 <0>         0.3861
     26 H12         0.8683    3.7931   -0.6827 H         1 <0>         0.3879
     27 H13         3.6982    2.7450    0.8637 H         1 <0>         0.3909
@<TRIPOS>BOND
     1    1    2 1
     2    1   20 1
     3    1   21 1
     4    1   22 1
     5    2   15 1
     6    2    3 2
     7    3    4 1
     8    4    5 1
     9    4   13 1
    10    4    6 1
    11    6    7 1
    12    6    8 1
    13    6   19 1
    14    8    9 1
    15    8   10 1
    16    8   18 1
    17   10   11 1
    18   10   12 1
    19   10   16 1
    20   12   13 1
    21   13   14 1
    22   13   15 1
    23   16   17 1
    24   16   23 1
    25   16   24 1
    26   17   25 1
    27   18   26 1
    28   19   27 1
