@<TRIPOS>MOLECULE
ZINC00013748
   28    30     0     0     0
SMALL
USER_CHARGES

@<TRIPOS>ATOM
      1 C1         -0.0167    1.3777    0.0096 C.ar      1 <0>        -0.0954
      2 C2          1.1697    2.0876    0.0021 C.ar      1 <0>        -0.1049
      3 C3          2.3784    1.4177   -0.0116 C.ar      1 <0>        -0.0981
      4 C4          2.4042    0.0310   -0.0192 C.ar      1 <0>         0.0329
      5 C5          1.2117   -0.6826   -0.0141 C.ar      1 <0>         0.0460
      6 C6          0.0021   -0.0041    0.0020 C.ar      1 <0>        -0.1042
      7 O1          1.2143   -2.0435   -0.0292 O.3       1 <0>        -0.2831
      8 C7          2.4407   -2.6888    0.3305 C.3       1 <0>         0.0319
      9 C8          3.5869   -1.9932   -0.4162 C.3       1 <0>         0.0648
     10 H1          3.4262   -2.0716   -1.4914 H         1 <0>         0.1391
     11 O2          3.6023   -0.6148   -0.0295 O.3       1 <0>        -0.2941
     12 C9          4.8981   -2.6394   -0.0500 C.cat     1 <0>         0.5242
     13 N1          5.2975   -2.7671    1.1936 N.pl3     1 <0>        -0.6146
     14 C10         6.6089   -3.4350    1.2165 C.3       1 <0>         0.0552
     15 C11         6.9063   -3.6783   -0.2777 C.3       1 <0>         0.0574
     16 N2          5.7221   -3.1209   -0.9509 N.pl3     1 <0>        -0.6160
     17 H2         -0.9596    1.9040    0.0259 H         1 <0>         0.1440
     18 H3          1.1518    3.1674    0.0066 H         1 <0>         0.1437
     19 H4          3.3037    1.9746   -0.0169 H         1 <0>         0.1411
     20 H5         -0.9261   -0.5562    0.0086 H         1 <0>         0.1448
     21 H6          2.5984   -2.6053    1.4058 H         1 <0>         0.0891
     22 H7          2.4005   -3.7400    0.0450 H         1 <0>         0.1382
     23 H8          7.3641   -2.7849    1.6584 H         1 <0>         0.1328
     24 H9          6.5499   -4.3802    1.7561 H         1 <0>         0.1335
     25 H10         7.8099   -3.1496   -0.5812 H         1 <0>         0.1334
     26 H11         6.9957   -4.7449   -0.4835 H         1 <0>         0.1330
     27 H12         5.5747   -3.1096   -1.9095 H         1 <0>         0.4633
     28 H13         4.8062   -2.4679    1.9745 H         1 <0>         0.4621
@<TRIPOS>BOND
     1    1    6 ar
     2    1    2 ar
     3    1   17 1
     4    2    3 ar
     5    2   18 1
     6    3    4 ar
     7    3   19 1
     8    4   11 1
     9    4    5 ar
    10    5    6 ar
    11    5    7 1
    12    6   20 1
    13    7    8 1
    14    8    9 1
    15    8   21 1
    16    8   22 1
    17    9   10 1
    18    9   11 1
    19    9   12 1
    20   12   16 1
    21   12   13 2
    22   13   14 1
    23   13   28 1
    24   14   15 1
    25   14   23 1
    26   14   24 1
    27   15   16 1
    28   15   25 1
    29   15   26 1
    30   16   27 1
@<TRIPOS>MOLECULE
ZINC00900630
   28    30     0     0     0
SMALL
USER_CHARGES

@<TRIPOS>ATOM
      1 C1         -0.0167    1.3777    0.0096 C.ar      1 <0>        -0.0954
      2 C2          1.1697    2.0876    0.0021 C.ar      1 <0>        -0.1049
      3 C3          2.3783    1.4178   -0.0143 C.ar      1 <0>        -0.0981
      4 C4          2.4042    0.0310   -0.0230 C.ar      1 <0>         0.0329
      5 C5          1.2117   -0.6826   -0.0129 C.ar      1 <0>         0.0461
      6 C6          0.0021   -0.0041    0.0020 C.ar      1 <0>        -0.1042
      7 O1          1.2145   -2.0436   -0.0133 O.3       1 <0>        -0.2832
      8 C7          2.4336   -2.6847   -0.4041 C.3       1 <0>         0.0320
      9 C8          3.5941   -1.9974    0.3280 C.3       1 <0>         0.0648
     10 H1          3.4543   -2.0880    1.4052 H         1 <0>         0.1391
     11 O2          3.6022   -0.6147   -0.0433 O.3       1 <0>        -0.2941
     12 C9          4.8979   -2.6393   -0.0710 C.cat     1 <0>         0.5240
     13 N1          5.2782   -2.7429   -1.3227 N.pl3     1 <0>        -0.6144
     14 C10         6.5877   -3.4123   -1.3789 C.3       1 <0>         0.0552
     15 C11         6.9072   -3.6858    0.1054 C.3       1 <0>         0.0573
     16 N2          5.7392   -3.1309    0.8082 N.pl3     1 <0>        -0.6159
     17 H2         -0.9596    1.9040    0.0259 H         1 <0>         0.1440
     18 H3          1.1518    3.1674    0.0087 H         1 <0>         0.1437
     19 H4          3.3037    1.9746   -0.0208 H         1 <0>         0.1411
     20 H5         -0.9261   -0.5562    0.0079 H         1 <0>         0.1448
     21 H6          2.3988   -3.7390   -0.1298 H         1 <0>         0.1382
     22 H7          2.5703   -2.5889   -1.4813 H         1 <0>         0.0891
     23 H8          6.5187   -4.3466   -1.9362 H         1 <0>         0.1335
     24 H9          7.3374   -2.7549   -1.8192 H         1 <0>         0.1328
     25 H10         6.9977   -4.7565    0.2887 H         1 <0>         0.1335
     26 H11         7.8164   -3.1648    0.4057 H         1 <0>         0.1329
     27 H12         5.6106   -3.1302    1.7696 H         1 <0>         0.4633
     28 H13         4.7751   -2.4283   -2.0901 H         1 <0>         0.4621
@<TRIPOS>BOND
     1    1    6 ar
     2    1    2 ar
     3    1   17 1
     4    2    3 ar
     5    2   18 1
     6    3    4 ar
     7    3   19 1
     8    4   11 1
     9    4    5 ar
    10    5    6 ar
    11    5    7 1
    12    6   20 1
    13    7    8 1
    14    8    9 1
    15    8   21 1
    16    8   22 1
    17    9   10 1
    18    9   11 1
    19    9   12 1
    20   12   16 1
    21   12   13 2
    22   13   14 1
    23   13   28 1
    24   14   15 1
    25   14   23 1
    26   14   24 1
    27   15   16 1
    28   15   25 1
    29   15   26 1
    30   16   27 1
@<TRIPOS>MOLECULE
ZINC19702309
   24    26     0     0     0
SMALL
USER_CHARGES

@<TRIPOS>ATOM
      1 H1          0.0021   -0.0041    0.0020 H         1 <0>         0.0848
      2 C1         -0.0127    1.0858    0.0080 C.3       1 <0>         0.0919
      3 C2         -0.6188    1.6077    1.3232 C.3       1 <0>         0.0999
      4 N1          0.4614    2.3888    1.9416 N.pl3     1 <0>        -0.7113
      5 C3          1.5591    2.3512    1.1310 C.2       1 <0>         0.6703
      6 N2          1.3572    1.6174   -0.0022 N.pl3     1 <0>        -0.7520
      7 N3          2.6908    2.9576    1.4119 N.2       1 <0>        -0.6206
      8 C4          3.7445    2.8716    0.5473 C.ar      1 <0>         0.2365
      9 C5          4.6651    1.8475    0.6644 C.ar      1 <0>        -0.0860
     10 C6          5.7426    1.7478   -0.2090 C.ar      1 <0>        -0.0534
     11 C7          5.9477    2.6361   -1.2094 C.ar      1 <0>        -0.0968
     12 C8          5.0598    3.7262   -1.4173 C.ar      1 <0>         0.0880
     13 C9          3.9124    3.8674   -0.5288 C.ar      1 <0>         0.0526
     14 N4          3.1488    4.9175   -0.8184 N.2       1 <0>        -0.4746
     15 S1          3.8402    5.6196   -2.0902 S.3       1 <0>         0.6114
     16 N5          5.1203    4.6798   -2.3482 N.2       1 <0>        -0.5052
     17 Cl1         4.4735    0.6668    1.9225 Cl        1 <0>        -0.0489
     18 H2         -1.4798    2.2442    1.1192 H         1 <0>         0.0860
     19 H3         -0.9036    0.7759    1.9674 H         1 <0>         0.0870
     20 H4         -0.5734    1.4626   -0.8474 H         1 <0>         0.0826
     21 H5          2.0129    1.4701   -0.7017 H         1 <0>         0.4272
     22 H6          6.4405    0.9331   -0.0844 H         1 <0>         0.1454
     23 H7          6.8007    2.5146   -1.8605 H         1 <0>         0.1466
     24 H8          0.4036    2.8565    2.7895 H         1 <0>         0.4384
@<TRIPOS>BOND
     1    1    2 1
     2    2    6 1
     3    2    3 1
     4    2   20 1
     5    3    4 1
     6    3   18 1
     7    3   19 1
     8    4    5 1
     9    4   24 1
    10    5    6 1
    11    5    7 2
    12    6   21 1
    13    7    8 1
    14    8   13 ar
    15    8    9 ar
    16    9   10 ar
    17    9   17 1
    18   10   11 ar
    19   10   22 1
    20   11   12 ar
    21   11   23 1
    22   12   16 2
    23   12   13 ar
    24   13   14 2
    25   14   15 1
    26   15   16 1
@<TRIPOS>MOLECULE
ZINC06093764
   30    32     0     0     0
SMALL
USER_CHARGES
4-chloro-N-(4,5-dihydro-1H-imidazol-2-yl)isoindolin-2-amine
@<TRIPOS>ATOM
      1 C1          3.4361   -4.7618   -0.6395 C.ar      1 <0>        -0.0896
      2 C2          2.7392   -3.7955   -1.3413 C.ar      1 <0>        -0.0843
      3 C3          2.0849   -2.7851   -0.6635 C.ar      1 <0>        -0.0996
      4 C4          2.1269   -2.7399    0.7198 C.ar      1 <0>        -0.1077
      5 C5          2.8237   -3.7062    1.4213 C.ar      1 <0>        -0.0077
      6 C6          3.4786   -4.7177    0.7411 C.ar      1 <0>        -0.0969
      7 Cl1         2.8770   -3.6505    3.1556 Cl        1 <0>        -0.0536
      8 C7          1.3307   -1.5395    1.1787 C.3       1 <0>         0.0587
      9 N1          1.1942   -0.6709   -0.0124 N.3       1 <0>        -0.2682
     10 C8          1.2599   -1.6155   -1.1505 C.3       1 <0>         0.0596
     11 N2          0.0021   -0.0041    0.0020 N.pl3     1 <0>        -0.5558
     12 C9         -0.0166    1.3706    0.0096 C.cat     1 <0>         0.7427
     13 C10         0.7154    3.5156    0.0136 C.3       1 <0>         0.0711
     14 C11        -0.8261    3.5277    0.0280 C.3       1 <0>         0.0864
     15 N3         -1.1754    2.0973    0.0187 N.pl3     1 <0>        -0.6938
     16 H1          3.9475   -5.5511   -1.1705 H         1 <0>         0.1464
     17 H2          2.7067   -3.8304   -2.4202 H         1 <0>         0.1377
     18 H3          4.0226   -5.4729    1.2890 H         1 <0>         0.1466
     19 H4          1.8654   -1.0130    1.9693 H         1 <0>         0.1162
     20 H5          0.3479   -1.8520    1.5315 H         1 <0>         0.0908
     21 H6          0.2581   -1.9485   -1.4219 H         1 <0>         0.0905
     22 H7          1.7446   -1.1427   -2.0048 H         1 <0>         0.1177
     23 H8         -0.8313   -0.5004    0.0069 H         1 <0>         0.4184
     24 H9          1.1097    3.9972    0.9084 H         1 <0>         0.1234
     25 H10         1.0951    4.0068   -0.8824 H         1 <0>         0.1237
     26 H11        -1.1985    4.0119    0.9308 H         1 <0>         0.1188
     27 H12        -1.2152    4.0236   -0.8613 H         1 <0>         0.1189
     28 H13        -2.0741    1.7324    0.0207 H         1 <0>         0.4532
     29 N4          1.0636    2.0855    0.0031 N.pl3     1 <0>        -0.6404
     30 H14         2.0194    1.7108   -0.0078 H         1 <0>         0.4768
@<TRIPOS>BOND
     1    1    6 ar
     2    1    2 ar
     3    1   16 1
     4    2    3 ar
     5    2   17 1
     6    3   10 1
     7    3    4 ar
     8    4    5 ar
     9    4    8 1
    10    5    6 ar
    11    5    7 1
    12    6   18 1
    13    8    9 1
    14    8   19 1
    15    8   20 1
    16    9   10 1
    17    9   11 1
    18   10   21 1
    19   10   22 1
    20   11   12 1
    21   11   23 1
    22   12   15 1
    23   12   29 2
    24   13   14 1
    25   13   24 1
    26   13   25 1
    27   13   29 1
    28   14   15 1
    29   14   26 1
    30   14   27 1
    31   15   28 1
    32   29   30 1
@<TRIPOS>MOLECULE
ZINC02022527
   54    55     0     0     0
SMALL
USER_CHARGES

@<TRIPOS>ATOM
      1 C1         -3.0730    2.2881   -4.2693 C.3       1 <0>        -0.1569
      2 C2         -2.3049    1.5870   -3.1471 C.3       1 <0>        -0.1270
      3 C3         -2.8110    2.0874   -1.7927 C.3       1 <0>        -0.1231
      4 C4         -2.0429    1.3862   -0.6705 C.3       1 <0>        -0.1174
      5 C5         -2.5490    1.8867    0.6839 C.3       1 <0>        -0.1006
      6 C6         -2.2117    3.3722    0.8391 C.3       1 <0>        -0.1451
      7 C7         -2.6658    3.8518    2.2196 C.3       1 <0>        -0.0114
      8 C8         -2.3347    1.6429    3.1595 C.3       1 <0>        -0.0001
      9 C9         -1.8707    1.0973    1.8070 C.3       1 <0>        -0.1442
     10 C10        -2.2939    3.5901    4.5974 C.3       1 <0>        -0.0052
     11 C11        -2.1583    5.1140    4.5919 C.3       1 <0>        -0.1459
     12 C12        -2.4764    5.6593    5.9856 C.3       1 <0>        -0.1543
     13 C13        -2.3428    7.1604    5.9803 C.2       1 <0>         0.3987
     14 O1         -2.0245    7.7371    4.9623 O.2       1 <0>        -0.4456
     15 C14        -2.5986    7.9263    7.2106 C.ar      1 <0>        -0.1885
     16 C15        -3.0878    7.2813    8.3513 C.ar      1 <0>        -0.0705
     17 C16        -3.3195    8.0047    9.5018 C.ar      1 <0>        -0.1389
     18 C17        -3.0801    9.3679    9.5265 C.ar      1 <0>        -0.0729
     19 C18        -2.6016   10.0143    8.4004 C.ar      1 <0>        -0.1345
     20 C19        -2.3594    9.3036    7.2436 C.ar      1 <0>        -0.0178
     21 C20        -1.8387   10.0095    6.0182 C.3       1 <0>        -0.1264
     22 H1         -4.1363    2.0676   -4.1746 H         1 <0>         0.0549
     23 H2         -2.9175    3.3647   -4.1985 H         1 <0>         0.0540
     24 H3         -2.7125    1.9316   -5.2342 H         1 <0>         0.0581
     25 H4         -1.2417    1.8075   -3.2417 H         1 <0>         0.0621
     26 H5         -2.4605    0.5104   -3.2179 H         1 <0>         0.0631
     27 H6         -3.8743    1.8669   -1.6981 H         1 <0>         0.0644
     28 H7         -2.6555    3.1639   -1.7219 H         1 <0>         0.0632
     29 H8         -2.1984    0.3097   -0.7413 H         1 <0>         0.0733
     30 H9         -0.9796    1.6067   -0.7651 H         1 <0>         0.0688
     31 H10        -3.6287    1.7492    0.7427 H         1 <0>         0.0884
     32 H11        -1.1354    3.5132    0.7407 H         1 <0>         0.0881
     33 H12        -2.7264    3.9447    0.0675 H         1 <0>         0.1133
     34 H13        -3.7442    3.7233    2.3122 H         1 <0>         0.1295
     35 H14        -2.4142    4.9057    2.3388 H         1 <0>         0.1342
     36 H15        -3.4146    1.5248    3.2476 H         1 <0>         0.1293
     37 H16        -1.8426    1.0924    3.9613 H         1 <0>         0.1282
     38 H17        -2.1418    0.0446    1.7270 H         1 <0>         0.1118
     39 H18        -0.7890    1.2025    1.7239 H         1 <0>         0.0880
     40 H19        -3.3133    3.3170    4.8704 H         1 <0>         0.1315
     41 H20        -1.5979    3.1659    5.3211 H         1 <0>         0.1302
     42 H21        -1.1389    5.3871    4.3190 H         1 <0>         0.0944
     43 H22        -2.8542    5.5382    3.8682 H         1 <0>         0.0968
     44 H23        -3.4115    5.4088    6.2361 H         1 <0>         0.0981
     45 H24        -1.7805    5.2352    6.7093 H         1 <0>         0.1100
     46 H25        -3.2793    6.2186    8.3321 H         1 <0>         0.1290
     47 H26        -3.6933    7.5074   10.3846 H         1 <0>         0.1322
     48 H27        -3.2682    9.9300   10.4293 H         1 <0>         0.1326
     49 H28        -2.4176   11.0782    8.4274 H         1 <0>         0.1332
     50 H29        -2.6709   10.2515    5.3572 H         1 <0>         0.0784
     51 H30        -1.3321   10.9277    6.3156 H         1 <0>         0.0652
     52 H31        -1.1365    9.3600    5.4956 H         1 <0>         0.0893
     53 N1         -1.9588    3.0696    3.2558 N.4       1 <0>        -0.3931
     54 H32        -0.9467    3.1581    3.1071 H         1 <0>         0.4272
@<TRIPOS>BOND
     1    1    2 1
     2    1   22 1
     3    1   23 1
     4    1   24 1
     5    2    3 1
     6    2   25 1
     7    2   26 1
     8    3    4 1
     9    3   27 1
    10    3   28 1
    11    4    5 1
    12    4   29 1
    13    4   30 1
    14    5    9 1
    15    5    6 1
    16    5   31 1
    17    6    7 1
    18    6   32 1
    19    6   33 1
    20    7   34 1
    21    7   35 1
    22    7   53 1
    23    8    9 1
    24    8   36 1
    25    8   37 1
    26    8   53 1
    27    9   38 1
    28    9   39 1
    29   10   11 1
    30   10   40 1
    31   10   41 1
    32   10   53 1
    33   11   12 1
    34   11   42 1
    35   11   43 1
    36   12   13 1
    37   12   44 1
    38   12   45 1
    39   13   14 2
    40   13   15 1
    41   15   20 ar
    42   15   16 ar
    43   16   17 ar
    44   16   46 1
    45   17   18 ar
    46   17   47 1
    47   18   19 ar
    48   18   48 1
    49   19   20 ar
    50   19   49 1
    51   20   21 1
    52   21   50 1
    53   21   51 1
    54   21   52 1
    55   53   54 1
@<TRIPOS>MOLECULE
ZINC00896484
   23    24     0     0     0
SMALL
USER_CHARGES

@<TRIPOS>ATOM
      1 C1         -0.0167    1.3793    0.0096 C.ar      1 <0>        -0.1251
      2 C2          1.1680    2.0938    0.0022 C.ar      1 <0>        -0.0904
      3 C3          2.3785    1.4297   -0.0129 C.ar      1 <0>        -0.0648
      4 C4          2.4050    0.0334   -0.0206 C.ar      1 <0>         0.1769
      5 C5          1.2052   -0.6814   -0.0130 C.ar      1 <0>        -0.0649
      6 C6          0.0021   -0.0041    0.0020 C.ar      1 <0>        -0.0904
      7 Cl1         1.2264   -2.4172   -0.0231 Cl        1 <0>        -0.0561
      8 N1          3.6030   -0.6324   -0.0361 N.2       1 <0>        -0.6265
      9 C7          4.1879   -0.9573    1.0933 C.2       1 <0>         0.6631
     10 N2          3.6659   -0.6737    2.3229 N.pl3     1 <0>        -0.7535
     11 C8          4.5775   -1.1780    3.3591 C.3       1 <0>         0.0928
     12 C9          5.7389   -1.8145    2.5745 C.3       1 <0>         0.1005
     13 N3          5.3800   -1.6198    1.1630 N.pl3     1 <0>        -0.7140
     14 Cl2         3.8638    2.3282   -0.0229 Cl        1 <0>        -0.0561
     15 H1         -0.9606    1.9039    0.0260 H         1 <0>         0.1385
     16 H2          1.1460    3.1736    0.0078 H         1 <0>         0.1363
     17 H3         -0.9265   -0.5555    0.0082 H         1 <0>         0.1363
     18 H4          4.9410   -0.3577    3.9780 H         1 <0>         0.0821
     19 H5          4.0780   -1.9269    3.9736 H         1 <0>         0.0822
     20 H6          6.6764   -1.3088    2.8056 H         1 <0>         0.0847
     21 H7          5.8134   -2.8781    2.8012 H         1 <0>         0.0844
     22 H8          5.9064   -1.9129    0.4028 H         1 <0>         0.4371
     23 H9          2.8280   -0.2130    2.4861 H         1 <0>         0.4271
@<TRIPOS>BOND
     1    1    6 ar
     2    1    2 ar
     3    1   15 1
     4    2    3 ar
     5    2   16 1
     6    3    4 ar
     7    3   14 1
     8    4    5 ar
     9    4    8 1
    10    5    6 ar
    11    5    7 1
    12    6   17 1
    13    8    9 2
    14    9   13 1
    15    9   10 1
    16   10   11 1
    17   10   23 1
    18   11   12 1
    19   11   18 1
    20   11   19 1
    21   12   13 1
    22   12   20 1
    23   12   21 1
    24   13   22 1
@<TRIPOS>MOLECULE
ZINC00001160
   33    35     0     0     0
SMALL
USER_CHARGES

@<TRIPOS>ATOM
      1 C1         -0.0167    1.3782    0.0096 C.ar      1 <0>        -0.1303
      2 C2          1.1700    2.0882    0.0021 C.ar      1 <0>        -0.0821
      3 C3          2.3773    1.4175   -0.0134 C.ar      1 <0>        -0.1978
      4 C4          2.3989    0.0301   -0.0210 C.ar      1 <0>         0.1151
      5 C5          1.2072   -0.6797   -0.0130 C.ar      1 <0>        -0.0640
      6 C6          0.0021   -0.0041    0.0020 C.ar      1 <0>        -0.0823
      7 C7          1.2269   -2.1866   -0.0218 C.3       1 <0>        -0.1188
      8 C8         -0.1076   -2.9094   -0.2158 C.3       1 <0>        -0.1730
      9 C9          0.5695   -2.9085    1.1562 C.3       1 <0>        -0.1668
     10 O1          3.5855   -0.6321   -0.0368 O.3       1 <0>        -0.3151
     11 C10         4.7724    0.1636   -0.0448 C.3       1 <0>         0.0707
     12 C11         5.9807   -0.7369   -0.0620 C.cat     1 <0>         0.5166
     13 N1          5.8839   -2.0456   -0.0736 N.pl3     1 <0>        -0.6140
     14 C12         7.2335   -2.6325   -0.0894 C.3       1 <0>         0.0532
     15 C13         8.1554   -1.3955   -0.0849 C.3       1 <0>         0.0611
     16 N2          7.2071   -0.2699   -0.0721 N.pl3     1 <0>        -0.6312
     17 H1         -0.9596    1.9045    0.0259 H         1 <0>         0.1340
     18 H2          1.1527    3.1681    0.0080 H         1 <0>         0.1339
     19 H3          3.3038    1.9724   -0.0200 H         1 <0>         0.1293
     20 H4         -0.9260   -0.5563    0.0079 H         1 <0>         0.1383
     21 H5          2.1150   -2.6426   -0.4593 H         1 <0>         0.1104
     22 H6         -0.9997   -2.2951   -0.3372 H         1 <0>         0.1017
     23 H7         -0.0976   -3.8412   -0.7813 H         1 <0>         0.1026
     24 H8          1.0249   -3.8397    1.4933 H         1 <0>         0.0999
     25 H9          0.1228   -2.2936    1.9375 H         1 <0>         0.0985
     26 H10         4.7790    0.7974   -0.9315 H         1 <0>         0.1320
     27 H11         4.7973    0.7880    0.8483 H         1 <0>         0.1321
     28 H12         7.3996   -3.2396    0.8005 H         1 <0>         0.1300
     29 H13         7.3858   -3.2227   -0.9931 H         1 <0>         0.1300
     30 H14         8.7815   -1.3854    0.8074 H         1 <0>         0.1299
     31 H15         8.7677   -1.3685   -0.9862 H         1 <0>         0.1294
     32 H16         7.4504    0.6691   -0.0698 H         1 <0>         0.4615
     33 H17         5.0536   -2.5471   -0.0715 H         1 <0>         0.4652
@<TRIPOS>BOND
     1    1    6 ar
     2    1    2 ar
     3    1   17 1
     4    2    3 ar
     5    2   18 1
     6    3    4 ar
     7    3   19 1
     8    4    5 ar
     9    4   10 1
    10    5    6 ar
    11    5    7 1
    12    6   20 1
    13    7    9 1
    14    7    8 1
    15    7   21 1
    16    8    9 1
    17    8   22 1
    18    8   23 1
    19    9   24 1
    20    9   25 1
    21   10   11 1
    22   11   12 1
    23   11   26 1
    24   11   27 1
    25   12   16 1
    26   12   13 2
    27   13   14 1
    28   13   33 1
    29   14   15 1
    30   14   28 1
    31   14   29 1
    32   15   16 1
    33   15   30 1
    34   15   31 1
    35   16   32 1
@<TRIPOS>MOLECULE
ZINC02013186
   28    29     0     0     0
SMALL
USER_CHARGES
2-phenethyl-4,5-dihydro-1H-imidazole
@<TRIPOS>ATOM
      1 C1         -0.0167    1.3781    0.0096 C.ar      1 <0>        -0.1069
      2 C2          1.1709    2.0855    0.0021 C.ar      1 <0>        -0.1144
      3 C3          2.3773    1.4107   -0.0141 C.ar      1 <0>        -0.1116
      4 C4          2.3960    0.0285   -0.0217 C.ar      1 <0>        -0.1064
      5 C5          1.2084   -0.6789   -0.0136 C.ar      1 <0>        -0.1115
      6 C6          0.0021   -0.0041    0.0020 C.ar      1 <0>        -0.1144
      7 C7          3.7112   -0.7071   -0.0392 C.3       1 <0>        -0.0895
      8 C8          4.1416   -0.9479   -1.4876 C.3       1 <0>        -0.1088
      9 C9          5.4567   -1.6835   -1.5051 C.cat     1 <0>         0.5150
     10 C10         7.3213   -2.7265   -0.7694 C.3       1 <0>         0.0502
     11 C11         7.3365   -2.7350   -2.3115 C.3       1 <0>         0.0651
     12 N1          6.0877   -2.0364   -2.6604 N.pl3     1 <0>        -0.6654
     13 H1         -0.9592    1.9054    0.0170 H         1 <0>         0.1286
     14 H2          1.1563    3.1654    0.0081 H         1 <0>         0.1284
     15 H3          3.3051    1.9634   -0.0207 H         1 <0>         0.1234
     16 H4          1.2231   -1.7587   -0.0199 H         1 <0>         0.1234
     17 H5         -0.9258   -0.5567    0.0079 H         1 <0>         0.1284
     18 H6          4.4679   -0.1107    0.4703 H         1 <0>         0.0877
     19 H7          3.5990   -1.6641    0.4703 H         1 <0>         0.0879
     20 H8          3.3848   -1.5443   -1.9971 H         1 <0>         0.1365
     21 H9          4.2537    0.0092   -1.9971 H         1 <0>         0.1365
     22 H10         7.3061   -3.7449   -0.3812 H         1 <0>         0.1282
     23 H11         8.1825   -2.1829   -0.3812 H         1 <0>         0.1278
     24 H12         7.3255   -3.7567   -2.6913 H         1 <0>         0.1218
     25 H13         8.2012   -2.1926   -2.6939 H         1 <0>         0.1220
     26 H14         5.7690   -1.8576   -3.5590 H         1 <0>         0.4583
     27 N2          6.0734   -2.0222   -0.4299 N.pl3     1 <0>        -0.6160
     28 H15         5.7450   -1.8303    0.5239 H         1 <0>         0.4756
@<TRIPOS>BOND
     1    1    6 ar
     2    1    2 ar
     3    1   13 1
     4    2    3 ar
     5    2   14 1
     6    3    4 ar
     7    3   15 1
     8    4    5 ar
     9    4    7 1
    10    5    6 ar
    11    5   16 1
    12    6   17 1
    13    7    8 1
    14    7   18 1
    15    7   19 1
    16    8    9 1
    17    8   20 1
    18    8   21 1
    19    9   12 1
    20    9   27 2
    21   10   11 1
    22   10   22 1
    23   10   23 1
    24   10   27 1
    25   11   12 1
    26   11   24 1
    27   11   25 1
    28   12   26 1
    29   27   28 1
@<TRIPOS>MOLECULE
ZINC04992560
   19    20     0     0     0
SMALL
USER_CHARGES
2-(2-furyl)-4,5-dihydro-1H-imidazole
@<TRIPOS>ATOM
      1 C1          2.0912    0.6409   -0.0145 C.2       1 <0>        -0.2211
      2 C2          1.2732    1.7844   -0.0005 C.2       1 <0>        -0.0750
      3 C3         -0.0162    1.3440    0.0094 C.2       1 <0>        -0.0953
      4 O1          0.0021   -0.0041    0.0020 O.3       1 <0>        -0.1548
      5 C4          1.2725   -0.4321   -0.0124 C.2       1 <0>         0.0645
      6 C5         -1.2189    2.1919    0.0200 C.cat     1 <0>         0.6042
      7 C6         -2.5276    4.0452    0.0349 C.3       1 <0>         0.0616
      8 C7         -3.4436    2.8055    0.0334 C.3       1 <0>         0.0677
      9 N1         -2.4937    1.6807    0.0185 N.pl3     1 <0>        -0.6617
     10 H1          3.1710    0.6243   -0.0245 H         1 <0>         0.1776
     11 H2          1.6031    2.8128    0.0019 H         1 <0>         0.1720
     12 H3          1.5885   -1.4648   -0.0210 H         1 <0>         0.2327
     13 H4         -2.6904    4.6390    0.9344 H         1 <0>         0.1306
     14 H5         -2.6990    4.6474   -0.8573 H         1 <0>         0.1306
     15 H6         -4.0587    2.7811    0.9329 H         1 <0>         0.1245
     16 H7         -4.0693    2.7911   -0.8590 H         1 <0>         0.1245
     17 H8         -2.7281    0.7394    0.0110 H         1 <0>         0.4597
     18 N2         -1.1651    3.4892    0.0258 N.pl3     1 <0>        -0.6177
     19 H9         -0.3012    4.0441    0.0243 H         1 <0>         0.4755
@<TRIPOS>BOND
     1    1    5 2
     2    1    2 1
     3    1   10 1
     4    2    3 2
     5    2   11 1
     6    3    4 1
     7    3    6 1
     8    4    5 1
     9    5   12 1
    10    6    9 1
    11    6   18 2
    12    7    8 1
    13    7   13 1
    14    7   14 1
    15    7   18 1
    16    8    9 1
    17    8   15 1
    18    8   16 1
    19    9   17 1
    20   18   19 1
@<TRIPOS>MOLECULE
ZINC06282777
   26    27     0     0     0
SMALL
USER_CHARGES
2-(phenoxymethyl)-4,5-dihydro-1H-imidazole
@<TRIPOS>ATOM
      1 C1         -0.0167    1.3784    0.0096 C.ar      1 <0>        -0.1363
      2 C2          1.1698    2.0883    0.0021 C.ar      1 <0>        -0.0771
      3 C3          2.3774    1.4175   -0.0131 C.ar      1 <0>        -0.2023
      4 C4          2.3989    0.0304   -0.0208 C.ar      1 <0>         0.1098
      5 C5          1.2070   -0.6796   -0.0132 C.ar      1 <0>        -0.1365
      6 C6          0.0021   -0.0041    0.0020 C.ar      1 <0>        -0.0757
      7 O1          3.5855   -0.6319   -0.0353 O.3       1 <0>        -0.3226
      8 C7          4.7725    0.1638   -0.0424 C.3       1 <0>         0.0737
      9 C8          5.9808   -0.7367   -0.0583 C.cat     1 <0>         0.5149
     10 C9          7.2323   -2.6179   -0.0795 C.3       1 <0>         0.0481
     11 C10         8.1820   -1.4028   -0.0823 C.3       1 <0>         0.0691
     12 N1          7.2564   -0.2571   -0.0678 N.pl3     1 <0>        -0.6606
     13 H1         -0.9597    1.9047    0.0170 H         1 <0>         0.1338
     14 H2          1.1525    3.1682    0.0081 H         1 <0>         0.1339
     15 H3          3.3039    1.9724   -0.0187 H         1 <0>         0.1285
     16 H4          1.2211   -1.7595   -0.0195 H         1 <0>         0.1355
     17 H5         -0.9261   -0.5563    0.0076 H         1 <0>         0.1392
     18 H6          4.7798    0.7974   -0.9293 H         1 <0>         0.1324
     19 H7          4.7965    0.7884    0.8506 H         1 <0>         0.1325
     20 H8          7.3730   -3.2156   -0.9801 H         1 <0>         0.1316
     21 H9          7.3916   -3.2260    0.8109 H         1 <0>         0.1312
     22 H10         8.7928   -1.3933   -0.9851 H         1 <0>         0.1250
     23 H11         8.8117   -1.4006    0.8073 H         1 <0>         0.1252
     24 H12         7.5113    0.6788   -0.0650 H         1 <0>         0.4597
     25 N2          5.8875   -2.0183   -0.0583 N.pl3     1 <0>        -0.5960
     26 H13         5.0066   -2.5456   -0.0455 H         1 <0>         0.4832
@<TRIPOS>BOND
     1    1    6 ar
     2    1    2 ar
     3    1   13 1
     4    2    3 ar
     5    2   14 1
     6    3    4 ar
     7    3   15 1
     8    4    5 ar
     9    4    7 1
    10    5    6 ar
    11    5   16 1
    12    6   17 1
    13    7    8 1
    14    8    9 1
    15    8   18 1
    16    8   19 1
    17    9   12 1
    18    9   25 2
    19   10   11 1
    20   10   20 1
    21   10   21 1
    22   10   25 1
    23   11   12 1
    24   11   22 1
    25   11   23 1
    26   12   24 1
    27   25   26 1
@<TRIPOS>MOLECULE
ZINC00017887
   22    24     0     0     0
SMALL
USER_CHARGES
2-benzofuran-2-yl-1H-imidazole
@<TRIPOS>ATOM
      1 C1         -0.0126    1.0758    0.0080 C.ar      1 <0>        -0.1345
      2 C2         -1.2261    1.7488    0.0174 C.ar      1 <0>        -0.0868
      3 C3         -1.2673    3.1270    0.0304 C.ar      1 <0>        -0.1085
      4 C4         -0.0837    3.8543    0.0226 C.ar      1 <0>         0.0620
      5 C5          1.1435    3.1670    0.0077 C.ar      1 <0>        -0.1332
      6 C6          1.1644    1.7710    0.0005 C.ar      1 <0>        -0.0634
      7 C7          2.1776    4.2031    0.0028 C.2       1 <0>        -0.1360
      8 C8          1.5204    5.3903    0.0147 C.2       1 <0>         0.0901
      9 O1          0.1893    5.1748    0.0263 O.3       1 <0>        -0.1961
     10 C9          2.1637    6.7143    0.0141 C.2       1 <0>         0.2644
     11 N1          1.5177    7.9183    0.0201 N.pl3     1 <0>        -0.5617
     12 H1          0.5282    8.0627    0.0234 H         1 <0>         0.4327
     13 C10         2.4827    8.8895    0.0207 C.2       1 <0>        -0.0307
     14 C11         3.6767    8.2615    0.0057 C.2       1 <0>        -0.0208
     15 N2          3.4607    6.9419    0.0019 N.2       1 <0>        -0.4538
     16 H2          0.0021   -0.0041    0.0020 H         1 <0>         0.1330
     17 H3         -2.1484    1.1869    0.0187 H         1 <0>         0.1381
     18 H4         -2.2176    3.6399    0.0419 H         1 <0>         0.1338
     19 H5          2.1063    1.2427   -0.0114 H         1 <0>         0.1323
     20 H6          3.2471    4.0530   -0.0074 H         1 <0>         0.1707
     21 H7          2.3189    9.9570    0.0275 H         1 <0>         0.1869
     22 H8          4.6434    8.7430   -0.0026 H         1 <0>         0.1815
@<TRIPOS>BOND
     1    1    6 ar
     2    1    2 ar
     3    1   16 1
     4    2    3 ar
     5    2   17 1
     6    3    4 ar
     7    3   18 1
     8    4    9 1
     9    4    5 ar
    10    5    6 ar
    11    5    7 1
    12    6   19 1
    13    7    8 2
    14    7   20 1
    15    8    9 1
    16    8   10 1
    17   10   15 2
    18   10   11 1
    19   11   12 1
    20   11   13 1
    21   13   14 2
    22   13   21 1
    23   14   15 1
    24   14   22 1
@<TRIPOS>MOLECULE
ZINC01854466
   28    29     0     0     0
SMALL
USER_CHARGES

@<TRIPOS>ATOM
      1 H1          0.0021   -0.0041    0.0020 H         1 <0>         0.0820
      2 C1         -0.0127    1.0858    0.0080 C.3       1 <0>         0.0924
      3 C2         -0.6196    1.6075    1.3229 C.3       1 <0>         0.1008
      4 N1          0.4595    2.3889    1.9425 N.pl3     1 <0>        -0.7117
      5 C3          1.5591    2.3519    1.1321 C.2       1 <0>         0.6597
      6 N2          1.3572    1.6172   -0.0022 N.pl3     1 <0>        -0.7559
      7 N3          2.6884    2.9581    1.4128 N.2       1 <0>        -0.6084
      8 C4          3.7474    2.8719    0.5449 C.ar      1 <0>         0.0531
      9 C5          4.6905    1.8355    0.6554 C.ar      1 <0>         0.3458
     10 N4          5.6977    1.7928   -0.2061 N.ar      1 <0>        -0.5581
     11 C6          5.8185    2.7034   -1.1525 C.ar      1 <0>         0.3449
     12 N5          4.9566    3.6903   -1.2902 N.ar      1 <0>        -0.5200
     13 C7          3.9164    3.8082   -0.4778 C.ar      1 <0>         0.2030
     14 Cl1         2.7854    5.1100   -0.6769 Cl        1 <0>        -0.0016
     15 C8          6.9808    2.6123   -2.1074 C.3       1 <0>        -0.0821
     16 O1          4.5727    0.8962    1.6263 O.3       1 <0>        -0.2865
     17 C9          5.5740   -0.1224    1.6683 C.3       1 <0>         0.0363
     18 H2         -1.4807    2.2438    1.1182 H         1 <0>         0.0860
     19 H3         -0.9047    0.7755    1.9667 H         1 <0>         0.0856
     20 H4         -0.5732    1.4625   -0.8476 H         1 <0>         0.0831
     21 H5          2.0129    1.4699   -0.7017 H         1 <0>         0.4237
     22 H6          6.6965    2.0088   -2.9693 H         1 <0>         0.0879
     23 H7          7.2572    3.6129   -2.4398 H         1 <0>         0.0898
     24 H8          7.8294    2.1494   -1.6037 H         1 <0>         0.0876
     25 H9          6.5516    0.3351    1.8206 H         1 <0>         0.0629
     26 H10         5.3615   -0.8071    2.4894 H         1 <0>         0.1006
     27 H11         5.5728   -0.6722    0.7271 H         1 <0>         0.0610
     28 H12         0.4009    2.8557    2.7908 H         1 <0>         0.4381
@<TRIPOS>BOND
     1    1    2 1
     2    2    6 1
     3    2    3 1
     4    2   20 1
     5    3    4 1
     6    3   18 1
     7    3   19 1
     8    4    5 1
     9    4   28 1
    10    5    6 1
    11    5    7 2
    12    6   21 1
    13    7    8 1
    14    8   13 ar
    15    8    9 ar
    16    9   10 ar
    17    9   16 1
    18   10   11 ar
    19   11   12 ar
    20   11   15 1
    21   12   13 ar
    22   13   14 1
    23   15   22 1
    24   15   23 1
    25   15   24 1
    26   16   17 1
    27   17   25 1
    28   17   26 1
    29   17   27 1
@<TRIPOS>MOLECULE
ZINC25965531
   28    30     0     0     0
SMALL
USER_CHARGES
9-methyl-1,2,3,4-tetrahydropyrido[3,4-b]indole
@<TRIPOS>ATOM
      1 C1          4.9703    1.4242    0.4395 C.3       1 <0>         0.0724
      2 N1          3.6249    1.9497    0.1944 N.pl3     1 <0>        -0.4739
      3 C2          3.3371    3.2351   -0.1667 C.ar      1 <0>         0.0981
      4 C3          4.1487    4.3443   -0.3948 C.ar      1 <0>        -0.1318
      5 C4          3.5157    5.5214   -0.7544 C.ar      1 <0>        -0.1004
      6 C5          2.1395    5.6099   -0.8866 C.ar      1 <0>        -0.1509
      7 C6          1.3151    4.5340   -0.6687 C.ar      1 <0>        -0.0662
      8 C7          1.9276    3.3309   -0.3039 C.ar      1 <0>        -0.1017
      9 C8          1.4090    2.0159   -0.0006 C.2       1 <0>        -0.1592
     10 C9          2.4675    1.2264    0.2924 C.2       1 <0>         0.0610
     11 C10         2.3290   -0.2306    0.6655 C.3       1 <0>         0.1160
     12 N2          0.9279   -0.4863    1.0366 N.3       1 <0>        -0.6646
     13 C11         0.0021   -0.0041    0.0020 C.3       1 <0>         0.0461
     14 C12        -0.0187    1.5306    0.0105 C.3       1 <0>        -0.0426
     15 H1          5.7097    2.2244    0.2880 H         1 <0>         0.0879
     16 H2          5.1745    0.5992   -0.2589 H         1 <0>         0.0746
     17 H3          5.0368    1.0544    1.4733 H         1 <0>         0.0762
     18 H4          5.2226    4.2885   -0.2946 H         1 <0>         0.1251
     19 H5          4.1150    6.4008   -0.9386 H         1 <0>         0.1207
     20 H6          1.7013    6.5553   -1.1704 H         1 <0>         0.1182
     21 H7          0.2431    4.6131   -0.7738 H         1 <0>         0.1284
     22 H8          2.6103   -0.8574   -0.1936 H         1 <0>         0.0506
     23 H9          2.9897   -0.4558    1.5156 H         1 <0>         0.0900
     24 H10         0.7743   -1.5679    1.1655 H         1 <0>         0.3518
     25 H11         0.3355   -0.3612   -0.9836 H         1 <0>         0.0365
     26 H12        -1.0088   -0.3860    0.2077 H         1 <0>         0.0847
     27 H13        -0.5240    1.8987    0.9156 H         1 <0>         0.0782
     28 H14        -0.5414    1.9084   -0.8806 H         1 <0>         0.0750
@<TRIPOS>BOND
     1    1    2 1
     2    1   15 1
     3    1   16 1
     4    1   17 1
     5    2   10 1
     6    2    3 1
     7    3    8 ar
     8    3    4 ar
     9    4    5 ar
    10    4   18 1
    11    5    6 ar
    12    5   19 1
    13    6    7 ar
    14    6   20 1
    15    7    8 ar
    16    7   21 1
    17    8    9 1
    18    9   14 1
    19    9   10 2
    20   10   11 1
    21   11   12 1
    22   11   22 1
    23   11   23 1
    24   12   13 1
    25   12   24 1
    26   13   14 1
    27   13   25 1
    28   13   26 1
    29   14   27 1
    30   14   28 1
@<TRIPOS>MOLECULE
ZINC25965531
   29    31     0     0     0
SMALL
USER_CHARGES
9-methyl-1,2,3,4-tetrahydropyrido[3,4-b]indole
@<TRIPOS>ATOM
      1 C1          4.9703    1.4242    0.4395 C.3       1 <0>         0.0614
      2 N1          3.6249    1.9497    0.1944 N.pl3     1 <0>        -0.4575
      3 C2          3.3371    3.2351   -0.1667 C.ar      1 <0>         0.1090
      4 C3          4.1487    4.3443   -0.3948 C.ar      1 <0>        -0.1287
      5 C4          3.5157    5.5214   -0.7544 C.ar      1 <0>        -0.0814
      6 C5          2.1395    5.6099   -0.8866 C.ar      1 <0>        -0.1364
      7 C6          1.3151    4.5340   -0.6687 C.ar      1 <0>        -0.0649
      8 C7          1.9276    3.3309   -0.3039 C.ar      1 <0>        -0.1032
      9 C8          1.4090    2.0159   -0.0006 C.2       1 <0>        -0.1610
     10 C9          2.4675    1.2264    0.2924 C.2       1 <0>         0.0065
     11 C10         2.3290   -0.2306    0.6655 C.3       1 <0>         0.0793
     12 N2          0.9279   -0.4863    1.0366 N.4       1 <0>        -0.5295
     13 C11         0.0021   -0.0041    0.0020 C.3       1 <0>        -0.0014
     14 C12        -0.0187    1.5306    0.0105 C.3       1 <0>        -0.0729
     15 H1          5.7097    2.2244    0.2880 H         1 <0>         0.0988
     16 H2          5.1745    0.5992   -0.2589 H         1 <0>         0.0827
     17 H3          5.0368    1.0544    1.4733 H         1 <0>         0.0820
     18 H4          5.2226    4.2885   -0.2946 H         1 <0>         0.1336
     19 H5          4.1150    6.4008   -0.9386 H         1 <0>         0.1313
     20 H6          1.7013    6.5553   -1.1704 H         1 <0>         0.1282
     21 H7          0.2431    4.6131   -0.7738 H         1 <0>         0.1346
     22 H8          2.6103   -0.8574   -0.1936 H         1 <0>         0.1415
     23 H9          2.9897   -0.4558    1.5156 H         1 <0>         0.1405
     24 H10         0.7743   -1.5679    1.1655 H         1 <0>         0.4621
     25 H11         0.3355   -0.3612   -0.9836 H         1 <0>         0.1293
     26 H12        -1.0088   -0.3860    0.2077 H         1 <0>         0.1414
     27 H13        -0.5240    1.8987    0.9156 H         1 <0>         0.1000
     28 H14        -0.5414    1.9084   -0.8806 H         1 <0>         0.1184
     29 H15         0.6979    0.0316    1.9794 H         1 <0>         0.4562
@<TRIPOS>BOND
     1    1    2 1
     2    1   15 1
     3    1   16 1
     4    1   17 1
     5    2   10 1
     6    2    3 1
     7    3    8 ar
     8    3    4 ar
     9    4    5 ar
    10    4   18 1
    11    5    6 ar
    12    5   19 1
    13    6    7 ar
    14    6   20 1
    15    7    8 ar
    16    7   21 1
    17    8    9 1
    18    9   14 1
    19    9   10 2
    20   10   11 1
    21   11   12 1
    22   11   22 1
    23   11   23 1
    24   12   13 1
    25   12   24 1
    26   12   29 1
    27   13   14 1
    28   13   25 1
    29   13   26 1
    30   14   27 1
    31   14   28 1
@<TRIPOS>MOLECULE
ZINC19202437
   29    31     0     0     0
SMALL
USER_CHARGES

@<TRIPOS>ATOM
      1 C1         -0.0173    1.4248    0.0099 C.3       1 <0>         0.0283
      2 O1          0.0021   -0.0041    0.0020 O.3       1 <0>        -0.3192
      3 C2          0.6262   -0.6188    1.0422 C.ar      1 <0>         0.1012
      4 C3          1.2036    0.1450    2.0536 C.ar      1 <0>        -0.1788
      5 C4          1.8395   -0.4620    3.1130 C.ar      1 <0>        -0.0886
      6 C5          1.9106   -1.8490    3.1812 C.ar      1 <0>         0.0665
      7 C6          1.3276   -2.6252    2.1607 C.ar      1 <0>        -0.0573
      8 C7          0.6799   -1.9967    1.0938 C.ar      1 <0>        -0.1118
      9 C8          1.5756   -4.0133    2.5270 C.2       1 <0>        -0.1649
     10 C9          2.2593   -4.0096    3.6898 C.2       1 <0>         0.0807
     11 N1          2.4674   -2.7234    4.0932 N.pl3     1 <0>        -0.5858
     12 H1          2.9373   -2.4619    4.9005 H         1 <0>         0.4140
     13 C10         2.6970   -5.2756    4.3896 C.3       1 <0>         0.1236
     14 N2          1.9291   -6.4023    3.8352 N.3       1 <0>        -0.6853
     15 C11         1.9988   -6.4311    2.3675 C.3       1 <0>         0.0561
     16 C12         1.1765   -5.2684    1.7938 C.3       1 <0>        -0.0423
     17 H2          1.0053    1.8021    0.0021 H         1 <0>         0.0537
     18 H3         -0.5445    1.7859   -0.8732 H         1 <0>         0.0991
     19 H4         -0.5275    1.7763    0.9067 H         1 <0>         0.0539
     20 H5          1.1523    1.2227    2.0062 H         1 <0>         0.1321
     21 H6          2.2840    0.1398    3.8919 H         1 <0>         0.1237
     22 H7          0.2270   -2.5868    0.3109 H         1 <0>         0.1303
     23 H8          3.7615   -5.4387    4.2213 H         1 <0>         0.0527
     24 H9          2.5029   -5.1899    5.4588 H         1 <0>         0.0913
     25 H10         2.2373   -7.2786    4.2291 H         1 <0>         0.3535
     26 H11         3.0372   -6.3327    2.0509 H         1 <0>         0.0369
     27 H12         1.5956   -7.3760    2.0030 H         1 <0>         0.0826
     28 H13         0.1137   -5.4600    1.9420 H         1 <0>         0.0784
     29 H14         1.3872   -5.1570    0.7302 H         1 <0>         0.0754
@<TRIPOS>BOND
     1    1    2 1
     2    1   17 1
     3    1   18 1
     4    1   19 1
     5    2    3 1
     6    3    8 ar
     7    3    4 ar
     8    4    5 ar
     9    4   20 1
    10    5    6 ar
    11    5   21 1
    12    6   11 1
    13    6    7 ar
    14    7    8 ar
    15    7    9 1
    16    8   22 1
    17    9   16 1
    18    9   10 2
    19   10   11 1
    20   10   13 1
    21   11   12 1
    22   13   14 1
    23   13   23 1
    24   13   24 1
    25   14   15 1
    26   14   25 1
    27   15   16 1
    28   15   26 1
    29   15   27 1
    30   16   28 1
    31   16   29 1
@<TRIPOS>MOLECULE
ZINC00332024
   23    25     0     0     0
SMALL
USER_CHARGES
4,9-dihydro-3H-pyrido[3,4-b]indole
@<TRIPOS>ATOM
      1 C1          1.1636    3.1702    0.0082 C.ar      1 <0>        -0.1416
      2 C2          1.1700    1.7811    0.0005 C.ar      1 <0>        -0.0941
      3 C3         -0.0126    1.0758    0.0080 C.ar      1 <0>        -0.1270
      4 C4         -1.2259    1.7554    0.0174 C.ar      1 <0>         0.0972
      5 C5         -1.2319    3.1678    0.0284 C.ar      1 <0>        -0.0927
      6 C6         -0.0129    3.8599    0.0221 C.ar      1 <0>        -0.0705
      7 C7         -2.5784    3.5636    0.0391 C.2       1 <0>        -0.1411
      8 C8         -3.3527    2.4306    0.0446 C.2       1 <0>         0.0263
      9 N1         -2.5396    1.3318    0.0340 N.pl3     1 <0>        -0.5615
     10 H1         -2.8363    0.4083    0.0344 H         1 <0>         0.4213
     11 C9         -4.8199    2.5408    0.0625 C.2       1 <0>         0.2111
     12 N2         -5.3388    3.6877   -0.2578 N.2       1 <0>        -0.5050
     13 C10        -4.5585    4.8455   -0.6683 C.3       1 <0>         0.0386
     14 C11        -3.2056    4.9332    0.0409 C.3       1 <0>        -0.0755
     15 H2          2.0994    3.7093    0.0028 H         1 <0>         0.1248
     16 H3          2.1103    1.2499   -0.0119 H         1 <0>         0.1283
     17 H4          0.0021   -0.0041    0.0020 H         1 <0>         0.1226
     18 H5         -0.0053    4.9399    0.0278 H         1 <0>         0.1225
     19 H6         -5.4419    1.7000    0.3320 H         1 <0>         0.1713
     20 H7         -4.3885    4.7911   -1.7436 H         1 <0>         0.0823
     21 H8         -5.1278    5.7486   -0.4485 H         1 <0>         0.0982
     22 H9         -3.3506    5.2692    1.0676 H         1 <0>         0.0776
     23 H10        -2.5589    5.6338   -0.4873 H         1 <0>         0.0870
@<TRIPOS>BOND
     1    1    6 ar
     2    1    2 ar
     3    1   15 1
     4    2    3 ar
     5    2   16 1
     6    3    4 ar
     7    3   17 1
     8    4    9 1
     9    4    5 ar
    10    5    6 ar
    11    5    7 1
    12    6   18 1
    13    7   14 1
    14    7    8 2
    15    8    9 1
    16    8   11 1
    17    9   10 1
    18   11   12 2
    19   11   19 1
    20   12   13 1
    21   13   14 1
    22   13   20 1
    23   13   21 1
    24   14   22 1
    25   14   23 1
@<TRIPOS>MOLECULE
ZINC05393942
   30    32     0     0     0
SMALL
USER_CHARGES
8-methoxy-1,2,3,4-tetrahydropyrazino[1,2-a]indole
@<TRIPOS>ATOM
      1 C1         -4.0219    3.8769   -6.8373 C.3       1 <0>         0.0239
      2 O1         -2.7768    3.3104   -6.4240 O.3       1 <0>        -0.3153
      3 C2         -2.6378    3.0230   -5.1020 C.ar      1 <0>         0.1094
      4 C3         -3.6926    3.2900   -4.2375 C.ar      1 <0>        -0.1610
      5 C4         -3.6215    3.0238   -2.8820 C.ar      1 <0>        -0.0956
      6 C5         -2.4356    2.4687   -2.4044 C.ar      1 <0>         0.0889
      7 C6         -1.3586    2.1960   -3.2847 C.ar      1 <0>        -0.0826
      8 C7         -1.4468    2.4716   -4.6527 C.ar      1 <0>        -0.0949
      9 C8         -0.2975    1.6320   -2.4671 C.2       1 <0>        -0.1236
     10 C9         -0.7559    1.5925   -1.2065 C.2       1 <0>        -0.0105
     11 N1         -2.0413    2.0924   -1.1539 N.pl3     1 <0>        -0.4973
     12 C10        -2.8153    2.1767    0.0942 C.3       1 <0>         0.0911
     13 C11        -2.1520    1.2694    1.1360 C.3       1 <0>        -0.0111
     14 C12        -0.0127    1.0858    0.0080 C.3       1 <0>         0.0838
     15 H1         -4.0001    4.0570   -7.9121 H         1 <0>         0.1062
     16 H2         -4.8315    3.1864   -6.6010 H         1 <0>         0.0576
     17 H3         -4.1838    4.8193   -6.3141 H         1 <0>         0.0575
     18 H4         -4.5987    3.7204   -4.6377 H         1 <0>         0.1376
     19 H5         -4.4496    3.2366   -2.2222 H         1 <0>         0.1349
     20 H6         -0.6279    2.2657   -5.3262 H         1 <0>         0.1475
     21 H7          0.6741    1.3070   -2.8087 H         1 <0>         0.1619
     22 H8         -2.8211    3.2057    0.4539 H         1 <0>         0.1036
     23 H9         -3.8378    1.8441   -0.0847 H         1 <0>         0.1266
     24 H10        -2.6086    1.4422    2.1106 H         1 <0>         0.1545
     25 H11        -2.2921    0.2268    0.8505 H         1 <0>         0.1412
     26 H12         0.0021   -0.0041    0.0020 H         1 <0>         0.1476
     27 H13         1.0082    1.4675    0.0003 H         1 <0>         0.1539
     28 N2         -0.7093    1.5718    1.2186 N.4       1 <0>        -0.5201
     29 H14        -0.3133    1.1100    2.0456 H         1 <0>         0.4458
     30 H15        -0.5802    2.5873    1.2989 H         1 <0>         0.4384
@<TRIPOS>BOND
     1    1    2 1
     2    1   15 1
     3    1   16 1
     4    1   17 1
     5    2    3 1
     6    3    8 ar
     7    3    4 ar
     8    4    5 ar
     9    4   18 1
    10    5    6 ar
    11    5   19 1
    12    6   11 1
    13    6    7 ar
    14    7    8 ar
    15    7    9 1
    16    8   20 1
    17    9   10 2
    18    9   21 1
    19   10   14 1
    20   10   11 1
    21   11   12 1
    22   12   13 1
    23   12   22 1
    24   12   23 1
    25   13   24 1
    26   13   25 1
    27   13   28 1
    28   14   26 1
    29   14   27 1
    30   14   28 1
    31   28   29 1
    32   28   30 1
@<TRIPOS>MOLECULE
ZINC19228212
   25    27     0     0     0
SMALL
USER_CHARGES

@<TRIPOS>ATOM
      1 C1         -0.0164    1.3616    0.0095 C.ar      1 <0>        -0.1434
      2 C2          1.1695    2.0834    0.0021 C.ar      1 <0>        -0.0996
      3 C3          2.3849    1.4355   -0.0133 C.ar      1 <0>        -0.1290
      4 C4          2.4283    0.0454   -0.0215 C.ar      1 <0>         0.0926
      5 C5          1.2226   -0.6833   -0.0136 C.ar      1 <0>        -0.0925
      6 C6          0.0021   -0.0041    0.0020 C.ar      1 <0>        -0.0725
      7 C7          1.6081   -2.0889   -0.0255 C.2       1 <0>        -0.2105
      8 C8          2.9559   -2.1363   -0.0386 C.2       1 <0>         0.0756
      9 N1          3.4598   -0.8692   -0.0373 N.pl3     1 <0>        -0.5863
     10 H1          4.4035   -0.6448   -0.0462 H         1 <0>         0.4138
     11 C9          3.7278   -3.4364   -0.0498 C.3       1 <0>        -0.0960
     12 C10         2.7672   -4.5603    0.3602 C.3       1 <0>         0.0628
     13 N2          1.5326   -4.4689   -0.4317 N.3       1 <0>        -0.6828
     14 C11         0.7223   -3.3075   -0.0264 C.3       1 <0>         0.1310
     15 H2         -0.9614    1.8843    0.0259 H         1 <0>         0.1237
     16 H3          1.1387    3.1629    0.0080 H         1 <0>         0.1262
     17 H4          3.3021    2.0057   -0.0192 H         1 <0>         0.1192
     18 H5         -0.9252   -0.5578    0.0078 H         1 <0>         0.1223
     19 H6          4.1129   -3.6278   -1.0514 H         1 <0>         0.0835
     20 H7          4.5540   -3.3807    0.6590 H         1 <0>         0.0839
     21 H8          3.2414   -5.5256    0.1827 H         1 <0>         0.0882
     22 H9          2.5271   -4.4640    1.4190 H         1 <0>         0.0788
     23 H10         1.7377   -4.4397   -1.4192 H         1 <0>         0.3445
     24 H11         0.3212   -3.4708    0.9739 H         1 <0>         0.0829
     25 H12        -0.0961   -3.1662   -0.7322 H         1 <0>         0.0835
@<TRIPOS>BOND
     1    1    6 ar
     2    1    2 ar
     3    1   15 1
     4    2    3 ar
     5    2   16 1
     6    3    4 ar
     7    3   17 1
     8    4    9 1
     9    4    5 ar
    10    5    6 ar
    11    5    7 1
    12    6   18 1
    13    7   14 1
    14    7    8 2
    15    8    9 1
    16    8   11 1
    17    9   10 1
    18   11   12 1
    19   11   19 1
    20   11   20 1
    21   12   13 1
    22   12   21 1
    23   12   22 1
    24   13   14 1
    25   13   23 1
    26   14   24 1
    27   14   25 1
@<TRIPOS>MOLECULE
ZINC19418965
   25    27     0     0     0
SMALL
USER_CHARGES

@<TRIPOS>ATOM
      1 C1         -0.0164    1.3616    0.0095 C.ar      1 <0>        -0.1454
      2 C2          1.1695    2.0833    0.0021 C.ar      1 <0>        -0.0997
      3 C3          2.3848    1.4354   -0.0136 C.ar      1 <0>        -0.1295
      4 C4          2.4283    0.0454   -0.0218 C.ar      1 <0>         0.0961
      5 C5          1.2225   -0.6835   -0.0137 C.ar      1 <0>        -0.0978
      6 C6          0.0021   -0.0041    0.0020 C.ar      1 <0>        -0.0713
      7 C7          1.6088   -2.0882   -0.0263 C.2       1 <0>        -0.1591
      8 C8          2.9566   -2.1372   -0.0397 C.2       1 <0>         0.0694
      9 N1          3.4598   -0.8692   -0.0378 N.pl3     1 <0>        -0.5861
     10 H1          4.4034   -0.6444   -0.0464 H         1 <0>         0.4138
     11 C9          3.7316   -3.4345   -0.0523 C.3       1 <0>         0.1245
     12 N2          2.8254   -4.5211    0.3537 N.3       1 <0>        -0.6853
     13 C10         1.5870   -4.5132   -0.4375 C.3       1 <0>         0.0560
     14 C11         0.7260   -3.3100   -0.0273 C.3       1 <0>        -0.0425
     15 H2         -0.9614    1.8843    0.0259 H         1 <0>         0.1229
     16 H3          1.1388    3.1629    0.0083 H         1 <0>         0.1256
     17 H4          3.3020    2.0056   -0.0198 H         1 <0>         0.1194
     18 H5         -0.9252   -0.5577    0.0086 H         1 <0>         0.1211
     19 H6          4.1088   -3.6271   -1.0567 H         1 <0>         0.0518
     20 H7          4.5651   -3.3710    0.6473 H         1 <0>         0.0906
     21 H8          3.2861   -5.4169    0.2954 H         1 <0>         0.3535
     22 H9          1.8330   -4.4399   -1.4969 H         1 <0>         0.0367
     23 H10         1.0338   -5.4347   -0.2558 H         1 <0>         0.0824
     24 H11         0.3182   -3.4712    0.9706 H         1 <0>         0.0782
     25 H12        -0.0865   -3.1773   -0.7416 H         1 <0>         0.0748
@<TRIPOS>BOND
     1    1    6 ar
     2    1    2 ar
     3    1   15 1
     4    2    3 ar
     5    2   16 1
     6    3    4 ar
     7    3   17 1
     8    4    9 1
     9    4    5 ar
    10    5    6 ar
    11    5    7 1
    12    6   18 1
    13    7   14 1
    14    7    8 2
    15    8    9 1
    16    8   11 1
    17    9   10 1
    18   11   12 1
    19   11   19 1
    20   11   20 1
    21   12   13 1
    22   12   21 1
    23   13   14 1
    24   13   22 1
    25   13   23 1
    26   14   24 1
    27   14   25 1
@<TRIPOS>MOLECULE
ZINC11919626
   27    29     0     0     0
SMALL
USER_CHARGES
8-methoxy-4,9-dihydro-3H-pyrido[3,4-b]indole
@<TRIPOS>ATOM
      1 C1         -1.6812    7.1992    0.0466 C.3       1 <0>         0.0296
      2 O1         -0.7664    6.1014    0.0344 O.3       1 <0>        -0.3198
      3 C2         -1.3019    4.8516    0.0345 C.ar      1 <0>         0.1218
      4 C3         -2.6756    4.6505    0.0369 C.ar      1 <0>        -0.1940
      5 C4         -3.2335    3.3823    0.0353 C.ar      1 <0>        -0.1046
      6 C5         -2.4674    2.2456    0.0267 C.ar      1 <0>        -0.1044
      7 C6         -1.0725    2.4120    0.0196 C.ar      1 <0>        -0.0589
      8 C7         -0.4949    3.7111    0.0231 C.ar      1 <0>         0.0771
      9 N1          0.8659    3.5617    0.0098 N.pl3     1 <0>        -0.5451
     10 H1          1.5155    4.2821    0.0062 H         1 <0>         0.4254
     11 C8          1.1549    2.2223    0.0030 C.2       1 <0>         0.0272
     12 C9         -0.0184    1.5030    0.0103 C.2       1 <0>        -0.1454
     13 C10         0.0021   -0.0041    0.0020 C.3       1 <0>        -0.0727
     14 C11         1.2587   -0.4672   -0.7372 C.3       1 <0>         0.0380
     15 N2          2.4509    0.2677   -0.3413 N.2       1 <0>        -0.5033
     16 C12         2.4488    1.5233   -0.0090 C.2       1 <0>         0.2107
     17 H2         -2.3006    7.1460    0.9419 H         1 <0>         0.0580
     18 H3         -1.1243    8.1362    0.0452 H         1 <0>         0.1017
     19 H4         -2.3163    7.1527   -0.8380 H         1 <0>         0.0579
     20 H5         -3.3299    5.5097    0.0437 H         1 <0>         0.1276
     21 H6         -4.3092    3.2860    0.0408 H         1 <0>         0.1228
     22 H7         -2.9172    1.2637    0.0256 H         1 <0>         0.1322
     23 H8          0.0217   -0.3758    1.0265 H         1 <0>         0.0779
     24 H9         -0.8855   -0.3797   -0.5070 H         1 <0>         0.0878
     25 H10         1.4154   -1.5266   -0.5341 H         1 <0>         0.0985
     26 H11         1.1054   -0.3343   -1.8081 H         1 <0>         0.0824
     27 H12         3.3640    2.0354    0.2489 H         1 <0>         0.1712
@<TRIPOS>BOND
     1    1    2 1
     2    1   17 1
     3    1   18 1
     4    1   19 1
     5    2    3 1
     6    3    8 ar
     7    3    4 ar
     8    4    5 ar
     9    4   20 1
    10    5    6 ar
    11    5   21 1
    12    6    7 ar
    13    6   22 1
    14    7   12 1
    15    7    8 ar
    16    8    9 1
    17    9   10 1
    18    9   11 1
    19   11   16 1
    20   11   12 2
    21   12   13 1
    22   13   14 1
    23   13   23 1
    24   13   24 1
    25   14   15 1
    26   14   25 1
    27   14   26 1
    28   15   16 2
    29   16   27 1
@<TRIPOS>MOLECULE
ZINC18847046
   29    31     0     0     0
SMALL
USER_CHARGES

@<TRIPOS>ATOM
      1 C1         -0.0184    1.5028    0.0103 C.3       1 <0>        -0.1424
      2 C2          0.0021   -0.0041    0.0020 C.ar      1 <0>         0.1556
      3 C3          0.0057   -0.6865   -1.2084 C.ar      1 <0>         0.1146
      4 C4          0.0254   -2.0919   -1.1857 C.ar      1 <0>         0.0189
      5 C5          0.0408   -2.7431    0.0474 C.ar      1 <0>        -0.0789
      6 C6          0.0361   -1.9836    1.1979 C.ar      1 <0>         0.0838
      7 N1          0.0219   -0.6634    1.1422 N.ar      1 <0>        -0.4304
      8 C7          0.0239   -2.5347   -2.5884 C.ar      1 <0>        -0.1673
      9 C8          0.0375   -3.7874   -3.2002 C.ar      1 <0>         0.0049
     10 C9          0.0309   -3.8808   -4.5734 C.ar      1 <0>        -0.2172
     11 C10         0.0111   -2.7283   -5.3537 C.ar      1 <0>         0.2058
     12 C11        -0.0026   -1.4801   -4.7588 C.ar      1 <0>        -0.1848
     13 C12         0.0034   -1.3698   -3.3723 C.ar      1 <0>         0.2065
     14 N2         -0.0072   -0.2742   -2.5278 N.pl3     1 <0>        -0.5835
     15 H1         -0.0219    0.6508   -2.8196 H         1 <0>         0.4355
     16 O1          0.0057   -2.8305   -6.7086 O.3       1 <0>        -0.3026
     17 C13         0.0210   -4.1488   -7.2598 C.3       1 <0>         0.0197
     18 H2          1.0042    1.8801    0.0026 H         1 <0>         0.1154
     19 H3         -0.5455    1.8639   -0.8728 H         1 <0>         0.1057
     20 H4         -0.5286    1.8543    0.9071 H         1 <0>         0.1048
     21 H5          0.0557   -3.8217    0.1000 H         1 <0>         0.1843
     22 H6          0.0478   -2.4751    2.1595 H         1 <0>         0.2108
     23 H7          0.0536   -4.6834   -2.5974 H         1 <0>         0.1456
     24 H8          0.0415   -4.8513   -5.0470 H         1 <0>         0.1504
     25 H9         -0.0176   -0.5905   -5.3710 H         1 <0>         0.1490
     26 H10         0.9199   -4.6699   -6.9305 H         1 <0>         0.0657
     27 H11        -0.8598   -4.6944   -6.9214 H         1 <0>         0.0657
     28 H12         0.0146   -4.0877   -8.3481 H         1 <0>         0.1130
     29 H13         0.0229   -0.1610    1.9720 H         1 <0>         0.4514
@<TRIPOS>BOND
     1    1    2 1
     2    1   18 1
     3    1   19 1
     4    1   20 1
     5    2    7 ar
     6    2    3 ar
     7    3   14 1
     8    3    4 ar
     9    4    5 ar
    10    4    8 1
    11    5    6 ar
    12    5   21 1
    13    6    7 ar
    14    6   22 1
    15    7   29 1
    16    8   13 ar
    17    8    9 ar
    18    9   10 ar
    19    9   23 1
    20   10   11 ar
    21   10   24 1
    22   11   12 ar
    23   11   16 1
    24   12   13 ar
    25   12   25 1
    26   13   14 1
    27   14   15 1
    28   16   17 1
    29   17   26 1
    30   17   27 1
    31   17   28 1
@<TRIPOS>MOLECULE
ZINC25963555
   29    31     0     0     0
SMALL
USER_CHARGES

@<TRIPOS>ATOM
      1 C1         -0.0173    1.4248    0.0099 C.3       1 <0>         0.0296
      2 O1          0.0021   -0.0041    0.0020 O.3       1 <0>        -0.3259
      3 C2         -1.2008   -0.6377    0.0101 C.ar      1 <0>         0.1233
      4 C3         -2.3716    0.0968    0.0195 C.ar      1 <0>        -0.1996
      5 C4         -3.6041   -0.5410    0.0278 C.ar      1 <0>        -0.1035
      6 C5         -3.6812   -1.9047    0.0273 C.ar      1 <0>        -0.1097
      7 C6         -2.5118   -2.6706    0.0180 C.ar      1 <0>        -0.0600
      8 C7         -1.2578   -2.0312    0.0032 C.ar      1 <0>         0.0714
      9 N1         -0.2936   -3.0185   -0.0114 N.pl3     1 <0>        -0.5725
     10 H1          0.6637   -2.8623   -0.0202 H         1 <0>         0.4180
     11 C8         -0.8870   -4.2461   -0.0112 C.2       1 <0>         0.0471
     12 C9         -2.2278   -4.0996    0.0144 C.2       1 <0>        -0.1812
     13 C10        -3.1963   -5.2546    0.0177 C.3       1 <0>        -0.0803
     14 C11        -2.4233   -6.5197   -0.3814 C.3       1 <0>         0.0534
     15 N2         -1.1908   -6.6114    0.4138 N.3       1 <0>        -0.6744
     16 C12        -0.2077   -5.5961   -0.0205 C.3       1 <0>         0.1215
     17 H2          1.0053    1.8021    0.0021 H         1 <0>         0.1000
     18 H3         -0.5445    1.7859   -0.8732 H         1 <0>         0.0570
     19 H4         -0.5275    1.7763    0.9067 H         1 <0>         0.0570
     20 H5         -2.3270    1.1759    0.0208 H         1 <0>         0.1312
     21 H6         -4.5105    0.0462    0.0351 H         1 <0>         0.1259
     22 H7         -4.6454   -2.3912    0.0345 H         1 <0>         0.1229
     23 H8         -3.6181   -5.3794    1.0150 H         1 <0>         0.0723
     24 H9         -3.9948   -5.0684   -0.7006 H         1 <0>         0.0784
     25 H10        -3.0421   -7.3975   -0.1953 H         1 <0>         0.0854
     26 H11        -2.1697   -6.4716   -1.4404 H         1 <0>         0.0768
     27 H12        -1.3911   -6.5424    1.4004 H         1 <0>         0.3497
     28 H13         0.1546   -5.8178   -1.0243 H         1 <0>         0.0974
     29 H14         0.6281   -5.5913    0.6792 H         1 <0>         0.0889
@<TRIPOS>BOND
     1    1    2 1
     2    1   17 1
     3    1   18 1
     4    1   19 1
     5    2    3 1
     6    3    8 ar
     7    3    4 ar
     8    4    5 ar
     9    4   20 1
    10    5    6 ar
    11    5   21 1
    12    6    7 ar
    13    6   22 1
    14    7   12 1
    15    7    8 ar
    16    8    9 1
    17    9   10 1
    18    9   11 1
    19   11   16 1
    20   11   12 2
    21   12   13 1
    22   13   14 1
    23   13   23 1
    24   13   24 1
    25   14   15 1
    26   14   25 1
    27   14   26 1
    28   15   16 1
    29   15   27 1
    30   16   28 1
    31   16   29 1
@<TRIPOS>MOLECULE
ZINC00009708
   30    32     0     0     0
SMALL
USER_CHARGES

@<TRIPOS>ATOM
      1 C1         -0.0187    1.5258    0.0104 C.3       1 <0>        -0.1745
      2 C2          1.3165    0.7789   -0.0063 C.3       1 <0>        -0.1496
      3 C3          0.0021   -0.0041    0.0020 C.3       1 <0>        -0.1820
      4 C4         -0.4085   -0.7090   -1.2923 C.3       1 <0>         0.1969
      5 C5         -0.3218   -2.2241   -1.0975 C.3       1 <0>        -0.1855
      6 C6          0.7690   -2.9738   -1.8649 C.3       1 <0>        -0.1502
      7 C7         -0.6953   -3.1118   -2.2864 C.3       1 <0>        -0.1851
      8 N1         -1.7839   -0.3387   -1.6350 N.pl3     1 <0>        -0.6340
      9 C8         -2.2061   -0.3983   -2.9405 C.cat     1 <0>         0.6650
     10 N2         -3.4079   -0.0795   -3.3114 N.pl3     1 <0>        -0.6496
     11 C9         -3.5056   -0.2518   -4.7740 C.3       1 <0>         0.0477
     12 C10        -2.0166   -0.3521   -5.1861 C.3       1 <0>         0.0296
     13 O1         -1.4083   -0.7877   -3.9547 O.3       1 <0>        -0.2700
     14 H1         -0.3072    2.0201    0.9381 H         1 <0>         0.1083
     15 H2         -0.3248    2.0300   -0.9061 H         1 <0>         0.0949
     16 H3          1.8888    0.7918   -0.9339 H         1 <0>         0.1027
     17 H4          1.9064    0.7818    0.9103 H         1 <0>         0.1113
     18 H5         -0.2728   -0.5162    0.9241 H         1 <0>         0.1252
     19 H6          0.2605   -0.4075   -2.0983 H         1 <0>         0.1093
     20 H7         -0.5751   -2.5852   -0.1007 H         1 <0>         0.1219
     21 H8          1.4249   -2.3876   -2.5086 H         1 <0>         0.1025
     22 H9          1.2338   -3.8282   -1.3729 H         1 <0>         0.1088
     23 H10        -1.1938   -4.0570   -2.0717 H         1 <0>         0.1042
     24 H11        -1.0027   -2.6164   -3.2074 H         1 <0>         0.0978
     25 H12        -2.3963   -0.0513   -0.9398 H         1 <0>         0.4417
     26 H13        -4.0411   -1.1679   -5.0232 H         1 <0>         0.1298
     27 H14        -3.9803    0.6132   -5.2371 H         1 <0>         0.1407
     28 H15        -1.8780   -1.0899   -5.9764 H         1 <0>         0.1573
     29 H16        -1.6277    0.6203   -5.4881 H         1 <0>         0.1247
     30 H17        -4.1212    0.2207   -2.7266 H         1 <0>         0.4603
@<TRIPOS>BOND
     1    1    3 1
     2    1    2 1
     3    1   14 1
     4    1   15 1
     5    2    3 1
     6    2   16 1
     7    2   17 1
     8    3    4 1
     9    3   18 1
    10    4    5 1
    11    4    8 1
    12    4   19 1
    13    5    7 1
    14    5    6 1
    15    5   20 1
    16    6    7 1
    17    6   21 1
    18    6   22 1
    19    7   23 1
    20    7   24 1
    21    8    9 1
    22    8   25 1
    23    9   13 1
    24    9   10 2
    25   10   11 1
    26   10   30 1
    27   11   12 1
    28   11   26 1
    29   11   27 1
    30   12   13 1
    31   12   28 1
    32   12   29 1
@<TRIPOS>MOLECULE
ZINC13130932
   26    28     0     0     0
SMALL
USER_CHARGES

@<TRIPOS>ATOM
      1 C1         -0.0184    1.5028    0.0103 C.3       1 <0>        -0.1061
      2 C2          0.0021   -0.0041    0.0020 C.2       1 <0>         0.2317
      3 N1          0.0060   -0.6709   -1.1125 N.2       1 <0>        -0.5109
      4 C3         -0.0148   -2.1242   -1.1868 C.3       1 <0>         0.0439
      5 C4          0.7509   -2.7891   -0.0416 C.3       1 <0>        -0.0759
      6 C5          0.3756   -2.1016    1.2461 C.2       1 <0>        -0.1366
      7 C6          0.0244   -0.7727    1.2555 C.2       1 <0>         0.0283
      8 N2         -0.2646   -0.3909    2.5401 N.pl3     1 <0>        -0.5573
      9 H1         -0.5435    0.4953    2.8189 H         1 <0>         0.4208
     10 C7         -0.0935   -1.4706    3.3620 C.ar      1 <0>         0.0996
     11 C8          0.3045   -2.5684    2.5557 C.ar      1 <0>        -0.0958
     12 C9          0.5553   -3.8247    3.1289 C.ar      1 <0>        -0.0656
     13 C10         0.3833   -3.9379    4.4845 C.ar      1 <0>        -0.1463
     14 C11        -0.0194   -2.8697    5.2700 C.ar      1 <0>        -0.0943
     15 C12        -0.2523   -1.6182    4.7379 C.ar      1 <0>        -0.1286
     16 H2          1.0042    1.8801    0.0026 H         1 <0>         0.0870
     17 H3         -0.5455    1.8639   -0.8728 H         1 <0>         0.0879
     18 H4         -0.5286    1.8543    0.9071 H         1 <0>         0.0710
     19 H5         -1.0506   -2.4625   -1.1599 H         1 <0>         0.0802
     20 H6          0.4292   -2.4340   -2.1328 H         1 <0>         0.0977
     21 H7          0.4825   -3.8441    0.0146 H         1 <0>         0.0871
     22 H8          1.8230   -2.6893   -0.2112 H         1 <0>         0.0777
     23 H9          0.8696   -4.6656    2.5285 H         1 <0>         0.1302
     24 H10         0.5682   -4.8917    4.9561 H         1 <0>         0.1204
     25 H11        -0.1375   -3.0183    6.3332 H         1 <0>         0.1244
     26 H12        -0.5630   -0.7931    5.3616 H         1 <0>         0.1296
@<TRIPOS>BOND
     1    1    2 1
     2    1   16 1
     3    1   17 1
     4    1   18 1
     5    2    7 1
     6    2    3 2
     7    3    4 1
     8    4    5 1
     9    4   19 1
    10    4   20 1
    11    5    6 1
    12    5   21 1
    13    5   22 1
    14    6   11 1
    15    6    7 2
    16    7    8 1
    17    8    9 1
    18    8   10 1
    19   10   15 ar
    20   10   11 ar
    21   11   12 ar
    22   12   13 ar
    23   12   23 1
    24   13   14 ar
    25   13   24 1
    26   14   15 ar
    27   14   25 1
    28   15   26 1
@<TRIPOS>MOLECULE
ZINC02539822
   23    24     0     0     0
SMALL
USER_CHARGES

@<TRIPOS>ATOM
      1 C1         -0.0166    1.3765    0.0096 C.ar      1 <0>        -0.0545
      2 C2          1.1705    2.0878    0.0021 C.ar      1 <0>        -0.1138
      3 C3          2.3836    1.4217   -0.0135 C.ar      1 <0>        -0.0545
      4 C4          2.4168    0.0415   -0.0213 C.ar      1 <0>        -0.0640
      5 C5          1.2226   -0.6826   -0.0133 C.ar      1 <0>         0.1998
      6 C6          0.0021   -0.0041    0.0020 C.ar      1 <0>        -0.0642
      7 Cl1        -1.4882   -0.8944    0.0121 Cl        1 <0>        -0.0437
      8 N1          1.2484   -2.0531   -0.0210 N.2       1 <0>        -0.6281
      9 C7          1.2720   -2.7154    1.1120 C.2       1 <0>         0.6681
     10 N2          1.2669   -2.1144    2.3384 N.pl3     1 <0>        -0.7529
     11 C8          1.2980   -3.1500    3.3804 C.3       1 <0>         0.0924
     12 C9          1.3230   -4.4785    2.6033 C.3       1 <0>         0.0999
     13 N3          1.2985   -4.0787    1.1896 N.pl3     1 <0>        -0.7119
     14 Cl2         3.9395   -0.7921   -0.0415 Cl        1 <0>        -0.0438
     15 I1          1.1312    4.1824    0.0138 I         1 <0>        -0.0194
     16 H1         -0.9598    1.9024    0.0260 H         1 <0>         0.1428
     17 H2          3.3064    1.9829   -0.0201 H         1 <0>         0.1428
     18 H3          1.2460   -1.1575    2.4962 H         1 <0>         0.4274
     19 H4          2.1957   -3.0490    3.9903 H         1 <0>         0.0837
     20 H5          0.4053   -3.0902    4.0030 H         1 <0>         0.0837
     21 H6          2.2331   -5.0342    2.8292 H         1 <0>         0.0861
     22 H7          0.4427   -5.0753    2.8418 H         1 <0>         0.0859
     23 H8          1.3028   -4.6855    0.4328 H         1 <0>         0.4381
@<TRIPOS>BOND
     1    1    6 ar
     2    1    2 ar
     3    1   16 1
     4    2    3 ar
     5    2   15 1
     6    3    4 ar
     7    3   17 1
     8    4    5 ar
     9    4   14 1
    10    5    6 ar
    11    5    8 1
    12    6    7 1
    13    8    9 2
    14    9   13 1
    15    9   10 1
    16   10   11 1
    17   10   18 1
    18   11   12 1
    19   11   19 1
    20   11   20 1
    21   12   13 1
    22   12   21 1
    23   12   22 1
    24   13   23 1
@<TRIPOS>MOLECULE
ZINC02567727
   25    27     0     0     0
SMALL
USER_CHARGES

@<TRIPOS>ATOM
      1 C1         -0.0165    1.3621    0.0095 C.ar      1 <0>        -0.1271
      2 C2          1.1708    2.0817    0.0021 C.ar      1 <0>        -0.0509
      3 C3          2.3869    1.4339   -0.0135 C.ar      1 <0>        -0.1154
      4 C4          2.4308    0.0444   -0.0214 C.ar      1 <0>         0.0966
      5 C5          1.2245   -0.6798   -0.0133 C.ar      1 <0>        -0.1594
      6 C6          0.0021   -0.0041    0.0020 C.ar      1 <0>        -0.0464
      7 C7          1.6095   -2.0910   -0.0252 C.2       1 <0>        -0.0550
      8 C8          2.9664   -2.1104   -0.0390 C.2       1 <0>        -0.0509
      9 O1          3.4406   -0.8473   -0.0367 O.3       1 <0>        -0.1756
     10 C9          3.7956   -3.3261   -0.0543 C.cat     1 <0>         0.6037
     11 N1          3.4054   -4.4675    0.4958 N.pl3     1 <0>        -0.6279
     12 C10         4.4562   -5.4800    0.3082 C.3       1 <0>         0.0644
     13 C11         5.5545   -4.7211   -0.4633 C.3       1 <0>         0.0589
     14 N2          4.9919   -3.3713   -0.6242 N.pl3     1 <0>        -0.6267
     15 H1         -0.9609    1.8856    0.0259 H         1 <0>         0.1453
     16 H2          1.1408    3.1613    0.0082 H         1 <0>         0.1512
     17 H3          3.3039    2.0044   -0.0199 H         1 <0>         0.1456
     18 H4         -0.9244   -0.5591    0.0075 H         1 <0>         0.1418
     19 H5          0.9479   -2.9446   -0.0230 H         1 <0>         0.1798
     20 H6          4.8325   -5.8255    1.2710 H         1 <0>         0.1316
     21 H7          4.0817   -6.3169   -0.2813 H         1 <0>         0.1309
     22 H8          6.4775   -4.6888    0.1156 H         1 <0>         0.1306
     23 H9          5.7268   -5.1803   -1.4368 H         1 <0>         0.1310
     24 H10         5.4281   -2.6309   -1.0741 H         1 <0>         0.4630
     25 H11         2.5609   -4.6121    0.9504 H         1 <0>         0.4610
@<TRIPOS>BOND
     1    1    6 ar
     2    1    2 ar
     3    1   15 1
     4    2    3 ar
     5    2   16 1
     6    3    4 ar
     7    3   17 1
     8    4    9 1
     9    4    5 ar
    10    5    6 ar
    11    5    7 1
    12    6   18 1
    13    7    8 2
    14    7   19 1
    15    8    9 1
    16    8   10 1
    17   10   14 1
    18   10   11 2
    19   11   12 1
    20   11   25 1
    21   12   13 1
    22   12   20 1
    23   12   21 1
    24   13   14 1
    25   13   22 1
    26   13   23 1
    27   14   24 1
@<TRIPOS>MOLECULE
ZINC03872735
   23    23     0     0     0
SMALL
USER_CHARGES

@<TRIPOS>ATOM
      1 C1         -0.0167    1.3796    0.0096 C.ar      1 <0>        -0.0533
      2 C2          1.1675    2.0954    0.0022 C.ar      1 <0>        -0.1040
      3 C3          2.3785    1.4334   -0.0130 C.ar      1 <0>         0.0114
      4 C4          2.4065    0.0344   -0.0208 C.ar      1 <0>        -0.0729
      5 C5          1.2044   -0.6817   -0.0131 C.ar      1 <0>         0.0232
      6 C6          0.0021   -0.0041    0.0020 C.ar      1 <0>        -0.1093
      7 Cl1         1.2252   -2.4176   -0.0233 Cl        1 <0>        -0.0389
      8 C7          3.6930   -0.6797   -0.0374 C.2       1 <0>         0.1785
      9 N1          3.7150   -1.9845   -0.0446 N.2       1 <0>        -0.2929
     10 N2          4.8427   -2.6105   -0.0592 N.pl3     1 <0>        -0.4764
     11 C8          4.8649   -3.9280   -0.0665 C.cat     1 <0>         0.7594
     12 N3          3.6886   -4.6338   -0.0586 N.pl3     1 <0>        -0.7845
     13 N4          6.0642   -4.5937   -0.0820 N.pl3     1 <0>        -0.8001
     14 Cl2         3.8628    2.3338   -0.0229 Cl        1 <0>        -0.0342
     15 H1         -0.9608    1.9037    0.0260 H         1 <0>         0.1570
     16 H2          1.1441    3.1752    0.0078 H         1 <0>         0.1561
     17 H3         -0.9267   -0.5552    0.0079 H         1 <0>         0.1537
     18 H4          4.6191   -0.1240   -0.0436 H         1 <0>         0.1489
     19 H5          2.8406   -4.1630   -0.0477 H         1 <0>         0.4391
     20 H6          3.7050   -5.6036   -0.0640 H         1 <0>         0.4392
     21 H7          6.8959   -4.0946   -0.0876 H         1 <0>         0.4408
     22 H8          6.0805   -5.5636   -0.0874 H         1 <0>         0.4457
     23 H9          5.6745   -2.1114   -0.0648 H         1 <0>         0.4134
@<TRIPOS>BOND
     1    1    6 ar
     2    1    2 ar
     3    1   15 1
     4    2    3 ar
     5    2   16 1
     6    3    4 ar
     7    3   14 1
     8    4    5 ar
     9    4    8 1
    10    5    6 ar
    11    5    7 1
    12    6   17 1
    13    8    9 2
    14    8   18 1
    15    9   10 1
    16   10   11 2
    17   10   23 1
    18   11   12 1
    19   11   13 1
    20   12   19 1
    21   12   20 1
    22   13   21 1
    23   13   22 1
@<TRIPOS>MOLECULE
ZINC02379521
   31    32     0     0     0
SMALL
USER_CHARGES
3-isopropylnorbornan-2-amine
@<TRIPOS>ATOM
      1 C1         -3.1736    5.1593    0.8271 C.3       1 <0>        -0.1541
      2 C2         -2.3988    4.6847   -0.4038 C.3       1 <0>        -0.0919
      3 C3         -1.7365    5.8848   -1.0836 C.3       1 <0>        -0.1621
      4 C4         -1.3237    3.6840    0.0249 C.3       1 <0>        -0.0999
      5 H1         -0.6383    4.1452    0.7359 H         1 <0>         0.0929
      6 C5         -1.9804    2.4131    0.6452 C.3       1 <0>        -0.0938
      7 H2         -2.8273    2.5897    1.3083 H         1 <0>         0.1221
      8 C6         -0.7830    1.6075    1.2425 C.3       1 <0>        -0.1361
      9 C7         -0.0127    1.0858    0.0080 C.3       1 <0>        -0.1396
     10 C8         -0.8133    1.6253   -1.2165 C.3       1 <0>        -0.1147
     11 H3         -0.6350    1.1167   -2.1639 H         1 <0>         0.1276
     12 C9         -2.2763    1.5778   -0.6503 C.3       1 <0>        -0.1209
     13 C10        -0.5507    3.1623   -1.2080 C.3       1 <0>         0.0199
     14 H4         -0.9366    3.6187   -2.1195 H         1 <0>         0.1495
     15 H5         -3.9395    5.8722    0.5217 H         1 <0>         0.0663
     16 H6         -3.6455    4.3043    1.3114 H         1 <0>         0.0634
     17 H7         -2.4879    5.6395    1.5252 H         1 <0>         0.0588
     18 H8         -3.0845    4.2045   -1.1019 H         1 <0>         0.0839
     19 H9         -1.1844    5.5466   -1.9605 H         1 <0>         0.0490
     20 H10        -2.5024    6.5977   -1.3890 H         1 <0>         0.0725
     21 H11        -1.0508    6.3650   -0.3855 H         1 <0>         0.0598
     22 H12        -1.1469    0.7741    1.8435 H         1 <0>         0.0858
     23 H13        -0.1457    2.2587    1.8408 H         1 <0>         0.0720
     24 H14         0.0021   -0.0041    0.0020 H         1 <0>         0.0966
     25 H15         1.0039    1.4789    0.0004 H         1 <0>         0.0541
     26 H16        -2.9856    2.0806   -1.3077 H         1 <0>         0.0863
     27 H17        -2.5918    0.5607   -0.4177 H         1 <0>         0.0937
     28 H18         1.4042    3.0513   -1.8437 H         1 <0>         0.4370
     29 H19         1.0580    4.4254   -0.9731 H         1 <0>         0.4345
     30 N1          0.8905    3.4232   -1.0466 N.4       1 <0>        -0.6463
     31 H20         1.2228    2.9644   -0.1902 H         1 <0>         0.4341
@<TRIPOS>BOND
     1    1    2 1
     2    1   15 1
     3    1   16 1
     4    1   17 1
     5    2    3 1
     6    2    4 1
     7    2   18 1
     8    3   19 1
     9    3   20 1
    10    3   21 1
    11    4    5 1
    12    4   13 1
    13    4    6 1
    14    6    7 1
    15    6   12 1
    16    6    8 1
    17    8    9 1
    18    8   22 1
    19    8   23 1
    20    9   10 1
    21    9   24 1
    22    9   25 1
    23   10   11 1
    24   10   12 1
    25   10   13 1
    26   12   26 1
    27   12   27 1
    28   13   14 1
    29   13   30 1
    30   28   30 1
    31   29   30 1
    32   30   31 1
@<TRIPOS>MOLECULE
ZINC03871453
   31    32     0     0     0
SMALL
USER_CHARGES
3-isopropylnorbornan-2-amine
@<TRIPOS>ATOM
      1 C1          1.6116    3.9187    1.0345 C.3       1 <0>        -0.1673
      2 C2          1.0811    2.5171    0.7264 C.3       1 <0>        -0.1106
      3 C3          1.7622    1.5006    1.6450 C.3       1 <0>        -0.1539
      4 C4         -0.4307    2.4816    0.9585 C.3       1 <0>        -0.0972
      5 H1         -0.6752    2.9091    1.9309 H         1 <0>         0.1127
      6 C5         -0.9618    1.0189    0.8588 C.3       1 <0>        -0.0922
      7 H2         -0.8337    0.3932    1.7420 H         1 <0>         0.1210
      8 C6         -0.3431    0.4682   -0.4623 C.3       1 <0>        -0.1457
      9 C7         -1.0790    1.2293   -1.5886 C.3       1 <0>        -0.1396
     10 C8         -2.0757    2.1688   -0.8436 C.3       1 <0>        -0.1159
     11 H3         -2.9131    2.5398   -1.4345 H         1 <0>         0.1264
     12 C9         -2.4422    1.2784    0.3960 C.3       1 <0>        -0.1206
     13 C10        -1.1709    3.2553   -0.1862 C.3       1 <0>         0.0232
     14 H4         -1.7811    4.0571    0.2297 H         1 <0>         0.1481
     15 H5          1.0237    4.6575    0.4900 H         1 <0>         0.0388
     16 H6          1.5338    4.1095    2.1048 H         1 <0>         0.0821
     17 H7          2.6554    3.9876    0.7281 H         1 <0>         0.0778
     18 H8          1.2951    2.2679   -0.3130 H         1 <0>         0.0680
     19 H9          1.3842    0.5021    1.4256 H         1 <0>         0.0706
     20 H10         2.8393    1.5259    1.4797 H         1 <0>         0.0675
     21 H11         1.5482    1.7498    2.6844 H         1 <0>         0.0687
     22 H12        -0.5223   -0.6036   -0.5479 H         1 <0>         0.0837
     23 H13         0.7260    0.6779   -0.4975 H         1 <0>         0.0801
     24 H14        -0.3720    1.8148   -2.1764 H         1 <0>         0.0513
     25 H15        -1.6200    0.5317   -2.2280 H         1 <0>         0.0942
     26 H16        -3.0125    1.8315    1.1423 H         1 <0>         0.0858
     27 H17        -2.9475    0.3581    0.1031 H         1 <0>         0.0940
     28 H18        -0.6681    3.9518   -2.0572 H         1 <0>         0.4333
     29 H19         0.2172    4.6345   -0.8259 H         1 <0>         0.4325
     30 N1         -0.2024    3.7721   -1.1692 N.4       1 <0>        -0.6497
     31 H20         0.5368    3.0743   -1.3138 H         1 <0>         0.4330
@<TRIPOS>BOND
     1    1    2 1
     2    1   15 1
     3    1   16 1
     4    1   17 1
     5    2    3 1
     6    2    4 1
     7    2   18 1
     8    3   19 1
     9    3   20 1
    10    3   21 1
    11    4    5 1
    12    4   13 1
    13    4    6 1
    14    6    7 1
    15    6   12 1
    16    6    8 1
    17    8    9 1
    18    8   22 1
    19    8   23 1
    20    9   10 1
    21    9   24 1
    22    9   25 1
    23   10   11 1
    24   10   12 1
    25   10   13 1
    26   12   26 1
    27   12   27 1
    28   13   14 1
    29   13   30 1
    30   28   30 1
    31   29   30 1
    32   30   31 1
@<TRIPOS>MOLECULE
ZINC13587967
   25    27     0     0     0
SMALL
USER_CHARGES
7-bromo-2,3,4,9-tetrahydro-1H-pyrido[3,4-b]indole
@<TRIPOS>ATOM
      1 C1          0.3024    7.4751   -0.5983 C.ar      1 <0>        -0.1259
      2 C2         -0.3179    6.2585   -0.7413 C.ar      1 <0>        -0.0601
      3 C3          0.4429    5.1221   -0.4509 C.ar      1 <0>        -0.0889
      4 C4          1.7938    5.2290   -0.0275 C.ar      1 <0>         0.0920
      5 C5          2.3973    6.4768    0.1089 C.ar      1 <0>        -0.0975
      6 C6          1.6206    7.5853   -0.1855 C.ar      1 <0>        -0.0708
      7 Br1         2.3850    9.3069   -0.0192 Br        1 <0>        -0.0535
      8 N1          2.2585    3.9608    0.1760 N.pl3     1 <0>        -0.5875
      9 H1          3.2940    3.8017    0.5113 H         1 <0>         0.4448
     10 C7          1.2689    3.0558   -0.0976 C.2       1 <0>         0.0538
     11 C8          0.1478    3.7069   -0.4829 C.2       1 <0>        -0.1795
     12 C9         -1.1322    3.0058   -0.8625 C.3       1 <0>        -0.0813
     13 C10        -0.8065    1.5269   -1.1129 C.3       1 <0>         0.0456
     14 N2         -0.0116    1.0048    0.0076 N.3       1 <0>        -0.6556
     15 C11         1.3551    1.5509   -0.0026 C.3       1 <0>         0.1090
     16 H2         -0.2548    8.3747   -0.8142 H         1 <0>         0.1287
     17 H3         -1.3461    6.1829   -1.0631 H         1 <0>         0.1367
     18 H4          3.4238    6.5755    0.4299 H         1 <0>         0.1378
     19 H5         -1.8595    3.1011   -0.0428 H         1 <0>         0.0749
     20 H6         -1.5447    3.4636   -1.7737 H         1 <0>         0.0790
     21 H7         -1.7421    0.9546   -1.1972 H         1 <0>         0.0884
     22 H8         -0.2325    1.4308   -2.0463 H         1 <0>         0.0760
     23 H9         -0.4911    1.2823    0.9579 H         1 <0>         0.3480
     24 H10         1.9092    1.1600   -0.8687 H         1 <0>         0.0937
     25 H11         1.8781    1.2713    0.9238 H         1 <0>         0.0922
@<TRIPOS>BOND
     1    1    6 ar
     2    1    2 ar
     3    1   16 1
     4    2    3 ar
     5    2   17 1
     6    3   11 1
     7    3    4 ar
     8    4    5 ar
     9    4    8 1
    10    5    6 ar
    11    5   18 1
    12    6    7 1
    13    8    9 1
    14    8   10 1
    15   10   15 1
    16   10   11 2
    17   11   12 1
    18   12   13 1
    19   12   19 1
    20   12   20 1
    21   13   14 1
    22   13   21 1
    23   13   22 1
    24   14   15 1
    25   14   23 1
    26   15   24 1
    27   15   25 1
@<TRIPOS>MOLECULE
ZINC00002748
   33    35     0     0     0
SMALL
USER_CHARGES

@<TRIPOS>ATOM
      1 C1          0.6825   -0.6124   -1.2515 C.3       1 <0>        -0.1613
      2 C2         -0.0742   -0.1334   -0.0111 C.3       1 <0>        -0.1318
      3 C3          0.6583   -0.6047    1.2468 C.3       1 <0>         0.1244
      4 C4          0.9451   -2.1233    1.1775 C.3       1 <0>        -0.1050
      5 C5          2.3385   -2.1521    0.5799 C.ar      1 <0>        -0.1681
      6 C6          3.0769   -3.1621    0.0037 C.ar      1 <0>        -0.0638
      7 C7          4.3486   -2.9021   -0.4750 C.ar      1 <0>        -0.1281
      8 C8          4.8733   -1.6268   -0.3724 C.ar      1 <0>        -0.0748
      9 C9          4.1371   -0.6147    0.2074 C.ar      1 <0>        -0.1209
     10 C10         2.8574   -0.8690    0.6950 C.ar      1 <0>         0.0934
     11 O1          1.9765   -0.0345    1.3123 O.3       1 <0>        -0.2829
     12 C11        -0.1332   -0.2628    2.4828 C.cat     1 <0>         0.5258
     13 N1         -0.6428   -1.1813    3.2695 N.pl3     1 <0>        -0.6242
     14 C12        -1.3527   -0.5291    4.3816 C.3       1 <0>         0.0568
     15 C13        -1.1580    0.9735    4.0907 C.3       1 <0>         0.0545
     16 N2         -0.3590    0.9754    2.8546 N.pl3     1 <0>        -0.6125
     17 H1          0.8026   -1.6949   -1.2084 H         1 <0>         0.0708
     18 H2          0.1203   -0.3446   -2.1461 H         1 <0>         0.0777
     19 H3          1.6638   -0.1390   -1.2839 H         1 <0>         0.0679
     20 H4         -0.1260    0.9553   -0.0149 H         1 <0>         0.0908
     21 H5         -1.0834   -0.5452   -0.0196 H         1 <0>         0.0964
     22 H6          0.9390   -2.5667    2.1732 H         1 <0>         0.0942
     23 H7          0.2309   -2.6252    0.5248 H         1 <0>         0.1200
     24 H8          2.6633   -4.1568   -0.0740 H         1 <0>         0.1336
     25 H9          4.9296   -3.6924   -0.9268 H         1 <0>         0.1389
     26 H10         5.8651   -1.4222   -0.7479 H         1 <0>         0.1422
     27 H11         4.5545    0.3784    0.2839 H         1 <0>         0.1354
     28 H12        -2.4110   -0.7897    4.3682 H         1 <0>         0.1319
     29 H13        -0.9012   -0.7978    5.3366 H         1 <0>         0.1315
     30 H14        -2.1191    1.4625    3.9321 H         1 <0>         0.1327
     31 H15        -0.6093    1.4543    4.9006 H         1 <0>         0.1314
     32 H16        -0.0495    1.7671    2.3874 H         1 <0>         0.4632
     33 H17        -0.5644   -2.1392    3.1383 H         1 <0>         0.4598
@<TRIPOS>BOND
     1    1    2 1
     2    1   17 1
     3    1   18 1
     4    1   19 1
     5    2    3 1
     6    2   20 1
     7    2   21 1
     8    3   11 1
     9    3    4 1
    10    3   12 1
    11    4    5 1
    12    4   22 1
    13    4   23 1
    14    5   10 ar
    15    5    6 ar
    16    6    7 ar
    17    6   24 1
    18    7    8 ar
    19    7   25 1
    20    8    9 ar
    21    8   26 1
    22    9   10 ar
    23    9   27 1
    24   10   11 1
    25   12   16 1
    26   12   13 2
    27   13   14 1
    28   13   33 1
    29   14   15 1
    30   14   28 1
    31   14   29 1
    32   15   16 1
    33   15   30 1
    34   15   31 1
    35   16   32 1
@<TRIPOS>MOLECULE
ZINC01842775
   33    35     0     0     0
SMALL
USER_CHARGES

@<TRIPOS>ATOM
      1 C1         -1.3929   -0.6348   -0.0537 C.3       1 <0>        -0.1597
      2 C2         -0.0424    0.0761    0.0551 C.3       1 <0>        -0.1128
      3 C3          0.6925   -0.4138    1.3044 C.3       1 <0>         0.1263
      4 C4          0.8394   -1.9538    1.2854 C.3       1 <0>        -0.1028
      5 C5          0.6708   -2.3028    2.7514 C.ar      1 <0>        -0.1807
      6 C6          0.9537   -3.4442    3.4687 C.ar      1 <0>        -0.0653
      7 C7          0.6995   -3.4872    4.8280 C.ar      1 <0>        -0.1261
      8 C8          0.1616   -2.3818    5.4612 C.ar      1 <0>        -0.0761
      9 C9         -0.1258   -1.2390    4.7442 C.ar      1 <0>        -0.1176
     10 C10         0.1238   -1.1888    3.3748 C.ar      1 <0>         0.0734
     11 O1         -0.0978   -0.1841    2.4833 O.3       1 <0>        -0.2653
     12 C11         2.0384    0.2533    1.4256 C.cat     1 <0>         0.4987
     13 N1          3.1655   -0.4128    1.3351 N.pl3     1 <0>        -0.6230
     14 C12         4.2942    0.5182    1.4944 C.3       1 <0>         0.0554
     15 C13         3.6003    1.8809    1.6992 C.3       1 <0>         0.0548
     16 N2          2.1696    1.5439    1.6240 N.pl3     1 <0>        -0.6139
     17 H1         -1.9474   -0.5057    0.8758 H         1 <0>         0.0736
     18 H2         -1.9627   -0.2078   -0.8790 H         1 <0>         0.0799
     19 H3         -1.2307   -1.6972   -0.2355 H         1 <0>         0.0674
     20 H4          0.5564   -0.1443   -0.8285 H         1 <0>         0.1012
     21 H5         -0.2028    1.1519    0.1264 H         1 <0>         0.0902
     22 H6          0.0552   -2.4124    0.6831 H         1 <0>         0.1344
     23 H7          1.8260   -2.2466    0.9262 H         1 <0>         0.0921
     24 H8          1.3734   -4.3054    2.9701 H         1 <0>         0.1346
     25 H9          0.9202   -4.3811    5.3925 H         1 <0>         0.1397
     26 H10        -0.0350   -2.4135    6.5227 H         1 <0>         0.1427
     27 H11        -0.5462   -0.3803    5.2463 H         1 <0>         0.1358
     28 H12         4.8901    0.2546    2.3682 H         1 <0>         0.1296
     29 H13         4.9115    0.5319    0.5962 H         1 <0>         0.1313
     30 H14         3.8500    2.2970    2.6752 H         1 <0>         0.1300
     31 H15         3.8715    2.5743    0.9032 H         1 <0>         0.1317
     32 H16         1.4387    2.1759    1.7093 H         1 <0>         0.4624
     33 H17         3.2425   -1.3683    1.1870 H         1 <0>         0.4581
@<TRIPOS>BOND
     1    1    2 1
     2    1   17 1
     3    1   18 1
     4    1   19 1
     5    2    3 1
     6    2   20 1
     7    2   21 1
     8    3   11 1
     9    3    4 1
    10    3   12 1
    11    4    5 1
    12    4   22 1
    13    4   23 1
    14    5   10 ar
    15    5    6 ar
    16    6    7 ar
    17    6   24 1
    18    7    8 ar
    19    7   25 1
    20    8    9 ar
    21    8   26 1
    22    9   10 ar
    23    9   27 1
    24   10   11 1
    25   12   16 1
    26   12   13 2
    27   13   14 1
    28   13   33 1
    29   14   15 1
    30   14   28 1
    31   14   29 1
    32   15   16 1
    33   15   30 1
    34   15   31 1
    35   16   32 1
@<TRIPOS>MOLECULE
ZINC00020251
   41    43     0     0     0
SMALL
USER_CHARGES

@<TRIPOS>ATOM
      1 C1          0.3679    1.4948   -0.0201 C.3       1 <0>        -0.1272
      2 C2          0.2853   -0.0099   -0.0200 C.ar      1 <0>        -0.0600
      3 C3          1.4442   -0.7644   -0.0110 C.ar      1 <0>        -0.1078
      4 C4          1.3722   -2.1435   -0.0113 C.ar      1 <0>        -0.0987
      5 C5          0.1337   -2.7728   -0.0201 C.ar      1 <0>         0.1050
      6 C6         -1.0285   -2.0117   -0.0286 C.ar      1 <0>        -0.1145
      7 C7         -0.9492   -0.6330   -0.0230 C.ar      1 <0>        -0.1116
      8 N1          0.0572   -4.1678   -0.0209 N.pl3     1 <0>        -0.5735
      9 C8          0.0846   -4.9036    1.2456 C.3       1 <0>         0.1390
     10 C9         -1.3227   -5.0783    1.7557 C.cat     1 <0>         0.4891
     11 N2         -1.9005   -4.2016    2.5430 N.pl3     1 <0>        -0.6245
     12 C10        -3.2631   -4.6580    2.8611 C.3       1 <0>         0.0566
     13 C11        -3.3748   -5.9931    2.0960 C.3       1 <0>         0.0550
     14 N3         -2.0626   -6.1154    1.4407 N.pl3     1 <0>        -0.6236
     15 C12        -0.0455   -4.8611   -1.2295 C.ar      1 <0>         0.2053
     16 C13        -0.0552   -4.1650   -2.4324 C.ar      1 <0>        -0.1712
     17 C14        -0.1568   -4.8506   -3.6270 C.ar      1 <0>        -0.0509
     18 C15        -0.2489   -6.2298   -3.6298 C.ar      1 <0>        -0.1769
     19 C16        -0.2402   -6.9302   -2.4318 C.ar      1 <0>         0.1550
     20 C17        -0.1322   -6.2465   -1.2308 C.ar      1 <0>        -0.2288
     21 O1         -0.3318   -8.2861   -2.4363 O.3       1 <0>        -0.4993
     22 H1          0.3851    1.8579    1.0075 H         1 <0>         0.0791
     23 H2          1.2778    1.8087   -0.5317 H         1 <0>         0.0747
     24 H3         -0.4995    1.9063   -0.5363 H         1 <0>         0.0732
     25 H4          2.4067   -0.2745   -0.0042 H         1 <0>         0.1347
     26 H5          2.2777   -2.7321   -0.0051 H         1 <0>         0.1314
     27 H6         -1.9930   -2.4978   -0.0354 H         1 <0>         0.1179
     28 H7         -1.8524   -0.0408   -0.0255 H         1 <0>         0.1314
     29 H8          0.5378   -5.8823    1.0875 H         1 <0>         0.1364
     30 H9          0.6696   -4.3462    1.9771 H         1 <0>         0.1371
     31 H10        -3.3747   -4.8185    3.9334 H         1 <0>         0.1285
     32 H11        -4.0026   -3.9438    2.4987 H         1 <0>         0.1258
     33 H12        -3.5420   -6.8196    2.7867 H         1 <0>         0.1291
     34 H13        -4.1699   -5.9450    1.3520 H         1 <0>         0.1262
     35 H14        -1.7873   -6.8481    0.8678 H         1 <0>         0.4584
     36 H15         0.0163   -3.0874   -2.4330 H         1 <0>         0.1301
     37 H16        -0.1645   -4.3081   -4.5608 H         1 <0>         0.1363
     38 H17        -0.3282   -6.7630   -4.5656 H         1 <0>         0.1352
     39 H18        -0.1201   -6.7903   -0.2978 H         1 <0>         0.1181
     40 H19         0.5221   -8.7379   -2.4787 H         1 <0>         0.4007
     41 H20        -1.4934   -3.3821    2.8650 H         1 <0>         0.4591
@<TRIPOS>BOND
     1    1    2 1
     2    1   22 1
     3    1   23 1
     4    1   24 1
     5    2    7 ar
     6    2    3 ar
     7    3    4 ar
     8    3   25 1
     9    4    5 ar
    10    4   26 1
    11    5    6 ar
    12    5    8 1
    13    6    7 ar
    14    6   27 1
    15    7   28 1
    16    8    9 1
    17    8   15 1
    18    9   10 1
    19    9   29 1
    20    9   30 1
    21   10   14 1
    22   10   11 2
    23   11   12 1
    24   11   41 1
    25   12   13 1
    26   12   31 1
    27   12   32 1
    28   13   14 1
    29   13   33 1
    30   13   34 1
    31   14   35 1
    32   15   20 ar
    33   15   16 ar
    34   16   17 ar
    35   16   36 1
    36   17   18 ar
    37   17   37 1
    38   18   19 ar
    39   18   38 1
    40   19   20 ar
    41   19   21 1
    42   20   39 1
    43   21   40 1
@<TRIPOS>MOLECULE
ZINC13587968
   30    32     0     0     0
SMALL
USER_CHARGES
7-methoxy-2,3,4,9-tetrahydro-1H-pyrido[3,4-b]indole
@<TRIPOS>ATOM
      1 C1          1.3297    9.9407   -0.3796 C.3       1 <0>         0.0232
      2 O1          2.1677    8.8267   -0.0652 O.3       1 <0>        -0.3132
      3 C2          1.6193    7.5886   -0.1852 C.ar      1 <0>         0.1702
      4 C3          0.2974    7.4756   -0.5990 C.ar      1 <0>        -0.2184
      5 C4         -0.3194    6.2582   -0.7417 C.ar      1 <0>        -0.0209
      6 C5          0.4432    5.1225   -0.4505 C.ar      1 <0>        -0.1394
      7 C6          1.7935    5.2297   -0.0267 C.ar      1 <0>         0.1538
      8 C7          2.3977    6.4773    0.1102 C.ar      1 <0>        -0.1761
      9 N1          2.2589    3.9617    0.1766 N.pl3     1 <0>        -0.5659
     10 H1          3.1553    3.7367    0.4712 H         1 <0>         0.4250
     11 C8          1.2689    3.0558   -0.0978 C.2       1 <0>        -0.0023
     12 C9          0.1483    3.7067   -0.4831 C.2       1 <0>        -0.1438
     13 C10        -1.1316    3.0059   -0.8635 C.3       1 <0>        -0.0722
     14 C11        -0.8064    1.5269   -1.1129 C.3       1 <0>        -0.0013
     15 C12         1.3551    1.5509   -0.0026 C.3       1 <0>         0.0803
     16 H2          0.9993    9.8658   -1.4156 H         1 <0>         0.0607
     17 H3          0.4616    9.9398    0.2796 H         1 <0>         0.0606
     18 H4          1.8889   10.8662   -0.2426 H         1 <0>         0.1075
     19 H5         -0.2617    8.3740   -0.8153 H         1 <0>         0.1361
     20 H6         -1.3473    6.1805   -1.0639 H         1 <0>         0.1397
     21 H7          3.4240    6.5758    0.4316 H         1 <0>         0.1437
     22 H8         -1.8540    3.0916   -0.0517 H         1 <0>         0.1010
     23 H9         -1.5410    3.4525   -1.7696 H         1 <0>         0.1207
     24 H10        -0.2375    1.4313   -2.0378 H         1 <0>         0.1336
     25 H11        -1.7336    0.9599   -1.1962 H         1 <0>         0.1406
     26 H12         1.8682    1.2709    0.9175 H         1 <0>         0.1413
     27 H13         1.9004    1.1573   -0.8603 H         1 <0>         0.1447
     28 N2         -0.0163    0.9960    0.0169 N.4       1 <0>        -0.5111
     29 H14         0.0322   -0.0270   -0.0561 H         1 <0>         0.4438
     30 H15        -0.4728    1.2548    0.8994 H         1 <0>         0.4381
@<TRIPOS>BOND
     1    1    2 1
     2    1   16 1
     3    1   17 1
     4    1   18 1
     5    2    3 1
     6    3    8 ar
     7    3    4 ar
     8    4    5 ar
     9    4   19 1
    10    5    6 ar
    11    5   20 1
    12    6   12 1
    13    6    7 ar
    14    7    8 ar
    15    7    9 1
    16    8   21 1
    17    9   10 1
    18    9   11 1
    19   11   15 1
    20   11   12 2
    21   12   13 1
    22   13   14 1
    23   13   22 1
    24   13   23 1
    25   14   24 1
    26   14   25 1
    27   14   28 1
    28   15   26 1
    29   15   27 1
    30   15   28 1
    31   28   29 1
    32   28   30 1
@<TRIPOS>MOLECULE
ZINC13586844
   30    32     0     0     0
SMALL
USER_CHARGES
7-methoxy-1,2,3,4-tetrahydropyrazino[1,2-a]indole
@<TRIPOS>ATOM
      1 C1          3.4285    3.5482   -0.0136 C.3       1 <0>         0.0237
      2 O1          3.5377    2.1234   -0.0220 O.3       1 <0>        -0.3126
      3 C2          2.3771    1.4154   -0.0139 C.ar      1 <0>         0.1755
      4 C3          1.1578    2.0884    0.0022 C.ar      1 <0>        -0.2180
      5 C4         -0.0169    1.3921    0.0097 C.ar      1 <0>        -0.0152
      6 C5          0.0021   -0.0041    0.0020 C.ar      1 <0>        -0.1552
      7 C6         -1.0417   -1.0341    0.0069 C.2       1 <0>        -0.1063
      8 C7         -0.4230   -2.2194   -0.0051 C.2       1 <0>        -0.0219
      9 N1          0.9427   -2.0348   -0.0165 N.pl3     1 <0>        -0.5011
     10 C8          1.2300   -0.6917   -0.0134 C.ar      1 <0>         0.1637
     11 C9          2.4170    0.0343   -0.0214 C.ar      1 <0>        -0.1859
     12 C10         1.9045   -3.1468   -0.0274 C.3       1 <0>         0.0901
     13 C11         1.1673   -4.4232    0.3943 C.3       1 <0>        -0.0108
     14 C12        -1.0741   -3.5842   -0.0084 C.3       1 <0>         0.0864
     15 H1          2.8795    3.8757   -0.8963 H         1 <0>         0.0615
     16 H2          2.8975    3.8666    0.8835 H         1 <0>         0.0615
     17 H3          4.4254    3.9890   -0.0214 H         1 <0>         0.1078
     18 H4          1.1412    3.1683    0.0082 H         1 <0>         0.1395
     19 H5         -0.9588    1.9204    0.0170 H         1 <0>         0.1362
     20 H6         -2.1086   -0.8669    0.0181 H         1 <0>         0.1599
     21 H7          3.3666   -0.4802   -0.0338 H         1 <0>         0.1317
     22 H8          2.3108   -3.2716   -1.0311 H         1 <0>         0.1038
     23 H9          2.7134   -2.9402    0.6734 H         1 <0>         0.1273
     24 H10         1.8140   -5.2856    0.2326 H         1 <0>         0.1543
     25 H11         0.9069   -4.3592    1.4508 H         1 <0>         0.1411
     26 H12        -1.8977   -3.5975   -0.7222 H         1 <0>         0.1528
     27 H13        -1.4475   -3.8172    0.9888 H         1 <0>         0.1466
     28 N2         -0.0593   -4.5826   -0.4113 N.4       1 <0>        -0.5202
     29 H14        -0.4377   -5.5263   -0.2684 H         1 <0>         0.4454
     30 H15         0.1685   -4.4518   -1.4039 H         1 <0>         0.4384
@<TRIPOS>BOND
     1    1    2 1
     2    1   15 1
     3    1   16 1
     4    1   17 1
     5    2    3 1
     6    3   11 ar
     7    3    4 ar
     8    4    5 ar
     9    4   18 1
    10    5    6 ar
    11    5   19 1
    12    6   10 ar
    13    6    7 1
    14    7    8 2
    15    7   20 1
    16    8   14 1
    17    8    9 1
    18    9   10 1
    19    9   12 1
    20   10   11 ar
    21   11   21 1
    22   12   13 1
    23   12   22 1
    24   12   23 1
    25   13   24 1
    26   13   25 1
    27   13   28 1
    28   14   26 1
    29   14   27 1
    30   14   28 1
    31   28   29 1
    32   28   30 1
@<TRIPOS>MOLECULE
ZINC13586839
   26    28     0     0     0
SMALL
USER_CHARGES
1,2,3,4-tetrahydropyrazino[1,2-a]indole
@<TRIPOS>ATOM
      1 C1         -2.6282    3.0195   -5.0961 C.ar      1 <0>        -0.1425
      2 C2         -3.6823    3.2914   -4.2392 C.ar      1 <0>        -0.0744
      3 C3         -3.6183    3.0288   -2.8820 C.ar      1 <0>        -0.1398
      4 C4         -2.4341    2.4714   -2.4019 C.ar      1 <0>         0.1226
      5 C5         -1.3589    2.1962   -3.2842 C.ar      1 <0>        -0.1242
      6 C6         -1.4502    2.4713   -4.6517 C.ar      1 <0>        -0.0518
      7 C7         -0.2981    1.6303   -2.4674 C.2       1 <0>        -0.1172
      8 C8         -0.7558    1.5925   -1.2065 C.2       1 <0>        -0.0219
      9 N1         -2.0408    2.0942   -1.1537 N.pl3     1 <0>        -0.4978
     10 C9         -2.8148    2.1783    0.0945 C.3       1 <0>         0.0904
     11 C10        -2.1525    1.2690    1.1354 C.3       1 <0>        -0.0106
     12 C11        -0.0127    1.0858    0.0080 C.3       1 <0>         0.0847
     13 H1         -2.7363    3.2459   -6.1466 H         1 <0>         0.1295
     14 H2         -4.5855    3.7230   -4.6446 H         1 <0>         0.1311
     15 H3         -4.4474    3.2461   -2.2249 H         1 <0>         0.1313
     16 H4         -0.6331    2.2629   -5.3264 H         1 <0>         0.1394
     17 H5          0.6723    1.3026   -2.8098 H         1 <0>         0.1605
     18 H6         -2.8192    3.2068    0.4552 H         1 <0>         0.1041
     19 H7         -3.8376    1.8470   -0.0847 H         1 <0>         0.1272
     20 H8         -2.6092    1.4409    2.1101 H         1 <0>         0.1548
     21 H9         -2.2925    0.2269    0.8481 H         1 <0>         0.1411
     22 H10         0.0021   -0.0041    0.0020 H         1 <0>         0.1467
     23 H11         1.0083    1.4675    0.0003 H         1 <0>         0.1529
     24 N2         -0.7093    1.5717    1.2184 N.4       1 <0>        -0.5201
     25 H12        -0.3134    1.1097    2.0455 H         1 <0>         0.4457
     26 H13        -0.5802    2.5871    1.2989 H         1 <0>         0.4383
@<TRIPOS>BOND
     1    1    6 ar
     2    1    2 ar
     3    1   13 1
     4    2    3 ar
     5    2   14 1
     6    3    4 ar
     7    3   15 1
     8    4    9 1
     9    4    5 ar
    10    5    6 ar
    11    5    7 1
    12    6   16 1
    13    7    8 2
    14    7   17 1
    15    8   12 1
    16    8    9 1
    17    9   10 1
    18   10   11 1
    19   10   18 1
    20   10   19 1
    21   11   20 1
    22   11   21 1
    23   11   24 1
    24   12   22 1
    25   12   23 1
    26   12   24 1
    27   24   25 1
    28   24   26 1
@<TRIPOS>MOLECULE
ZINC13587966
   25    27     0     0     0
SMALL
USER_CHARGES
6-bromo-2,3,4,9-tetrahydro-1H-pyrido[3,4-b]indole
@<TRIPOS>ATOM
      1 C1         -1.2379    2.5607    0.0218 C.ar      1 <0>        -0.0758
      2 C2         -1.2758    3.9376    0.0354 C.ar      1 <0>        -0.1211
      3 C3         -0.0917    4.6659    0.0281 C.ar      1 <0>         0.1035
      4 C4          1.1413    3.9839    0.0119 C.ar      1 <0>        -0.0972
      5 C5          1.1615    2.5873    0.0049 C.ar      1 <0>        -0.0374
      6 C6         -0.0236    1.8867    0.0124 C.ar      1 <0>        -0.1163
      7 Br1         0.0021   -0.0041    0.0020 Br        1 <0>        -0.0539
      8 C7          2.1667    5.0189    0.0051 C.2       1 <0>        -0.1604
      9 C8          1.5378    6.2119    0.0201 C.2       1 <0>         0.0864
     10 N1          0.1877    6.0165    0.0339 N.pl3     1 <0>        -0.5945
     11 H1         -0.6337    6.7480    0.0479 H         1 <0>         0.4428
     12 C9          2.2768    7.5302    0.0226 C.3       1 <0>         0.1132
     13 N2          3.6753    7.2783    0.4067 N.3       1 <0>        -0.6653
     14 C10         4.2752    6.2150   -0.4116 C.3       1 <0>         0.0456
     15 C11         3.6657    4.8621   -0.0176 C.3       1 <0>        -0.0450
     16 H2         -2.1609    2.0001    0.0231 H         1 <0>         0.1352
     17 H3         -2.2257    4.4514    0.0466 H         1 <0>         0.1289
     18 H4          2.1034    2.0590   -0.0061 H         1 <0>         0.1310
     19 H5          2.2370    7.9748   -0.9828 H         1 <0>         0.0538
     20 H6          1.8055    8.2134    0.7445 H         1 <0>         0.0935
     21 H7          4.2643    8.1972    0.2699 H         1 <0>         0.3536
     22 H8          4.0737    6.4127   -1.4748 H         1 <0>         0.0375
     23 H9          5.3619    6.1912   -0.2426 H         1 <0>         0.0858
     24 H10         4.0181    4.5616    0.9802 H         1 <0>         0.0797
     25 H11         3.9427    4.0912   -0.7518 H         1 <0>         0.0762
@<TRIPOS>BOND
     1    1    6 ar
     2    1    2 ar
     3    1   16 1
     4    2    3 ar
     5    2   17 1
     6    3   10 1
     7    3    4 ar
     8    4    5 ar
     9    4    8 1
    10    5    6 ar
    11    5   18 1
    12    6    7 1
    13    8   15 1
    14    8    9 2
    15    9   10 1
    16    9   12 1
    17   10   11 1
    18   12   13 1
    19   12   19 1
    20   12   20 1
    21   13   14 1
    22   13   21 1
    23   14   15 1
    24   14   22 1
    25   14   23 1
    26   15   24 1
    27   15   25 1
@<TRIPOS>MOLECULE
ZINC00236623
   25    27     0     0     0
SMALL
USER_CHARGES
1,2,3,4-tetrahydropyrazino[1,2-a]benzimidazole
@<TRIPOS>ATOM
      1 C1         -0.6613   -2.3025   -0.0044 C.ar      1 <0>        -0.1190
      2 C2          0.6704   -2.6927   -0.0187 C.ar      1 <0>        -0.0705
      3 C3          1.6749   -1.7491   -0.0229 C.ar      1 <0>        -0.1220
      4 C4          1.3526   -0.3982   -0.0129 C.ar      1 <0>         0.0754
      5 C5          0.0021   -0.0041    0.0020 C.ar      1 <0>         0.0381
      6 C6         -0.9986   -0.9789    0.0063 C.ar      1 <0>        -0.0487
      7 N1         -0.0164    1.3551    0.0095 N.2       1 <0>        -0.4327
      8 C7          1.1988    1.8088    0.0003 C.2       1 <0>         0.2052
      9 N2          2.0821    0.7655   -0.0153 N.pl3     1 <0>        -0.5055
     10 C8          3.5386    0.9298   -0.0336 C.3       1 <0>         0.0879
     11 C9          3.8537    2.3743   -0.4420 C.3       1 <0>        -0.0135
     12 C10         1.6364    3.2563    0.0071 C.3       1 <0>         0.1010
     13 H1         -1.4383   -3.0525   -0.0014 H         1 <0>         0.1424
     14 H2          0.9214   -3.7431   -0.0262 H         1 <0>         0.1424
     15 H3          2.7094   -2.0592   -0.0335 H         1 <0>         0.1291
     16 H4         -2.0381   -0.6863    0.0177 H         1 <0>         0.1397
     17 H5          3.9434    0.7318    0.9590 H         1 <0>         0.1108
     18 H6          3.9774    0.2393   -0.7539 H         1 <0>         0.1326
     19 H7          4.9149    2.5713   -0.2896 H         1 <0>         0.1610
     20 H8          3.6062    2.5162   -1.4940 H         1 <0>         0.1446
     21 H9          1.0489    3.8149    0.7358 H         1 <0>         0.1671
     22 H10         1.4993    3.6876   -0.9845 H         1 <0>         0.1612
     23 N3          3.0659    3.3097    0.3855 N.4       1 <0>        -0.5197
     24 H11         3.4175    4.2641    0.2448 H         1 <0>         0.4523
     25 H12         3.1638    3.0512    1.3744 H         1 <0>         0.4406
@<TRIPOS>BOND
     1    1    6 ar
     2    1    2 ar
     3    1   13 1
     4    2    3 ar
     5    2   14 1
     6    3    4 ar
     7    3   15 1
     8    4    9 1
     9    4    5 ar
    10    5    6 ar
    11    5    7 1
    12    6   16 1
    13    7    8 2
    14    8   12 1
    15    8    9 1
    16    9   10 1
    17   10   11 1
    18   10   17 1
    19   10   18 1
    20   11   19 1
    21   11   20 1
    22   11   23 1
    23   12   21 1
    24   12   22 1
    25   12   23 1
    26   23   24 1
    27   23   25 1
@<TRIPOS>MOLECULE
ZINC00152322
   22    23     0     0     0
SMALL
USER_CHARGES
1H-indol-3-ylmethanamine
@<TRIPOS>ATOM
      1 C1         -0.6341   -2.3075   -0.0043 C.ar      1 <0>        -0.1197
      2 C2          0.7038   -2.6781   -0.0190 C.ar      1 <0>        -0.0901
      3 C3          1.6972   -1.7238   -0.0234 C.ar      1 <0>        -0.1148
      4 C4          1.3591   -0.3743   -0.0129 C.ar      1 <0>         0.0918
      5 C5          0.0021   -0.0041    0.0020 C.ar      1 <0>        -0.0980
      6 C6         -0.9886   -0.9881    0.0066 C.ar      1 <0>        -0.0952
      7 C7         -0.0178    1.4606    0.0101 C.2       1 <0>        -0.2752
      8 C8          1.2605    1.8705    0.0001 C.2       1 <0>         0.1261
      9 N1          2.0972    0.7879   -0.0137 N.pl3     1 <0>        -0.5785
     10 H1          3.0662    0.8327   -0.0227 H         1 <0>         0.4287
     11 C9         -1.2412    2.3405    0.0209 C.3       1 <0>         0.0916
     12 H2         -1.4007   -3.0682   -0.0007 H         1 <0>         0.1321
     13 H3          0.9683   -3.7251   -0.0268 H         1 <0>         0.1361
     14 H4          2.7350   -2.0223   -0.0346 H         1 <0>         0.1298
     15 H5         -2.0314   -0.7072    0.0183 H         1 <0>         0.1218
     16 H6          1.5809    2.9018    0.0022 H         1 <0>         0.1822
     17 H7         -0.9741    3.3385   -0.3265 H         1 <0>         0.1374
     18 H8         -1.9991    1.9171   -0.6382 H         1 <0>         0.1338
     19 H9         -1.0674    2.7529    2.0304 H         1 <0>         0.4341
     20 H10        -2.5938    3.0087    1.4217 H         1 <0>         0.4361
     21 N2         -1.7780    2.3994    1.3919 N.4       1 <0>        -0.6474
     22 H11        -2.0540    1.4555    1.6872 H         1 <0>         0.4372
@<TRIPOS>BOND
     1    1    6 ar
     2    1    2 ar
     3    1   12 1
     4    2    3 ar
     5    2   13 1
     6    3    4 ar
     7    3   14 1
     8    4    9 1
     9    4    5 ar
    10    5    6 ar
    11    5    7 1
    12    6   15 1
    13    7    8 2
    14    7   11 1
    15    8    9 1
    16    8   16 1
    17    9   10 1
    18   11   17 1
    19   11   18 1
    20   11   21 1
    21   19   21 1
    22   20   21 1
    23   21   22 1
@<TRIPOS>MOLECULE
ZINC02018607
   32    34     0     0     0
SMALL
USER_CHARGES

@<TRIPOS>ATOM
      1 C1         -0.0178    1.4608    0.0101 C.3       1 <0>         0.0679
      2 N1          0.0021   -0.0041    0.0020 N.pl3     1 <0>        -0.4709
      3 C2          0.0080   -0.7878   -1.1304 C.ar      1 <0>         0.1027
      4 C3         -0.0026   -0.5020   -2.4918 C.ar      1 <0>        -0.1264
      5 C4          0.0073   -1.5307   -3.4076 C.ar      1 <0>        -0.0860
      6 C5          0.0270   -2.8533   -2.9860 C.ar      1 <0>        -0.1330
      7 C6          0.0384   -3.1571   -1.6542 C.ar      1 <0>        -0.0744
      8 C7          0.0304   -2.1303   -0.7076 C.ar      1 <0>        -0.0989
      9 C8          0.0416   -2.0896    0.7527 C.2       1 <0>        -0.1833
     10 C9          0.0234   -0.7949    1.1184 C.2       1 <0>         0.0601
     11 C10         0.0076   -0.3126    2.5504 C.3       1 <0>        -0.0815
     12 C11         1.0591   -1.0841    3.3515 C.3       1 <0>        -0.0035
     13 N2          0.4675   -2.2967    3.9196 N.4       1 <0>        -0.5031
     14 C12        -0.5490   -2.8572    3.0275 C.3       1 <0>        -0.0181
     15 C13         0.0872   -3.2614    1.6989 C.3       1 <0>        -0.0605
     16 H1          1.0048    1.8381    0.0023 H         1 <0>         0.0769
     17 H2         -0.5450    1.8219   -0.8730 H         1 <0>         0.0899
     18 H3         -0.5280    1.8123    0.9069 H         1 <0>         0.0847
     19 H4         -0.0188    0.5237   -2.8296 H         1 <0>         0.1241
     20 H5         -0.0007   -1.3063   -4.4640 H         1 <0>         0.1331
     21 H6          0.0331   -3.6485   -3.7168 H         1 <0>         0.1299
     22 H7          0.0530   -4.1885   -1.3342 H         1 <0>         0.1242
     23 H8          0.2374    0.7525    2.5787 H         1 <0>         0.1165
     24 H9         -0.9782   -0.4852    2.9822 H         1 <0>         0.1081
     25 H10         1.8847   -1.3581    2.6946 H         1 <0>         0.1355
     26 H11         1.4345   -0.4532    4.1572 H         1 <0>         0.1422
     27 H12         1.1936   -2.9820    4.0656 H         1 <0>         0.4322
     28 H13        -0.9975   -3.7341    3.4943 H         1 <0>         0.1405
     29 H14        -1.3213   -2.1104    2.8432 H         1 <0>         0.1359
     30 H15        -0.4563   -4.1012    1.2659 H         1 <0>         0.1161
     31 H16         1.1240   -3.5479    1.8750 H         1 <0>         0.0886
     32 H17         0.0420   -2.0729    4.8067 H         1 <0>         0.4305
@<TRIPOS>BOND
     1    1    2 1
     2    1   16 1
     3    1   17 1
     4    1   18 1
     5    2   10 1
     6    2    3 1
     7    3    8 ar
     8    3    4 ar
     9    4    5 ar
    10    4   19 1
    11    5    6 ar
    12    5   20 1
    13    6    7 ar
    14    6   21 1
    15    7    8 ar
    16    7   22 1
    17    8    9 1
    18    9   15 1
    19    9   10 2
    20   10   11 1
    21   11   12 1
    22   11   23 1
    23   11   24 1
    24   12   13 1
    25   12   25 1
    26   12   26 1
    27   13   14 1
    28   13   27 1
    29   13   32 1
    30   14   15 1
    31   14   28 1
    32   14   29 1
    33   15   30 1
    34   15   31 1
@<TRIPOS>MOLECULE
ZINC11919683
   23    25     0     0     0
SMALL
USER_CHARGES
6-bromo-4,9-dihydro-3H-pyrido[3,4-b]indole
@<TRIPOS>ATOM
      1 C1          3.3621    2.5748   -0.0160 C.ar      1 <0>        -0.0725
      2 C2          2.4655    1.5292   -0.0135 C.ar      1 <0>        -0.1154
      3 C3          1.0994    1.7864    0.0012 C.ar      1 <0>         0.1078
      4 C4          0.6428    3.1233    0.0125 C.ar      1 <0>        -0.0881
      5 C5          1.5769    4.1681    0.0107 C.ar      1 <0>        -0.0365
      6 C6          2.9131    3.8897   -0.0037 C.ar      1 <0>        -0.1097
      7 Br1         4.1651    5.3068   -0.0074 Br        1 <0>        -0.0496
      8 C7         -0.7596    3.0688    0.0229 C.2       1 <0>        -0.1364
      9 C8         -1.1321    1.7480    0.0163 C.2       1 <0>         0.0328
     10 N1         -0.0111    0.9658    0.0074 N.pl3     1 <0>        -0.5575
     11 H1          0.0021   -0.0041    0.0020 H         1 <0>         0.4241
     12 C9         -2.5580    1.3845    0.0251 C.2       1 <0>         0.2099
     13 N2         -3.4140    2.3079   -0.2941 N.2       1 <0>        -0.5012
     14 C10        -3.0418    3.6563   -0.6952 C.3       1 <0>         0.0379
     15 C11        -1.7908    4.1668    0.0308 C.3       1 <0>        -0.0771
     16 H2          4.4226    2.3710   -0.0273 H         1 <0>         0.1388
     17 H3          2.8236    0.5104   -0.0226 H         1 <0>         0.1329
     18 H4          1.2394    5.1940    0.0210 H         1 <0>         0.1335
     19 H5         -2.8806    0.3878    0.2874 H         1 <0>         0.1730
     20 H6         -2.8584    3.6652   -1.7696 H         1 <0>         0.0844
     21 H7         -3.8704    4.3295   -0.4753 H         1 <0>         0.0996
     22 H8         -2.0353    4.4335    1.0590 H         1 <0>         0.0809
     23 H9         -1.4012    5.0400   -0.4926 H         1 <0>         0.0882
@<TRIPOS>BOND
     1    1    6 ar
     2    1    2 ar
     3    1   16 1
     4    2    3 ar
     5    2   17 1
     6    3   10 1
     7    3    4 ar
     8    4    5 ar
     9    4    8 1
    10    5    6 ar
    11    5   18 1
    12    6    7 1
    13    8   15 1
    14    8    9 2
    15    9   10 1
    16    9   12 1
    17   10   11 1
    18   12   13 2
    19   12   19 1
    20   13   14 1
    21   14   15 1
    22   14   20 1
    23   14   21 1
    24   15   22 1
    25   15   23 1
@<TRIPOS>MOLECULE
ZINC00120144
   25    26     0     0     0
SMALL
USER_CHARGES

@<TRIPOS>ATOM
      1 C1         -0.0165    1.3620    0.0095 C.ar      1 <0>        -0.1317
      2 C2          1.1697    2.0834    0.0021 C.ar      1 <0>        -0.0931
      3 C3          2.3856    1.4362   -0.0134 C.ar      1 <0>        -0.1213
      4 C4          2.4281    0.0456   -0.0212 C.ar      1 <0>         0.0938
      5 C5          1.2234   -0.6807   -0.0132 C.ar      1 <0>        -0.1015
      6 C6          0.0021   -0.0041    0.0020 C.ar      1 <0>        -0.0852
      7 C7          1.6036   -2.0953   -0.0245 C.2       1 <0>        -0.2088
      8 C8          2.9451   -2.1410   -0.0380 C.2       1 <0>         0.0855
      9 N1          3.4551   -0.8713   -0.0363 N.pl3     1 <0>        -0.5877
     10 H1          4.3995   -0.6501   -0.0442 H         1 <0>         0.4235
     11 C9          0.6664   -3.2754   -0.0210 C.3       1 <0>        -0.0608
     12 C10         0.2361   -3.5891   -1.4554 C.3       1 <0>        -0.0081
     13 N2         -0.6775   -4.7395   -1.4520 N.4       1 <0>        -0.6388
     14 H2         -0.9613    1.8849    0.0259 H         1 <0>         0.1276
     15 H3          1.1388    3.1630    0.0081 H         1 <0>         0.1321
     16 H4          3.3028    2.0064   -0.0198 H         1 <0>         0.1260
     17 H5         -0.9246   -0.5587    0.0082 H         1 <0>         0.1181
     18 H6          3.5346   -3.0459   -0.0490 H         1 <0>         0.1733
     19 H7          1.1742   -4.1414    0.4036 H         1 <0>         0.0916
     20 H8         -0.2127   -3.0396    0.5787 H         1 <0>         0.0920
     21 H9         -0.2717   -2.7231   -1.8800 H         1 <0>         0.1335
     22 H10         1.1152   -3.8250   -2.0551 H         1 <0>         0.1327
     23 H11        -0.9613   -4.9464   -2.3979 H         1 <0>         0.4379
     24 H12        -0.2074   -5.5412   -1.0590 H         1 <0>         0.4345
     25 H13        -1.4912   -4.5212   -0.8969 H         1 <0>         0.4350
@<TRIPOS>BOND
     1    1    6 ar
     2    1    2 ar
     3    1   14 1
     4    2    3 ar
     5    2   15 1
     6    3    4 ar
     7    3   16 1
     8    4    9 1
     9    4    5 ar
    10    5    6 ar
    11    5    7 1
    12    6   17 1
    13    7    8 2
    14    7   11 1
    15    8    9 1
    16    8   18 1
    17    9   10 1
    18   11   12 1
    19   11   19 1
    20   11   20 1
    21   12   13 1
    22   12   21 1
    23   12   22 1
    24   13   23 1
    25   13   24 1
    26   13   25 1
@<TRIPOS>MOLECULE
ZINC25965899
   25    27     0     0     0
SMALL
USER_CHARGES
8-bromo-2,3,4,9-tetrahydro-1H-pyrido[3,4-b]indole
@<TRIPOS>ATOM
      1 C1          0.3012    7.4752   -0.5977 C.ar      1 <0>        -0.1502
      2 C2         -0.3190    6.2583   -0.7406 C.ar      1 <0>        -0.0469
      3 C3          0.4422    5.1219   -0.4500 C.ar      1 <0>        -0.0986
      4 C4          0.1476    3.7068   -0.4826 C.2       1 <0>        -0.1582
      5 C5          1.2690    3.0559   -0.0975 C.2       1 <0>         0.0605
      6 N1          2.2580    3.9608    0.1763 N.pl3     1 <0>        -0.5866
      7 H1          3.2477    3.6112    0.5054 H         1 <0>         0.4437
      8 C6          1.7928    5.2291   -0.0268 C.ar      1 <0>         0.1371
      9 C7          2.3960    6.4780    0.1093 C.ar      1 <0>        -0.1091
     10 C8          1.6185    7.5860   -0.1852 C.ar      1 <0>        -0.0661
     11 Br1         4.1932    6.6521    0.6714 Br        1 <0>        -0.0477
     12 C9          1.3551    1.5509   -0.0026 C.3       1 <0>         0.1133
     13 N2         -0.0116    1.0048    0.0076 N.3       1 <0>        -0.6646
     14 C10        -0.8065    1.5269   -1.1129 C.3       1 <0>         0.0458
     15 C11        -1.1323    3.0057   -0.8628 C.3       1 <0>        -0.0437
     16 H2         -0.2564    8.3746   -0.8136 H         1 <0>         0.1283
     17 H3         -1.3472    6.1826   -1.0622 H         1 <0>         0.1356
     18 H4          2.0545    8.5695   -0.0902 H         1 <0>         0.1304
     19 H5          1.9092    1.1600   -0.8688 H         1 <0>         0.0535
     20 H6          1.8781    1.2712    0.9238 H         1 <0>         0.0931
     21 H7          0.0309   -0.0912   -0.0756 H         1 <0>         0.3532
     22 H8         -0.2323    1.4304   -2.0461 H         1 <0>         0.0371
     23 H9         -1.7419    0.9542   -1.1971 H         1 <0>         0.0852
     24 H10        -1.8600    3.1011   -0.0434 H         1 <0>         0.0792
     25 H11        -1.5443    3.4634   -1.7742 H         1 <0>         0.0756
@<TRIPOS>BOND
     1    1   10 ar
     2    1    2 ar
     3    1   16 1
     4    2    3 ar
     5    2   17 1
     6    3    8 ar
     7    3    4 1
     8    4   15 1
     9    4    5 2
    10    5    6 1
    11    5   12 1
    12    6    7 1
    13    6    8 1
    14    8    9 ar
    15    9   10 ar
    16    9   11 1
    17   10   18 1
    18   12   13 1
    19   12   19 1
    20   12   20 1
    21   13   14 1
    22   13   21 1
    23   14   15 1
    24   14   22 1
    25   14   23 1
    26   15   24 1
    27   15   25 1
@<TRIPOS>MOLECULE
ZINC00119717
   31    33     0     0     0
SMALL
USER_CHARGES

@<TRIPOS>ATOM
      1 C1         -0.0164    1.3567    0.0095 C.ar      1 <0>        -0.1173
      2 C2          1.1685    2.0906    0.0021 C.ar      1 <0>        -0.0848
      3 C3          2.3785    1.4679   -0.0132 C.ar      1 <0>        -0.1455
      4 C4          2.4378    0.0637   -0.0214 C.ar      1 <0>        -0.0335
      5 C5          1.2328   -0.6827   -0.0134 C.ar      1 <0>        -0.0557
      6 C6          0.0021   -0.0041    0.0020 C.ar      1 <0>        -0.0860
      7 C7          1.2920   -2.0865   -0.0210 C.ar      1 <0>        -0.0709
      8 C8          2.5022   -2.7094   -0.0359 C.ar      1 <0>        -0.1263
      9 C9          3.6867   -1.9757   -0.0433 C.ar      1 <0>        -0.0758
     10 C10         3.6681   -0.6146   -0.0367 C.ar      1 <0>        -0.1213
     11 C11         4.9603    0.1606   -0.0459 C.3       1 <0>        -0.0647
     12 C12         5.3414    0.5186    1.3675 C.cat     1 <0>         0.5202
     13 N1          4.9467    1.6296    1.9436 N.pl3     1 <0>        -0.6320
     14 C13         5.4824    1.6835    3.3134 C.3       1 <0>         0.0558
     15 C14         6.2804    0.3684    3.4313 C.3       1 <0>         0.0571
     16 N2          6.0879   -0.2604    2.1146 N.pl3     1 <0>        -0.6306
     17 H1         -0.9634    1.8756    0.0259 H         1 <0>         0.1333
     18 H2          1.1258    3.1698    0.0084 H         1 <0>         0.1312
     19 H3          3.2883    2.0497   -0.0195 H         1 <0>         0.1139
     20 H4         -0.9241   -0.5595    0.0082 H         1 <0>         0.1368
     21 H5          0.3820   -2.6682   -0.0147 H         1 <0>         0.1381
     22 H6          2.5450   -3.7886   -0.0417 H         1 <0>         0.1355
     23 H7          4.6338   -2.4947   -0.0548 H         1 <0>         0.1298
     24 H8          5.7467   -0.4491   -0.4909 H         1 <0>         0.1356
     25 H9          4.8331    1.0722   -0.6299 H         1 <0>         0.1331
     26 H10         6.1393    2.5446    3.4361 H         1 <0>         0.1278
     27 H11         4.6726    1.7090    4.0426 H         1 <0>         0.1261
     28 H12         7.3354    0.5734    3.6128 H         1 <0>         0.1280
     29 H13         5.8687   -0.2622    4.2193 H         1 <0>         0.1260
     30 H14         6.4563   -1.1152    1.8414 H         1 <0>         0.4594
     31 H15         4.3900    2.3087    1.5315 H         1 <0>         0.4564
@<TRIPOS>BOND
     1    1    6 ar
     2    1    2 ar
     3    1   17 1
     4    2    3 ar
     5    2   18 1
     6    3    4 ar
     7    3   19 1
     8    4   10 ar
     9    4    5 ar
    10    5    6 ar
    11    5    7 ar
    12    6   20 1
    13    7    8 ar
    14    7   21 1
    15    8    9 ar
    16    8   22 1
    17    9   10 ar
    18    9   23 1
    19   10   11 1
    20   11   12 1
    21   11   24 1
    22   11   25 1
    23   12   16 1
    24   12   13 2
    25   13   14 1
    26   13   31 1
    27   14   15 1
    28   14   26 1
    29   14   27 1
    30   15   16 1
    31   15   28 1
    32   15   29 1
    33   16   30 1
@<TRIPOS>MOLECULE
ZINC00057435
   44    45     0     0     0
SMALL
USER_CHARGES

@<TRIPOS>ATOM
      1 C1         -0.0184    1.5028    0.0103 C.3       1 <0>        -0.1187
      2 C2          0.0021   -0.0041    0.0020 C.ar      1 <0>        -0.0706
      3 C3          0.0057   -0.6877   -1.2000 C.ar      1 <0>        -0.1068
      4 C4          0.0240   -2.0688   -1.2103 C.ar      1 <0>        -0.0587
      5 C5          0.0391   -2.7702   -0.0132 C.ar      1 <0>         0.1144
      6 C6          0.0359   -2.0821    1.1912 C.ar      1 <0>        -0.0903
      7 C7          0.0229   -0.7005    1.1961 C.ar      1 <0>        -0.1162
      8 C8          0.0251    0.0478    2.5041 C.3       1 <0>        -0.0673
      9 C9         -1.3948    0.2779    2.9536 C.cat     1 <0>         0.5209
     10 N1         -2.0787    1.3438    2.6094 N.pl3     1 <0>        -0.6326
     11 C10        -3.4229    1.2717    3.2045 C.3       1 <0>         0.0558
     12 C11        -3.3949   -0.0637    3.9766 C.3       1 <0>         0.0553
     13 N2         -2.0402   -0.5755    3.7135 N.pl3     1 <0>        -0.6321
     14 C12         0.0523   -2.8407    2.4932 C.3       1 <0>        -0.1164
     15 O1          0.0567   -4.1291   -0.0207 O.3       1 <0>        -0.4857
     16 C13         0.0269   -2.8132   -2.5206 C.3       1 <0>        -0.0279
     17 C14         0.0075   -1.8111   -3.6766 C.3       1 <0>        -0.1499
     18 C15         1.2872   -3.6756   -2.6144 C.3       1 <0>        -0.1449
     19 C16        -1.2110   -3.7088   -2.6012 C.3       1 <0>        -0.1436
     20 H1          1.0042    1.8801    0.0026 H         1 <0>         0.0894
     21 H2         -0.5455    1.8639   -0.8728 H         1 <0>         0.0828
     22 H3         -0.5286    1.8543    0.9071 H         1 <0>         0.0429
     23 H4         -0.0061   -0.1413   -2.1315 H         1 <0>         0.1413
     24 H5          0.5541   -0.5371    3.2565 H         1 <0>         0.1334
     25 H6          0.5247    1.0077    2.3728 H         1 <0>         0.1345
     26 H7         -3.5875    2.1066    3.8856 H         1 <0>         0.1281
     27 H8         -4.1871    1.2511    2.4276 H         1 <0>         0.1265
     28 H9         -3.5456    0.1050    5.0429 H         1 <0>         0.1284
     29 H10        -4.1452   -0.7506    3.5848 H         1 <0>         0.1263
     30 H11        -1.6805   -1.4110    4.0501 H         1 <0>         0.4565
     31 H12         1.0838   -3.0100    2.8021 H         1 <0>         0.0866
     32 H13        -0.4655   -2.2615    3.2577 H         1 <0>         0.0429
     33 H14        -0.4495   -3.7993    2.3615 H         1 <0>         0.0887
     34 H15         0.9450   -4.5109   -0.0273 H         1 <0>         0.3935
     35 H16         0.8894   -1.1731   -3.6192 H         1 <0>         0.0601
     36 H17         0.0096   -2.3495   -4.6243 H         1 <0>         0.0665
     37 H18        -0.8904   -1.1967   -3.6098 H         1 <0>         0.0588
     38 H19         1.3010   -4.3896   -1.7909 H         1 <0>         0.0592
     39 H20         1.2893   -4.2141   -3.5621 H         1 <0>         0.0679
     40 H21         2.1691   -3.0376   -2.5570 H         1 <0>         0.0569
     41 H22        -2.1089   -3.0944   -2.5344 H         1 <0>         0.0509
     42 H23        -1.2089   -4.2472   -3.5489 H         1 <0>         0.0620
     43 H24        -1.1972   -4.4227   -1.7776 H         1 <0>         0.0749
     44 H25        -1.7499    2.0657    2.0512 H         1 <0>         0.4564
@<TRIPOS>BOND
     1    1    2 1
     2    1   20 1
     3    1   21 1
     4    1   22 1
     5    2    7 ar
     6    2    3 ar
     7    3    4 ar
     8    3   23 1
     9    4    5 ar
    10    4   16 1
    11    5    6 ar
    12    5   15 1
    13    6    7 ar
    14    6   14 1
    15    7    8 1
    16    8    9 1
    17    8   24 1
    18    8   25 1
    19    9   13 1
    20    9   10 2
    21   10   11 1
    22   10   44 1
    23   11   12 1
    24   11   26 1
    25   11   27 1
    26   12   13 1
    27   12   28 1
    28   12   29 1
    29   13   30 1
    30   14   31 1
    31   14   32 1
    32   14   33 1
    33   15   34 1
    34   16   17 1
    35   16   18 1
    36   16   19 1
    37   17   35 1
    38   17   36 1
    39   17   37 1
    40   18   38 1
    41   18   39 1
    42   18   40 1
    43   19   41 1
    44   19   42 1
    45   19   43 1
@<TRIPOS>MOLECULE
ZINC03872738
   24    24     0     0     0
SMALL
USER_CHARGES

@<TRIPOS>ATOM
      1 C1         -0.0142    1.4327    0.1067 C.ar      1 <0>        -0.0962
      2 C2          1.1858    2.1135    0.0238 C.ar      1 <0>        -0.1028
      3 C3          2.3782    1.4126   -0.0120 C.ar      1 <0>        -0.0139
      4 C4          2.3692    0.0302    0.0357 C.ar      1 <0>        -0.0503
      5 C5          1.1679   -0.6507    0.1191 C.ar      1 <0>        -0.0178
      6 C6         -0.0238    0.0513    0.1543 C.ar      1 <0>        -0.1037
      7 Cl1         1.1556   -2.3856    0.1784 Cl        1 <0>        -0.0614
      8 C7          3.6675   -0.7339   -0.0038 C.3       1 <0>        -0.1118
      9 C8          4.1719   -0.9401    1.4013 C.2       1 <0>         0.5228
     10 O1          3.5380   -0.5082    2.3441 O.2       1 <0>        -0.5327
     11 N1          5.3120   -1.5955    1.6099 N.2       1 <0>        -0.7019
     12 C9          5.3418   -2.6253    2.4463 C.2       1 <0>         0.7009
     13 N2          4.1857   -3.0879    2.9987 N.pl3     1 <0>        -0.8632
     14 N3          6.5287   -3.2199    2.7525 N.pl3     1 <0>        -0.8249
     15 Cl2         3.8852    2.2679   -0.1173 Cl        1 <0>        -0.0513
     16 H1         -0.9445    1.9804    0.1388 H         1 <0>         0.1434
     17 H2          1.1927    3.1929   -0.0134 H         1 <0>         0.1414
     18 H3         -0.9617   -0.4801    0.2195 H         1 <0>         0.1408
     19 H4          3.5051   -1.7022   -0.4773 H         1 <0>         0.1087
     20 H5          4.4043   -0.1691   -0.5750 H         1 <0>         0.1141
     21 H6          3.3334   -2.7163    2.7223 H         1 <0>         0.4201
     22 H7          4.2147   -3.7889    3.6686 H         1 <0>         0.4024
     23 H8          7.3519   -2.8905    2.3592 H         1 <0>         0.4263
     24 H9          6.5505   -3.9726    3.3640 H         1 <0>         0.4110
@<TRIPOS>BOND
     1    1    6 ar
     2    1    2 ar
     3    1   16 1
     4    2    3 ar
     5    2   17 1
     6    3    4 ar
     7    3   15 1
     8    4    5 ar
     9    4    8 1
    10    5    6 ar
    11    5    7 1
    12    6   18 1
    13    8    9 1
    14    8   19 1
    15    8   20 1
    16    9   10 2
    17    9   11 1
    18   11   12 2
    19   12   13 1
    20   12   14 1
    21   13   21 1
    22   13   22 1
    23   14   23 1
    24   14   24 1
