@<TRIPOS>MOLECULE
ZINC02022527
   54    55     0     0     0
SMALL
USER_CHARGES

@<TRIPOS>ATOM
      1 C1         -3.0730    2.2881   -4.2693 C.3       1 <0>        -0.1569
      2 C2         -2.3049    1.5870   -3.1471 C.3       1 <0>        -0.1270
      3 C3         -2.8110    2.0874   -1.7927 C.3       1 <0>        -0.1231
      4 C4         -2.0429    1.3862   -0.6705 C.3       1 <0>        -0.1174
      5 C5         -2.5490    1.8867    0.6839 C.3       1 <0>        -0.1006
      6 C6         -2.2117    3.3722    0.8391 C.3       1 <0>        -0.1451
      7 C7         -2.6658    3.8518    2.2196 C.3       1 <0>        -0.0114
      8 C8         -2.3347    1.6429    3.1595 C.3       1 <0>        -0.0001
      9 C9         -1.8707    1.0973    1.8070 C.3       1 <0>        -0.1442
     10 C10        -2.2939    3.5901    4.5974 C.3       1 <0>        -0.0052
     11 C11        -2.1583    5.1140    4.5919 C.3       1 <0>        -0.1459
     12 C12        -2.4764    5.6593    5.9856 C.3       1 <0>        -0.1543
     13 C13        -2.3428    7.1604    5.9803 C.2       1 <0>         0.3987
     14 O1         -2.0245    7.7371    4.9623 O.2       1 <0>        -0.4456
     15 C14        -2.5986    7.9263    7.2106 C.ar      1 <0>        -0.1885
     16 C15        -3.0878    7.2813    8.3513 C.ar      1 <0>        -0.0705
     17 C16        -3.3195    8.0047    9.5018 C.ar      1 <0>        -0.1389
     18 C17        -3.0801    9.3679    9.5265 C.ar      1 <0>        -0.0729
     19 C18        -2.6016   10.0143    8.4004 C.ar      1 <0>        -0.1345
     20 C19        -2.3594    9.3036    7.2436 C.ar      1 <0>        -0.0178
     21 C20        -1.8387   10.0095    6.0182 C.3       1 <0>        -0.1264
     22 H1         -4.1363    2.0676   -4.1746 H         1 <0>         0.0549
     23 H2         -2.9175    3.3647   -4.1985 H         1 <0>         0.0540
     24 H3         -2.7125    1.9316   -5.2342 H         1 <0>         0.0581
     25 H4         -1.2417    1.8075   -3.2417 H         1 <0>         0.0621
     26 H5         -2.4605    0.5104   -3.2179 H         1 <0>         0.0631
     27 H6         -3.8743    1.8669   -1.6981 H         1 <0>         0.0644
     28 H7         -2.6555    3.1639   -1.7219 H         1 <0>         0.0632
     29 H8         -2.1984    0.3097   -0.7413 H         1 <0>         0.0733
     30 H9         -0.9796    1.6067   -0.7651 H         1 <0>         0.0688
     31 H10        -3.6287    1.7492    0.7427 H         1 <0>         0.0884
     32 H11        -1.1354    3.5132    0.7407 H         1 <0>         0.0881
     33 H12        -2.7264    3.9447    0.0675 H         1 <0>         0.1133
     34 H13        -3.7442    3.7233    2.3122 H         1 <0>         0.1295
     35 H14        -2.4142    4.9057    2.3388 H         1 <0>         0.1342
     36 H15        -3.4146    1.5248    3.2476 H         1 <0>         0.1293
     37 H16        -1.8426    1.0924    3.9613 H         1 <0>         0.1282
     38 H17        -2.1418    0.0446    1.7270 H         1 <0>         0.1118
     39 H18        -0.7890    1.2025    1.7239 H         1 <0>         0.0880
     40 H19        -3.3133    3.3170    4.8704 H         1 <0>         0.1315
     41 H20        -1.5979    3.1659    5.3211 H         1 <0>         0.1302
     42 H21        -1.1389    5.3871    4.3190 H         1 <0>         0.0944
     43 H22        -2.8542    5.5382    3.8682 H         1 <0>         0.0968
     44 H23        -3.4115    5.4088    6.2361 H         1 <0>         0.0981
     45 H24        -1.7805    5.2352    6.7093 H         1 <0>         0.1100
     46 H25        -3.2793    6.2186    8.3321 H         1 <0>         0.1290
     47 H26        -3.6933    7.5074   10.3846 H         1 <0>         0.1322
     48 H27        -3.2682    9.9300   10.4293 H         1 <0>         0.1326
     49 H28        -2.4176   11.0782    8.4274 H         1 <0>         0.1332
     50 H29        -2.6709   10.2515    5.3572 H         1 <0>         0.0784
     51 H30        -1.3321   10.9277    6.3156 H         1 <0>         0.0652
     52 H31        -1.1365    9.3600    5.4956 H         1 <0>         0.0893
     53 N1         -1.9588    3.0696    3.2558 N.4       1 <0>        -0.3931
     54 H32        -0.9467    3.1581    3.1071 H         1 <0>         0.4272
@<TRIPOS>BOND
     1    1    2 1
     2    1   22 1
     3    1   23 1
     4    1   24 1
     5    2    3 1
     6    2   25 1
     7    2   26 1
     8    3    4 1
     9    3   27 1
    10    3   28 1
    11    4    5 1
    12    4   29 1
    13    4   30 1
    14    5    9 1
    15    5    6 1
    16    5   31 1
    17    6    7 1
    18    6   32 1
    19    6   33 1
    20    7   34 1
    21    7   35 1
    22    7   53 1
    23    8    9 1
    24    8   36 1
    25    8   37 1
    26    8   53 1
    27    9   38 1
    28    9   39 1
    29   10   11 1
    30   10   40 1
    31   10   41 1
    32   10   53 1
    33   11   12 1
    34   11   42 1
    35   11   43 1
    36   12   13 1
    37   12   44 1
    38   12   45 1
    39   13   14 2
    40   13   15 1
    41   15   20 ar
    42   15   16 ar
    43   16   17 ar
    44   16   46 1
    45   17   18 ar
    46   17   47 1
    47   18   19 ar
    48   18   48 1
    49   19   20 ar
    50   19   49 1
    51   20   21 1
    52   21   50 1
    53   21   51 1
    54   21   52 1
    55   53   54 1
@<TRIPOS>MOLECULE
ZINC03795331
   64    68     0     0     0
SMALL
USER_CHARGES

@<TRIPOS>ATOM
      1 C1          0.3212    1.0082   -0.8934 C.3       1 <0>         0.0206
      2 O1          0.2942   -0.3984   -0.6425 O.3       1 <0>        -0.3288
      3 C2         -0.9225   -1.0035   -0.6520 C.ar      1 <0>         0.1432
      4 C3         -2.0666   -0.2598   -0.9033 C.ar      1 <0>        -0.1980
      5 C4         -3.3021   -0.8773   -0.9127 C.ar      1 <0>        -0.0558
      6 C5         -3.3994   -2.2356   -0.6721 C.ar      1 <0>        -0.1459
      7 C6         -2.2611   -2.9787   -0.4210 C.ar      1 <0>        -0.0752
      8 C7         -1.0223   -2.3668   -0.4160 C.ar      1 <0>        -0.1465
      9 C8          0.2188   -3.1786   -0.1484 C.3       1 <0>        -0.0647
     10 C9          0.5650   -3.0991    1.3161 C.cat     1 <0>         0.5654
     11 N1          1.1731   -2.0567    1.7812 N.pl3     1 <0>        -0.7214
     12 N2          0.2356   -4.1310    2.1549 N.pl3     1 <0>        -0.5676
     13 C10        -0.7544   -5.1868    1.8858 C.3       1 <0>         0.1073
     14 C11        -1.1082   -5.8225    3.2314 C.3       1 <0>        -0.1470
     15 H1         -0.7332   -6.8459    3.2230 H         1 <0>         0.1264
     16 C12        -0.3358   -5.0538    4.2959 C.3       1 <0>        -0.0733
     17 H2          0.0804   -5.7469    5.0270 H         1 <0>         0.1270
     18 C13         0.8130   -4.3875    3.4862 C.3       1 <0>         0.0776
     19 C14        -1.1199   -3.9713    5.0001 C.3       1 <0>         0.0330
     20 C15        -2.5621   -4.2962    5.3123 C.3       1 <0>        -0.0993
     21 C16        -3.3102   -4.7179    4.0460 C.3       1 <0>        -0.1927
     22 C17        -2.5764   -5.8757    3.4788 C.2       1 <0>         0.3672
     23 O2         -3.1989   -6.8803    3.2303 O.2       1 <0>        -0.4250
     24 C18        -1.0922   -2.7348    4.1392 C.ar      1 <0>        -0.0790
     25 C19        -0.4901   -1.5812    4.6057 C.ar      1 <0>        -0.1205
     26 C20        -0.4646   -0.4469    3.8160 C.ar      1 <0>        -0.1211
     27 C21        -1.0408   -0.4663    2.5596 C.ar      1 <0>        -0.1176
     28 C22        -1.6421   -1.6202    2.0927 C.ar      1 <0>        -0.1520
     29 C23        -1.6638   -2.7557    2.8807 C.ar      1 <0>        -0.1402
     30 C24        -0.4193   -3.6498    6.2950 C.ar      1 <0>        -0.0869
     31 C25        -1.0186   -2.8101    7.2151 C.ar      1 <0>        -0.1094
     32 C26        -0.3760   -2.5151    8.4029 C.ar      1 <0>        -0.1102
     33 C27         0.8658   -3.0602    8.6708 C.ar      1 <0>        -0.1117
     34 C28         1.4647   -3.9006    7.7510 C.ar      1 <0>        -0.1106
     35 C29         0.8202   -4.1990    6.5651 C.ar      1 <0>        -0.1298
     36 H3          1.3509    1.3640   -0.8572 H         1 <0>         0.1109
     37 H4         -0.0984    1.2096   -1.8790 H         1 <0>         0.0676
     38 H5         -0.2682    1.5238   -0.1352 H         1 <0>         0.0627
     39 H6         -1.9912    0.8011   -1.0909 H         1 <0>         0.1404
     40 H7         -4.1930   -0.2988   -1.1080 H         1 <0>         0.1381
     41 H8         -4.3664   -2.7165   -0.6799 H         1 <0>         0.1383
     42 H9         -2.3397   -4.0393   -0.2329 H         1 <0>         0.1347
     43 H10         0.0394   -4.2180   -0.4234 H         1 <0>         0.1307
     44 H11         1.0455   -2.7840   -0.7391 H         1 <0>         0.1409
     45 H12         1.4602   -2.0357    2.7075 H         1 <0>         0.4243
     46 H13        -1.6464   -4.7530    1.4339 H         1 <0>         0.1009
     47 H14        -0.3257   -5.9373    1.2217 H         1 <0>         0.1151
     48 H15         1.6648   -5.0628    3.4060 H         1 <0>         0.1123
     49 H16         1.1138   -3.4508    3.9555 H         1 <0>         0.1012
     50 H17        -2.5978   -5.1091    6.0376 H         1 <0>         0.0835
     51 H18        -3.0442   -3.4159    5.7374 H         1 <0>         0.0910
     52 H19        -4.3348   -4.9951    4.2939 H         1 <0>         0.1095
     53 H20        -3.3086   -3.9017    3.3236 H         1 <0>         0.1159
     54 H21        -0.0399   -1.5660    5.5873 H         1 <0>         0.1369
     55 H22         0.0051    0.4546    4.1808 H         1 <0>         0.1272
     56 H23        -1.0216    0.4201    1.9429 H         1 <0>         0.1194
     57 H24        -2.0926   -1.6352    1.1113 H         1 <0>         0.1483
     58 H25        -2.1303   -3.6583    2.5145 H         1 <0>         0.1347
     59 H26        -1.9888   -2.3842    7.0058 H         1 <0>         0.1246
     60 H27        -0.8439   -1.8585    9.1215 H         1 <0>         0.1274
     61 H28         1.3682   -2.8292    9.5985 H         1 <0>         0.1270
     62 H29         2.4351   -4.3262    7.9602 H         1 <0>         0.1267
     63 H30         1.2864   -4.8585    5.8482 H         1 <0>         0.1236
     64 H31         1.3420   -1.2959    1.2037 H         1 <0>         0.4487
@<TRIPOS>BOND
     1    1    2 1
     2    1   36 1
     3    1   37 1
     4    1   38 1
     5    2    3 1
     6    3    8 ar
     7    3    4 ar
     8    4    5 ar
     9    4   39 1
    10    5    6 ar
    11    5   40 1
    12    6    7 ar
    13    6   41 1
    14    7    8 ar
    15    7   42 1
    16    8    9 1
    17    9   10 1
    18    9   43 1
    19    9   44 1
    20   10   11 2
    21   10   12 1
    22   11   45 1
    23   11   64 1
    24   12   18 1
    25   12   13 1
    26   13   14 1
    27   13   46 1
    28   13   47 1
    29   14   15 1
    30   14   22 1
    31   14   16 1
    32   16   17 1
    33   16   18 1
    34   16   19 1
    35   18   48 1
    36   18   49 1
    37   19   20 1
    38   19   24 1
    39   19   30 1
    40   20   21 1
    41   20   50 1
    42   20   51 1
    43   21   22 1
    44   21   52 1
    45   21   53 1
    46   22   23 2
    47   24   29 ar
    48   24   25 ar
    49   25   26 ar
    50   25   54 1
    51   26   27 ar
    52   26   55 1
    53   27   28 ar
    54   27   56 1
    55   28   29 ar
    56   28   57 1
    57   29   58 1
    58   30   35 ar
    59   30   31 ar
    60   31   32 ar
    61   31   59 1
    62   32   33 ar
    63   32   60 1
    64   33   34 ar
    65   33   61 1
    66   34   35 ar
    67   34   62 1
    68   35   63 1
@<TRIPOS>MOLECULE
ZINC19360857
   47    49     0     0     0
SMALL
USER_CHARGES
(2S,3R)-N-[(2-methoxyphenyl)methyl]-2-phenyl-piperidin-3-amine
@<TRIPOS>ATOM
      1 C1          0.4398    5.0422   -1.4875 C.3       1 <0>         0.0235
      2 O1          0.2926    3.7147   -0.9796 O.3       1 <0>        -0.3203
      3 C2         -0.5512    2.8874   -1.6508 C.ar      1 <0>         0.1319
      4 C3         -1.2205    3.3427   -2.7778 C.ar      1 <0>        -0.2065
      5 C4         -2.0819    2.5016   -3.4548 C.ar      1 <0>        -0.0720
      6 C5         -2.2740    1.2053   -3.0132 C.ar      1 <0>        -0.1536
      7 C6         -1.6043    0.7477   -1.8936 C.ar      1 <0>        -0.0620
      8 C7         -0.7416    1.5850   -1.2129 C.ar      1 <0>        -0.1234
      9 C8         -0.0127    1.0858    0.0080 C.3       1 <0>         0.1041
     10 N1         -0.7003    1.5596    1.2166 N.3       1 <0>        -0.6575
     11 C9         -0.0162    1.0911    2.4293 C.3       1 <0>         0.0673
     12 H1          1.0617    1.0804    2.2103 H         1 <0>         0.0675
     13 C10        -0.5103   -0.3140    2.7845 C.3       1 <0>        -0.1275
     14 C11         0.1626   -0.7703    4.0820 C.3       1 <0>        -0.1483
     15 C12        -0.1487    0.2350    5.1932 C.3       1 <0>        -0.0014
     16 N2          0.3442    1.5629    4.8058 N.4       1 <0>        -0.5328
     17 C13        -0.3223    2.0424    3.5884 C.3       1 <0>         0.0879
     18 H2         -1.4026    2.0795    3.7925 H         1 <0>         0.1467
     19 C14         0.1803    3.4225    3.2514 C.ar      1 <0>        -0.1477
     20 C15         1.5196    3.7275    3.4070 C.ar      1 <0>        -0.1192
     21 C16         1.9814    4.9922    3.0937 C.ar      1 <0>        -0.1024
     22 C17         1.1023    5.9548    2.6339 C.ar      1 <0>        -0.0904
     23 C18        -0.2378    5.6512    2.4828 C.ar      1 <0>        -0.1012
     24 C19        -0.6989    4.3852    2.7919 C.ar      1 <0>        -0.0859
     25 H3          1.1458    5.6005   -0.8552 H         1 <0>         0.0999
     26 H4         -0.5371    5.5477   -1.4809 H         1 <0>         0.0586
     27 H5          0.8240    5.0002   -2.5174 H         1 <0>         0.0595
     28 H6         -1.0711    4.3551   -3.1229 H         1 <0>         0.1298
     29 H7         -2.6062    2.8568   -4.3297 H         1 <0>         0.1284
     30 H8         -2.9485    0.5495   -3.5435 H         1 <0>         0.1280
     31 H9         -1.7560   -0.2651   -1.5507 H         1 <0>         0.1293
     32 H10         0.0022   -0.0141    0.0020 H         1 <0>         0.0838
     33 H11         1.0193    1.4665    0.0002 H         1 <0>         0.0480
     34 H12        -0.7152    2.6595    1.2226 H         1 <0>         0.3540
     35 H13        -1.6016   -0.2953    2.9210 H         1 <0>         0.0907
     36 H14        -0.2544   -1.0092    1.9713 H         1 <0>         0.0924
     37 H15        -0.2203   -1.7620    4.3645 H         1 <0>         0.1151
     38 H16         1.2507   -0.8269    3.9306 H         1 <0>         0.0862
     39 H17        -1.2361    0.2802    5.3527 H         1 <0>         0.1298
     40 H18         0.3454   -0.0820    6.1235 H         1 <0>         0.1350
     41 H19         0.1480    2.2782    5.6181 H         1 <0>         0.4551
     42 H20         2.2057    2.9766    3.7702 H         1 <0>         0.1177
     43 H21         3.0285    5.2292    3.2115 H         1 <0>         0.1342
     44 H22         1.4625    6.9438    2.3923 H         1 <0>         0.1347
     45 H23        -0.9247    6.4033    2.1235 H         1 <0>         0.1359
     46 H24        -1.7459    4.1482    2.6742 H         1 <0>         0.1352
     47 H25         1.4265    1.5113    4.6161 H         1 <0>         0.4418
@<TRIPOS>BOND
     1    1    2 1
     2    1   25 1
     3    1   26 1
     4    1   27 1
     5    2    3 1
     6    3    8 ar
     7    3    4 ar
     8    4    5 ar
     9    4   28 1
    10    5    6 ar
    11    5   29 1
    12    6    7 ar
    13    6   30 1
    14    7    8 ar
    15    7   31 1
    16    8    9 1
    17    9   10 1
    18    9   32 1
    19    9   33 1
    20   10   11 1
    21   10   34 1
    22   11   12 1
    23   11   17 1
    24   11   13 1
    25   13   14 1
    26   13   35 1
    27   13   36 1
    28   14   15 1
    29   14   37 1
    30   14   38 1
    31   15   16 1
    32   15   39 1
    33   15   40 1
    34   16   17 1
    35   16   41 1
    36   16   47 1
    37   17   18 1
    38   17   19 1
    39   19   24 ar
    40   19   20 ar
    41   20   21 ar
    42   20   42 1
    43   21   22 ar
    44   21   43 1
    45   22   23 ar
    46   22   44 1
    47   23   24 ar
    48   23   45 1
    49   24   46 1
@<TRIPOS>MOLECULE
ZINC19360857
   47    49     0     0     0
SMALL
USER_CHARGES

@<TRIPOS>ATOM
      1 C1         -0.0173    1.4248    0.0099 C.3       1 <0>         0.0235
      2 O1          0.0021   -0.0041    0.0020 O.3       1 <0>        -0.3258
      3 C2         -1.2003   -0.6375    0.0101 C.ar      1 <0>         0.1517
      4 C3         -2.3748    0.1012    0.0195 C.ar      1 <0>        -0.2038
      5 C4         -3.5956   -0.5449    0.0272 C.ar      1 <0>        -0.0429
      6 C5         -3.6478   -1.9268    0.0256 C.ar      1 <0>        -0.1508
      7 C6         -2.4790   -2.6650    0.0167 C.ar      1 <0>        -0.0523
      8 C7         -1.2554   -2.0235    0.0032 C.ar      1 <0>        -0.1990
      9 C8          0.0182   -2.8288   -0.0128 C.3       1 <0>         0.0554
     10 N1          0.5731   -2.8945    1.3458 N.4       1 <0>        -0.5049
     11 C9          1.8147   -3.6796    1.3302 C.3       1 <0>         0.0334
     12 H1          2.5038   -3.2561    0.5996 H         1 <0>         0.1479
     13 C10         1.4980   -5.1295    0.9536 C.3       1 <0>        -0.1417
     14 C11         2.7878   -5.9536    0.9983 C.3       1 <0>        -0.1156
     15 C12         3.4022   -5.8550    2.3965 C.3       1 <0>         0.0461
     16 N2          3.6874   -4.4489    2.7091 N.3       1 <0>        -0.6725
     17 C13         2.4578   -3.6461    2.7185 C.3       1 <0>         0.1228
     18 H2          1.7625   -4.0564    3.4508 H         1 <0>         0.0668
     19 C14         2.7895   -2.2222    3.0840 C.ar      1 <0>        -0.1382
     20 C15         3.9272   -1.6249    2.5745 C.ar      1 <0>        -0.0819
     21 C16         4.2315   -0.3188    2.9098 C.ar      1 <0>        -0.1134
     22 C17         3.3977    0.3901    3.7543 C.ar      1 <0>        -0.0990
     23 C18         2.2595   -0.2069    4.2631 C.ar      1 <0>        -0.1129
     24 C19         1.9530   -1.5116    3.9243 C.ar      1 <0>        -0.1283
     25 H3          1.0053    1.8021    0.0021 H         1 <0>         0.1103
     26 H4         -0.5445    1.7859   -0.8732 H         1 <0>         0.0662
     27 H5         -0.5275    1.7763    0.9067 H         1 <0>         0.0642
     28 H6         -2.3345    1.1804    0.0211 H         1 <0>         0.1408
     29 H7         -4.5101    0.0296    0.0349 H         1 <0>         0.1389
     30 H8         -4.6033   -2.4302    0.0316 H         1 <0>         0.1386
     31 H9         -2.5225   -3.7442    0.0158 H         1 <0>         0.1398
     32 H10        -0.1940   -3.8373   -0.3678 H         1 <0>         0.1384
     33 H11         0.7400   -2.3541   -0.6775 H         1 <0>         0.1385
     34 H12         0.7696   -1.9610    1.6743 H         1 <0>         0.4281
     35 H13         0.7783   -5.5408    1.6615 H         1 <0>         0.0851
     36 H14         1.0799   -5.1616   -0.0525 H         1 <0>         0.0932
     37 H15         2.5618   -6.9957    0.7727 H         1 <0>         0.0915
     38 H16         3.4928   -5.5661    0.2628 H         1 <0>         0.0853
     39 H17         2.7021   -6.2554    3.1298 H         1 <0>         0.0426
     40 H18         4.3282   -6.4290    2.4275 H         1 <0>         0.0957
     41 H19         4.5786   -2.1788    1.9147 H         1 <0>         0.1379
     42 H20         5.1208    0.1476    2.5123 H         1 <0>         0.1314
     43 H21         3.6358    1.4103    4.0168 H         1 <0>         0.1303
     44 H22         1.6082    0.3469    4.9231 H         1 <0>         0.1298
     45 H23         1.0617   -1.9768    4.3189 H         1 <0>         0.1211
     46 H24         4.1798   -4.3661    3.5859 H         1 <0>         0.3674
     47 H25        -0.0950   -3.3340    1.9611 H         1 <0>         0.4204
@<TRIPOS>BOND
     1    1    2 1
     2    1   25 1
     3    1   26 1
     4    1   27 1
     5    2    3 1
     6    3    8 ar
     7    3    4 ar
     8    4    5 ar
     9    4   28 1
    10    5    6 ar
    11    5   29 1
    12    6    7 ar
    13    6   30 1
    14    7    8 ar
    15    7   31 1
    16    8    9 1
    17    9   10 1
    18    9   32 1
    19    9   33 1
    20   10   11 1
    21   10   34 1
    22   10   47 1
    23   11   12 1
    24   11   17 1
    25   11   13 1
    26   13   14 1
    27   13   35 1
    28   13   36 1
    29   14   15 1
    30   14   37 1
    31   14   38 1
    32   15   16 1
    33   15   39 1
    34   15   40 1
    35   16   17 1
    36   16   46 1
    37   17   18 1
    38   17   19 1
    39   19   24 ar
    40   19   20 ar
    41   20   21 ar
    42   20   41 1
    43   21   22 ar
    44   21   42 1
    45   22   23 ar
    46   22   43 1
    47   23   24 ar
    48   23   44 1
    49   24   45 1
@<TRIPOS>MOLECULE
ZINC22441784
   47    49     0     0     0
SMALL
USER_CHARGES

@<TRIPOS>ATOM
      1 C1         -0.0173    1.4248    0.0099 C.3       1 <0>         0.0248
      2 O1          0.0021   -0.0041    0.0020 O.3       1 <0>        -0.3243
      3 C2          0.6058   -0.6071   -1.0557 C.ar      1 <0>         0.1297
      4 C3          1.1731    0.1608   -2.0626 C.ar      1 <0>        -0.2063
      5 C4          1.7865   -0.4545   -3.1363 C.ar      1 <0>        -0.0709
      6 C5          1.8356   -1.8347   -3.2084 C.ar      1 <0>        -0.1531
      7 C6          1.2707   -2.6020   -2.2067 C.ar      1 <0>        -0.0600
      8 C7          0.6609   -1.9913   -1.1277 C.ar      1 <0>        -0.1271
      9 C8          0.0508   -2.8283   -0.0330 C.3       1 <0>         0.1163
     10 N1         -1.4020   -2.9126   -0.2332 N.3       1 <0>        -0.6809
     11 C9         -2.0320   -3.7229    0.8178 C.3       1 <0>         0.0715
     12 H1         -1.3617   -4.5336    1.1033 H         1 <0>         0.1241
     13 C10        -2.3198   -2.8436    2.0381 C.3       1 <0>        -0.1669
     14 C11        -3.3220   -1.7543    1.6452 C.3       1 <0>        -0.1482
     15 C12        -4.5887   -2.4102    1.0913 C.3       1 <0>        -0.0077
     16 N2         -4.2513   -3.2154   -0.0887 N.4       1 <0>        -0.5048
     17 C13        -3.3460   -4.3067    0.2942 C.3       1 <0>         0.0960
     18 H2         -3.8124   -4.9079    1.0747 H         1 <0>         0.1444
     19 C14        -3.0667   -5.1736   -0.9065 C.ar      1 <0>        -0.1340
     20 C15        -2.8641   -4.5942   -2.1451 C.ar      1 <0>        -0.0858
     21 C16        -2.6079   -5.3893   -3.2465 C.ar      1 <0>        -0.1118
     22 C17        -2.5538   -6.7638   -3.1091 C.ar      1 <0>        -0.0921
     23 C18        -2.7556   -7.3431   -1.8703 C.ar      1 <0>        -0.1126
     24 C19        -3.0075   -6.5477   -0.7681 C.ar      1 <0>        -0.0918
     25 H3          1.0053    1.8021    0.0021 H         1 <0>         0.0601
     26 H4         -0.5445    1.7859   -0.8732 H         1 <0>         0.0576
     27 H5         -0.5275    1.7763    0.9067 H         1 <0>         0.1017
     28 H6          1.1347    1.2387   -2.0069 H         1 <0>         0.1300
     29 H7          2.2279    0.1427   -3.9204 H         1 <0>         0.1286
     30 H8          2.3157   -2.3139   -4.0487 H         1 <0>         0.1279
     31 H9          1.3100   -3.6796   -2.2654 H         1 <0>         0.1295
     32 H10         0.4800   -3.8299   -0.0595 H         1 <0>         0.0872
     33 H11         0.2584   -2.3694    0.9337 H         1 <0>         0.0531
     34 H12        -1.8150   -1.9930   -0.2771 H         1 <0>         0.3389
     35 H13        -2.7402   -3.4547    2.8368 H         1 <0>         0.0897
     36 H14        -1.3941   -2.3808    2.3803 H         1 <0>         0.0964
     37 H15        -3.5743   -1.1584    2.5222 H         1 <0>         0.1158
     38 H16        -2.8813   -1.1122    0.8825 H         1 <0>         0.0875
     39 H17        -5.0287   -3.0518    1.8548 H         1 <0>         0.1331
     40 H18        -5.3045   -1.6375    0.8107 H         1 <0>         0.1350
     41 H19        -5.0955   -3.6030   -0.4827 H         1 <0>         0.4307
     42 H20        -2.9063   -3.5204   -2.2524 H         1 <0>         0.1202
     43 H21        -2.4503   -4.9367   -4.2143 H         1 <0>         0.1306
     44 H22        -2.3544   -7.3850   -3.9697 H         1 <0>         0.1313
     45 H23        -2.7137   -8.4169   -1.7631 H         1 <0>         0.1326
     46 H24        -3.1614   -7.0001    0.2004 H         1 <0>         0.1288
     47 H25        -3.7995   -2.6306   -0.7757 H         1 <0>         0.4254
@<TRIPOS>BOND
     1    1    2 1
     2    1   25 1
     3    1   26 1
     4    1   27 1
     5    2    3 1
     6    3    8 ar
     7    3    4 ar
     8    4    5 ar
     9    4   28 1
    10    5    6 ar
    11    5   29 1
    12    6    7 ar
    13    6   30 1
    14    7    8 ar
    15    7   31 1
    16    8    9 1
    17    9   10 1
    18    9   32 1
    19    9   33 1
    20   10   11 1
    21   10   34 1
    22   11   12 1
    23   11   17 1
    24   11   13 1
    25   13   14 1
    26   13   35 1
    27   13   36 1
    28   14   15 1
    29   14   37 1
    30   14   38 1
    31   15   16 1
    32   15   39 1
    33   15   40 1
    34   16   17 1
    35   16   41 1
    36   16   47 1
    37   17   18 1
    38   17   19 1
    39   19   24 ar
    40   19   20 ar
    41   20   21 ar
    42   20   42 1
    43   21   22 ar
    44   21   43 1
    45   22   23 ar
    46   22   44 1
    47   23   24 ar
    48   23   45 1
    49   24   46 1
@<TRIPOS>MOLECULE
ZINC22441784
   47    49     0     0     0
SMALL
USER_CHARGES

@<TRIPOS>ATOM
      1 C1         -0.0173    1.4248    0.0099 C.3       1 <0>         0.0226
      2 O1          0.0021   -0.0041    0.0020 O.3       1 <0>        -0.3264
      3 C2         -1.2003   -0.6375    0.0101 C.ar      1 <0>         0.1511
      4 C3         -2.3748    0.1012    0.0195 C.ar      1 <0>        -0.2033
      5 C4         -3.5956   -0.5449    0.0272 C.ar      1 <0>        -0.0442
      6 C5         -3.6478   -1.9268    0.0256 C.ar      1 <0>        -0.1501
      7 C6         -2.4790   -2.6650    0.0167 C.ar      1 <0>        -0.0528
      8 C7         -1.2554   -2.0235    0.0032 C.ar      1 <0>        -0.1961
      9 C8          0.0182   -2.8288   -0.0128 C.3       1 <0>         0.0492
     10 N1          0.5731   -2.8945    1.3458 N.4       1 <0>        -0.5008
     11 C9          1.8147   -3.6796    1.3302 C.3       1 <0>         0.0410
     12 H1          1.6206   -4.6588    0.8925 H         1 <0>         0.1419
     13 C10         2.8716   -2.9481    0.4981 C.3       1 <0>        -0.1451
     14 C11         3.1812   -1.5989    1.1527 C.3       1 <0>        -0.1344
     15 C12         3.6554   -1.8312    2.5891 C.3       1 <0>         0.0444
     16 N2          2.6093   -2.5330    3.3438 N.3       1 <0>        -0.6961
     17 C13         2.3279   -3.8524    2.7615 C.3       1 <0>         0.1127
     18 H2          3.2416   -4.4466    2.7505 H         1 <0>         0.0936
     19 C14         1.2822   -4.5550    3.5885 C.ar      1 <0>        -0.1251
     20 C15         0.2070   -3.8461    4.0907 C.ar      1 <0>        -0.1303
     21 C16        -0.7522   -4.4906    4.8492 C.ar      1 <0>        -0.1088
     22 C17        -0.6364   -5.8440    5.1053 C.ar      1 <0>        -0.1010
     23 C18         0.4384   -6.5531    4.6024 C.ar      1 <0>        -0.1055
     24 C19         1.3953   -5.9095    3.8402 C.ar      1 <0>        -0.1004
     25 H3          1.0053    1.8021    0.0021 H         1 <0>         0.1103
     26 H4         -0.5445    1.7859   -0.8732 H         1 <0>         0.0658
     27 H5         -0.5275    1.7763    0.9067 H         1 <0>         0.0646
     28 H6         -2.3345    1.1804    0.0211 H         1 <0>         0.1407
     29 H7         -4.5101    0.0296    0.0349 H         1 <0>         0.1386
     30 H8         -4.6033   -2.4302    0.0316 H         1 <0>         0.1383
     31 H9         -2.5225   -3.7442    0.0158 H         1 <0>         0.1391
     32 H10        -0.1940   -3.8373   -0.3678 H         1 <0>         0.1351
     33 H11         0.7400   -2.3541   -0.6775 H         1 <0>         0.1385
     34 H12         0.7696   -1.9610    1.6743 H         1 <0>         0.4305
     35 H13         3.7802   -3.5486    0.4540 H         1 <0>         0.1091
     36 H14         2.4923   -2.7850   -0.5107 H         1 <0>         0.0941
     37 H15         3.9640   -1.0918    0.5886 H         1 <0>         0.0960
     38 H16         2.2815   -0.9837    1.1615 H         1 <0>         0.0732
     39 H17         4.5629   -2.4349    2.5788 H         1 <0>         0.0506
     40 H18         3.8631   -0.8716    3.0626 H         1 <0>         0.0948
     41 H19         0.1165   -2.7886    3.8906 H         1 <0>         0.1262
     42 H20        -1.5920   -3.9366    5.2422 H         1 <0>         0.1317
     43 H21        -1.3854   -6.3474    5.6986 H         1 <0>         0.1323
     44 H22         0.5291   -7.6105    4.8027 H         1 <0>         0.1331
     45 H23         2.2331   -6.4642    3.4442 H         1 <0>         0.1293
     46 H24         2.8588   -2.6138    4.3181 H         1 <0>         0.3704
     47 H25        -0.0950   -3.3340    1.9611 H         1 <0>         0.4216
@<TRIPOS>BOND
     1    1    2 1
     2    1   25 1
     3    1   26 1
     4    1   27 1
     5    2    3 1
     6    3    8 ar
     7    3    4 ar
     8    4    5 ar
     9    4   28 1
    10    5    6 ar
    11    5   29 1
    12    6    7 ar
    13    6   30 1
    14    7    8 ar
    15    7   31 1
    16    8    9 1
    17    9   10 1
    18    9   32 1
    19    9   33 1
    20   10   11 1
    21   10   34 1
    22   10   47 1
    23   11   12 1
    24   11   17 1
    25   11   13 1
    26   13   14 1
    27   13   35 1
    28   13   36 1
    29   14   15 1
    30   14   37 1
    31   14   38 1
    32   15   16 1
    33   15   39 1
    34   15   40 1
    35   16   17 1
    36   16   46 1
    37   17   18 1
    38   17   19 1
    39   19   24 ar
    40   19   20 ar
    41   20   21 ar
    42   20   41 1
    43   21   22 ar
    44   21   42 1
    45   22   23 ar
    46   22   43 1
    47   23   24 ar
    48   23   44 1
    49   24   45 1
@<TRIPOS>MOLECULE
ZINC27428713
   58    61     0     0     0
SMALL
USER_CHARGES

@<TRIPOS>ATOM
      1 C1         -0.0187    1.5258    0.0104 C.3       1 <0>        -0.1746
      2 C2          0.0021   -0.0041    0.0020 C.3       1 <0>         0.1332
      3 H1          0.5293   -0.3651    0.8851 H         1 <0>         0.0775
      4 C3          0.7074   -0.4901   -1.2379 C.ar      1 <0>        -0.0848
      5 C4          0.0376   -0.5216   -2.4467 C.ar      1 <0>        -0.0086
      6 C5          0.6846   -0.9674   -3.5840 C.ar      1 <0>        -0.1851
      7 C6          2.0016   -1.3812   -3.5126 C.ar      1 <0>        -0.0222
      8 C7          2.6718   -1.3488   -2.3040 C.ar      1 <0>        -0.1832
      9 C8          2.0261   -0.8990   -1.1675 C.ar      1 <0>        -0.0286
     10 C9          4.1074   -1.8004   -2.2261 C.3       1 <0>         0.5121
     11 F1          4.5388   -2.2041   -3.4942 F         1 <0>        -0.1729
     12 F2          4.9053   -0.7427   -1.7769 F         1 <0>        -0.1719
     13 F3          4.2109   -2.8738   -1.3348 F         1 <0>        -0.1719
     14 C10        -0.0460   -1.0027   -4.9016 C.3       1 <0>         0.5114
     15 F4          0.1281    0.2171   -5.5641 F         1 <0>        -0.1721
     16 F5          0.4650   -2.0389   -5.6905 F         1 <0>        -0.1734
     17 F6         -1.4091   -1.2191   -4.6733 F         1 <0>        -0.1710
     18 O1         -1.3386   -0.4987    0.0122 O.3       1 <0>        -0.3631
     19 C11        -1.8714   -0.7069    1.3217 C.3       1 <0>         0.2609
     20 H2         -1.1661   -1.2909    1.9129 H         1 <0>         0.1094
     21 C12        -3.1999   -1.4608    1.2191 C.3       1 <0>         0.1150
     22 H3         -3.5797   -1.6668    2.2198 H         1 <0>         0.0806
     23 N1         -4.1706   -0.6353    0.4859 N.3       1 <0>        -0.5064
     24 C13        -4.3737    0.6541    1.1621 C.3       1 <0>         0.0145
     25 C14        -3.0334    1.3869    1.2652 C.3       1 <0>         0.0633
     26 O2         -2.0928    0.5568    1.9536 O.3       1 <0>        -0.3889
     27 C15        -5.4444   -1.3469    0.3156 C.3       1 <0>         0.1269
     28 C16        -6.3228   -0.5825   -0.6411 C.2       1 <0>         0.2795
     29 N2         -7.5859   -0.9513   -1.0351 N.am      1 <0>        -0.6550
     30 C17        -8.0510   -0.0212   -1.8930 C.2       1 <0>         0.6513
     31 N3         -7.0899    0.9158   -2.0322 N.am      1 <0>        -0.5499
     32 H4         -7.1374    1.7100   -2.5870 H         1 <0>         0.4573
     33 N4         -6.0128    0.5316   -1.2216 N.2       1 <0>        -0.2466
     34 O3         -9.1384   -0.0261   -2.4421 O.2       1 <0>        -0.5520
     35 C18        -2.9861   -2.7594    0.4849 C.ar      1 <0>        -0.1085
     36 C19        -2.9086   -2.7678   -0.8954 C.ar      1 <0>        -0.0398
     37 C20        -2.7121   -3.9579   -1.5697 C.ar      1 <0>        -0.1607
     38 C21        -2.5930   -5.1423   -0.8625 C.ar      1 <0>         0.1079
     39 C22        -2.6709   -5.1327    0.5199 C.ar      1 <0>        -0.1582
     40 C23        -2.8621   -3.9406    1.1924 C.ar      1 <0>        -0.0811
     41 F7         -2.4014   -6.3064   -1.5207 F         1 <0>        -0.1385
     42 H5          1.0039    1.9031    0.0027 H         1 <0>         0.0666
     43 H6         -0.5459    1.8868   -0.8726 H         1 <0>         0.0662
     44 H7         -0.5289    1.8773    0.9072 H         1 <0>         0.0793
     45 H8         -0.9914   -0.1983   -2.5024 H         1 <0>         0.1530
     46 H9          2.5069   -1.7302   -4.4010 H         1 <0>         0.1525
     47 H10         2.5507   -0.8702   -0.2240 H         1 <0>         0.1450
     48 H11        -5.0761    1.2591    0.5888 H         1 <0>         0.1066
     49 H12        -4.7723    0.4820    2.1619 H         1 <0>         0.0446
     50 H13        -2.6608    1.6066    0.2647 H         1 <0>         0.0765
     51 H14        -3.1688    2.3175    1.8164 H         1 <0>         0.0997
     52 H15        -5.2535   -2.3432   -0.0833 H         1 <0>         0.1150
     53 H16        -5.9451   -1.4315    1.2801 H         1 <0>         0.0747
     54 H17        -8.0617   -1.7456   -0.7459 H         1 <0>         0.4397
     55 H18        -3.0019   -1.8439   -1.4469 H         1 <0>         0.1466
     56 H19        -2.6519   -3.9643   -2.6480 H         1 <0>         0.1342
     57 H20        -2.5784   -6.0559    1.0726 H         1 <0>         0.1359
     58 H21        -2.9184   -3.9322    2.2709 H         1 <0>         0.1321
@<TRIPOS>BOND
     1    1    2 1
     2    1   42 1
     3    1   43 1
     4    1   44 1
     5    2    3 1
     6    2    4 1
     7    2   18 1
     8    4    9 ar
     9    4    5 ar
    10    5    6 ar
    11    5   45 1
    12    6    7 ar
    13    6   14 1
    14    7    8 ar
    15    7   46 1
    16    8    9 ar
    17    8   10 1
    18    9   47 1
    19   10   11 1
    20   10   12 1
    21   10   13 1
    22   14   15 1
    23   14   16 1
    24   14   17 1
    25   18   19 1
    26   19   20 1
    27   19   26 1
    28   19   21 1
    29   21   22 1
    30   21   23 1
    31   21   35 1
    32   23   24 1
    33   23   27 1
    34   24   25 1
    35   24   48 1
    36   24   49 1
    37   25   26 1
    38   25   50 1
    39   25   51 1
    40   27   52 1
    41   27   53 1
    42   27   28 1
    43   28   29 1
    44   28   33 2
    45   29   30 am
    46   29   54 1
    47   30   34 2
    48   30   31 am
    49   31   33 1
    50   31   32 1
    51   35   40 ar
    52   35   36 ar
    53   36   37 ar
    54   36   55 1
    55   37   38 ar
    56   37   56 1
    57   38   39 ar
    58   38   41 1
    59   39   40 ar
    60   39   57 1
    61   40   58 1
@<TRIPOS>MOLECULE
ZINC27428713
   58    61     0     0     0
SMALL
USER_CHARGES
5-[[(2R,3S)-2-[(1R)-1-[3,5-bis(trifluoromethyl)phenyl]ethoxy]-3-(4-fluorophenyl)morpholin-4-yl]methyl]-2H-1,2,4-triazol-3-ol
@<TRIPOS>ATOM
      1 C1         -3.6960    2.3743   -4.7639 C.3       1 <0>        -0.1755
      2 C2         -2.6952    1.2309   -4.9426 C.3       1 <0>         0.1351
      3 H1         -1.9419    1.4659   -5.7090 H         1 <0>         0.0782
      4 C3         -3.4345   -0.0324   -5.3014 C.ar      1 <0>        -0.0859
      5 C4         -4.0491   -0.7779   -4.3128 C.ar      1 <0>        -0.0079
      6 C5         -4.7310   -1.9344   -4.6424 C.ar      1 <0>        -0.1843
      7 C6         -4.7904   -2.3501   -5.9594 C.ar      1 <0>        -0.0212
      8 C7         -4.1715   -1.6072   -6.9473 C.ar      1 <0>        -0.1822
      9 C8         -3.4932   -0.4485   -6.6183 C.ar      1 <0>        -0.0294
     10 C9         -4.2364   -2.0604   -8.3831 C.3       1 <0>         0.5119
     11 F1         -3.1491   -2.8968   -8.6577 F         1 <0>        -0.1713
     12 F2         -5.4288   -2.7598   -8.5979 F         1 <0>        -0.1718
     13 F3         -4.1915   -0.9452   -9.2266 F         1 <0>        -0.1727
     14 C10        -5.4062   -2.7439   -3.5655 C.3       1 <0>         0.5119
     15 F4         -6.0220   -3.8615   -4.1392 F         1 <0>        -0.1732
     16 F5         -4.4533   -3.1646   -2.6316 F         1 <0>        -0.1717
     17 F6         -6.3702   -1.9572   -2.9259 F         1 <0>        -0.1708
     18 O1         -1.9764    1.0323   -3.7237 O.3       1 <0>        -0.3728
     19 C11        -0.7788    1.8055   -3.6226 C.3       1 <0>         0.2604
     20 H2         -0.2379    1.7014   -4.5747 H         1 <0>         0.1135
     21 C12         0.0313    1.3372   -2.4108 C.3       1 <0>         0.1226
     22 H3          0.9771    1.8927   -2.3282 H         1 <0>         0.0855
     23 N1         -0.7435    1.5818   -1.1857 N.3       1 <0>        -0.5165
     24 C13        -1.0705    3.0089   -1.0524 C.3       1 <0>         0.0034
     25 C14        -1.8696    3.4604   -2.2778 C.3       1 <0>         0.0610
     26 O2         -1.1142    3.1863   -3.4607 O.3       1 <0>        -0.3865
     27 C15        -0.0242    1.0937   -0.0016 C.3       1 <0>         0.1015
     28 C16        -0.7224    1.5749    1.2443 C.cat     1 <0>         0.3187
     29 N2         -1.6979    0.9279    1.8834 N.pl3     1 <0>        -0.5764
     30 C17        -2.0850    1.6276    2.9260 C.2       1 <0>         0.5068
     31 N3         -1.3435    2.7527    2.9688 N.2       1 <0>        -0.3607
     32 N4         -0.4653    2.6894    1.8748 N.pl3     1 <0>        -0.3939
     33 O3         -3.0571    1.2800    3.8027 O.3       1 <0>        -0.6353
     34 C18         0.3211   -0.1363   -2.5372 C.ar      1 <0>        -0.1115
     35 C19        -0.6486   -1.0623   -2.2004 C.ar      1 <0>        -0.0450
     36 C20        -0.3856   -2.4137   -2.3205 C.ar      1 <0>        -0.1585
     37 C21         0.8532   -2.8402   -2.7680 C.ar      1 <0>         0.1109
     38 C22         1.8255   -1.9120   -3.1000 C.ar      1 <0>        -0.1564
     39 C23         1.5584   -0.5609   -2.9841 C.ar      1 <0>        -0.0792
     40 F7          1.1131   -4.1612   -2.8813 F         1 <0>        -0.1367
     41 H4         -3.1564    3.2963   -4.5020 H         1 <0>         0.0796
     42 H5         -4.4018    2.1213   -3.9590 H         1 <0>         0.0678
     43 H6         -4.2494    2.5272   -5.7022 H         1 <0>         0.0696
     44 H7         -3.9993   -0.4552   -3.2833 H         1 <0>         0.1496
     45 H8         -5.3210   -3.2549   -6.2166 H         1 <0>         0.1533
     46 H9         -3.0096    0.1319   -7.3902 H         1 <0>         0.1473
     47 H10        -1.6703    3.1643   -0.1435 H         1 <0>         0.0923
     48 H11        -0.1411    3.5931   -0.9827 H         1 <0>         0.0533
     49 H12        -2.8237    2.9143   -2.3149 H         1 <0>         0.0773
     50 H13        -2.0676    4.5403   -2.2088 H         1 <0>         0.1056
     51 H14        -0.0068   -0.0061   -0.0106 H         1 <0>         0.1263
     52 H15         1.0069    1.4768   -0.0152 H         1 <0>         0.0856
     53 H16        -1.6136   -0.7294   -1.8474 H         1 <0>         0.1447
     54 H17        -1.1448   -3.1369   -2.0613 H         1 <0>         0.1370
     55 H18         2.7923   -2.2436   -3.4489 H         1 <0>         0.1371
     56 H19         2.3165    0.1633   -3.2433 H         1 <0>         0.1326
     57 H20         0.3229    3.3615    1.5047 H         1 <0>         0.4924
     58 H21        -2.1755   -0.0377    1.6611 H         1 <0>         0.4746
@<TRIPOS>BOND
     1    1    2 1
     2    1   41 1
     3    1   42 1
     4    1   43 1
     5    2    3 1
     6    2    4 1
     7    2   18 1
     8    4    9 ar
     9    4    5 ar
    10    5    6 ar
    11    5   44 1
    12    6    7 ar
    13    6   14 1
    14    7    8 ar
    15    7   45 1
    16    8    9 ar
    17    8   10 1
    18    9   46 1
    19   10   11 1
    20   10   12 1
    21   10   13 1
    22   14   15 1
    23   14   16 1
    24   14   17 1
    25   18   19 1
    26   19   20 1
    27   19   26 1
    28   19   21 1
    29   21   22 1
    30   21   23 1
    31   21   34 1
    32   23   24 1
    33   23   27 1
    34   24   25 1
    35   24   47 1
    36   24   48 1
    37   25   26 1
    38   25   49 1
    39   25   50 1
    40   27   51 1
    41   27   52 1
    42   27   28 1
    43   28   29 2
    44   28   32 1
    45   29   30 1
    46   29   58 1
    47   30   33 1
    48   30   31 2
    49   31   32 1
    50   32   57 1
    51   34   39 ar
    52   34   35 ar
    53   35   36 ar
    54   35   53 1
    55   36   37 ar
    56   36   54 1
    57   37   38 ar
    58   37   40 1
    59   38   39 ar
    60   38   55 1
    61   39   56 1
@<TRIPOS>MOLECULE
ZINC13781978
   58    61     0     0     0
SMALL
USER_CHARGES

@<TRIPOS>ATOM
      1 C1         -0.0187    1.5258    0.0104 C.3       1 <0>        -0.1746
      2 C2          0.0021   -0.0041    0.0020 C.3       1 <0>         0.1326
      3 H1          0.5293   -0.3651    0.8851 H         1 <0>         0.0768
      4 C3          0.7074   -0.4901   -1.2379 C.ar      1 <0>        -0.0838
      5 C4          0.0376   -0.5216   -2.4467 C.ar      1 <0>        -0.0075
      6 C5          0.6846   -0.9674   -3.5840 C.ar      1 <0>        -0.1851
      7 C6          2.0016   -1.3812   -3.5126 C.ar      1 <0>        -0.0226
      8 C7          2.6718   -1.3488   -2.3040 C.ar      1 <0>        -0.1835
      9 C8          2.0261   -0.8990   -1.1675 C.ar      1 <0>        -0.0288
     10 C9          4.1074   -1.8004   -2.2261 C.3       1 <0>         0.5122
     11 F1          4.5388   -2.2041   -3.4942 F         1 <0>        -0.1730
     12 F2          4.9053   -0.7427   -1.7769 F         1 <0>        -0.1720
     13 F3          4.2109   -2.8738   -1.3348 F         1 <0>        -0.1720
     14 C10        -0.0460   -1.0027   -4.9016 C.3       1 <0>         0.5115
     15 F4          0.1281    0.2171   -5.5641 F         1 <0>        -0.1723
     16 F5          0.4650   -2.0389   -5.6905 F         1 <0>        -0.1737
     17 F6         -1.4091   -1.2191   -4.6733 F         1 <0>        -0.1706
     18 O1         -1.3386   -0.4987    0.0122 O.3       1 <0>        -0.3612
     19 C11        -1.8714   -0.7069    1.3217 C.3       1 <0>         0.2615
     20 H2         -1.1661   -1.2909    1.9129 H         1 <0>         0.1081
     21 C12        -3.1999   -1.4608    1.2191 C.3       1 <0>         0.1139
     22 H3         -3.5797   -1.6668    2.2198 H         1 <0>         0.0773
     23 N1         -4.1706   -0.6353    0.4859 N.3       1 <0>        -0.5052
     24 C13        -4.3737    0.6541    1.1621 C.3       1 <0>         0.0141
     25 C14        -3.0334    1.3869    1.2652 C.3       1 <0>         0.0637
     26 O2         -2.0928    0.5568    1.9536 O.3       1 <0>        -0.3900
     27 C15        -5.4444   -1.3469    0.3156 C.3       1 <0>         0.1276
     28 C16        -6.3228   -0.5825   -0.6411 C.2       1 <0>         0.2806
     29 N2         -7.5859   -0.9513   -1.0351 N.am      1 <0>        -0.6550
     30 C17        -8.0510   -0.0212   -1.8930 C.2       1 <0>         0.6513
     31 N3         -7.0899    0.9158   -2.0322 N.am      1 <0>        -0.5502
     32 H4         -7.1374    1.7100   -2.5870 H         1 <0>         0.4571
     33 N4         -6.0128    0.5316   -1.2216 N.2       1 <0>        -0.2470
     34 O3         -9.1384   -0.0261   -2.4421 O.2       1 <0>        -0.5527
     35 C18        -2.9861   -2.7594    0.4849 C.ar      1 <0>        -0.0967
     36 C19        -2.9086   -2.7684   -0.8953 C.ar      1 <0>        -0.0681
     37 C20        -2.7125   -3.9595   -1.5688 C.ar      1 <0>        -0.1269
     38 C21        -2.5936   -5.1416   -0.8621 C.ar      1 <0>        -0.1108
     39 C22        -2.6702   -5.1325    0.5181 C.ar      1 <0>        -0.1240
     40 C23        -2.8620   -3.9408    1.1918 C.ar      1 <0>        -0.1119
     41 H5          1.0039    1.9031    0.0027 H         1 <0>         0.0663
     42 H6         -0.5459    1.8868   -0.8726 H         1 <0>         0.0660
     43 H7         -0.5289    1.8773    0.9072 H         1 <0>         0.0791
     44 H8         -0.9914   -0.1983   -2.5024 H         1 <0>         0.1528
     45 H9          2.5069   -1.7302   -4.4010 H         1 <0>         0.1522
     46 H10         2.5507   -0.8702   -0.2240 H         1 <0>         0.1447
     47 H11        -5.0761    1.2591    0.5888 H         1 <0>         0.1060
     48 H12        -4.7723    0.4820    2.1619 H         1 <0>         0.0436
     49 H13        -2.6608    1.6066    0.2647 H         1 <0>         0.0760
     50 H14        -3.1688    2.3175    1.8164 H         1 <0>         0.0991
     51 H15        -5.2535   -2.3432   -0.0833 H         1 <0>         0.1158
     52 H16        -5.9451   -1.4315    1.2801 H         1 <0>         0.0731
     53 H17        -8.0617   -1.7456   -0.7459 H         1 <0>         0.4396
     54 H18        -3.0015   -1.8448   -1.4474 H         1 <0>         0.1358
     55 H19        -2.6526   -3.9667   -2.6471 H         1 <0>         0.1199
     56 H20        -2.4411   -6.0724   -1.3883 H         1 <0>         0.1197
     57 H21        -2.5777   -6.0561    1.0702 H         1 <0>         0.1215
     58 H22        -2.9182   -3.9332    2.2703 H         1 <0>         0.1200
@<TRIPOS>BOND
     1    1    2 1
     2    1   41 1
     3    1   42 1
     4    1   43 1
     5    2    3 1
     6    2    4 1
     7    2   18 1
     8    4    9 ar
     9    4    5 ar
    10    5    6 ar
    11    5   44 1
    12    6    7 ar
    13    6   14 1
    14    7    8 ar
    15    7   45 1
    16    8    9 ar
    17    8   10 1
    18    9   46 1
    19   10   11 1
    20   10   12 1
    21   10   13 1
    22   14   15 1
    23   14   16 1
    24   14   17 1
    25   18   19 1
    26   19   20 1
    27   19   26 1
    28   19   21 1
    29   21   22 1
    30   21   23 1
    31   21   35 1
    32   23   24 1
    33   23   27 1
    34   24   25 1
    35   24   47 1
    36   24   48 1
    37   25   26 1
    38   25   49 1
    39   25   50 1
    40   27   51 1
    41   27   52 1
    42   27   28 1
    43   28   29 1
    44   28   33 2
    45   29   30 am
    46   29   53 1
    47   30   34 2
    48   30   31 am
    49   31   33 1
    50   31   32 1
    51   35   40 ar
    52   35   36 ar
    53   36   37 ar
    54   36   54 1
    55   37   38 ar
    56   37   55 1
    57   38   39 ar
    58   38   56 1
    59   39   40 ar
    60   39   57 1
    61   40   58 1
@<TRIPOS>MOLECULE
ZINC13781978
   58    61     0     0     0
SMALL
USER_CHARGES
5-[[(2R,3S)-2-[(1R)-1-[3,5-bis(trifluoromethyl)phenyl]ethoxy]-3-phenyl-morpholin-4-yl]methyl]-2H-1,2,4-triazol-3-ol
@<TRIPOS>ATOM
      1 C1         -0.0345   -0.5157   -1.4833 C.3       1 <0>        -0.1754
      2 C2         -0.0218   -0.0213   -0.0355 C.3       1 <0>         0.1344
      3 H1          0.8950   -0.3263    0.4903 H         1 <0>         0.0776
      4 C3         -1.2390   -0.5424    0.6841 C.ar      1 <0>        -0.0849
      5 C4         -2.4597    0.0862    0.5221 C.ar      1 <0>        -0.0067
      6 C5         -3.5771   -0.3945    1.1787 C.ar      1 <0>        -0.1843
      7 C6         -3.4723   -1.4983    2.0043 C.ar      1 <0>        -0.0215
      8 C7         -2.2507   -2.1237    2.1703 C.ar      1 <0>        -0.1826
      9 C8         -1.1340   -1.6456    1.5104 C.ar      1 <0>        -0.0296
     10 C9         -2.1363   -3.3270    3.0704 C.3       1 <0>         0.5121
     11 F1         -1.8351   -2.9093    4.3712 F         1 <0>        -0.1715
     12 F2         -3.3494   -4.0238    3.0736 F         1 <0>        -0.1720
     13 F3         -1.1185   -4.1646    2.6020 F         1 <0>        -0.1727
     14 C10        -4.9089    0.2869    0.9973 C.3       1 <0>         0.5121
     15 F4         -5.8785   -0.3738    1.7591 F         1 <0>        -0.1735
     16 F5         -4.8127    1.6179    1.4176 F         1 <0>        -0.1715
     17 F6         -5.2718    0.2495   -0.3533 F         1 <0>        -0.1710
     18 O1         -0.0346    1.4076   -0.0198 O.3       1 <0>        -0.3709
     19 C11         1.2655    2.0006   -0.0290 C.3       1 <0>         0.2611
     20 H2          1.8740    1.4722    0.7197 H         1 <0>         0.1121
     21 C12         1.1439    3.5030    0.2392 C.3       1 <0>         0.1214
     22 H3          2.1340    3.9810    0.2725 H         1 <0>         0.0824
     23 N1          0.3776    4.1293   -0.8480 N.3       1 <0>        -0.5153
     24 C13         1.0310    3.9001   -2.1448 C.3       1 <0>         0.0031
     25 C14         1.1536    2.3937   -2.3892 C.3       1 <0>         0.0614
     26 O2          1.8741    1.7974   -1.3072 O.3       1 <0>        -0.3877
     27 C15         0.1891    5.5649   -0.5998 C.3       1 <0>         0.1023
     28 C16        -0.3777    6.2178   -1.8343 C.cat     1 <0>         0.3198
     29 N2         -1.6751    6.3535   -2.1115 N.pl3     1 <0>        -0.5762
     30 C17        -1.8203    6.9621   -3.2668 C.2       1 <0>         0.5067
     31 N3         -0.5911    7.2317   -3.7508 N.2       1 <0>        -0.3613
     32 N4          0.3228    6.7470   -2.8013 N.pl3     1 <0>        -0.3945
     33 O3         -2.9967    7.2652   -3.8657 O.3       1 <0>        -0.6360
     34 C18         0.4322    3.7243    1.5490 C.ar      1 <0>        -0.0993
     35 C19        -0.9466    3.6431    1.6087 C.ar      1 <0>        -0.0737
     36 C20        -1.5991    3.8409    2.8112 C.ar      1 <0>        -0.1241
     37 C21        -0.8737    4.1307    3.9516 C.ar      1 <0>        -0.1086
     38 C22         0.5045    4.2176    3.8908 C.ar      1 <0>        -0.1215
     39 C23         1.1574    4.0141    2.6894 C.ar      1 <0>        -0.1102
     40 H4          0.8540   -0.1353   -2.0085 H         1 <0>         0.0795
     41 H5         -0.9421   -0.1516   -1.9871 H         1 <0>         0.0675
     42 H6         -0.0247   -1.6156   -1.4953 H         1 <0>         0.0694
     43 H7         -2.5406    0.9507   -0.1200 H         1 <0>         0.1493
     44 H8         -4.3448   -1.8722    2.5193 H         1 <0>         0.1531
     45 H9         -0.1797   -2.1342    1.6401 H         1 <0>         0.1469
     46 H10         0.4284    4.3555   -2.9445 H         1 <0>         0.0915
     47 H11         2.0326    4.3548   -2.1362 H         1 <0>         0.0523
     48 H12         0.1492    1.9496   -2.4524 H         1 <0>         0.0768
     49 H13         1.6922    2.2178   -3.3321 H         1 <0>         0.1050
     50 H14        -0.5067    5.7034    0.2408 H         1 <0>         0.1269
     51 H15         1.1576    6.0246   -0.3536 H         1 <0>         0.0843
     52 H16        -1.5135    3.4210    0.7167 H         1 <0>         0.1337
     53 H17        -2.6758    3.7726    2.8587 H         1 <0>         0.1227
     54 H18        -1.3839    4.2890    4.8904 H         1 <0>         0.1213
     55 H19         1.0711    4.4440    4.7818 H         1 <0>         0.1227
     56 H20         2.2343    4.0821    2.6419 H         1 <0>         0.1204
     57 H21         1.4216    6.7437   -2.7499 H         1 <0>         0.4923
     58 H22        -2.5611    6.0434   -1.5380 H         1 <0>         0.4746
@<TRIPOS>BOND
     1    1    2 1
     2    1   40 1
     3    1   41 1
     4    1   42 1
     5    2    3 1
     6    2    4 1
     7    2   18 1
     8    4    9 ar
     9    4    5 ar
    10    5    6 ar
    11    5   43 1
    12    6    7 ar
    13    6   14 1
    14    7    8 ar
    15    7   44 1
    16    8    9 ar
    17    8   10 1
    18    9   45 1
    19   10   11 1
    20   10   12 1
    21   10   13 1
    22   14   15 1
    23   14   16 1
    24   14   17 1
    25   18   19 1
    26   19   20 1
    27   19   26 1
    28   19   21 1
    29   21   22 1
    30   21   23 1
    31   21   34 1
    32   23   24 1
    33   23   27 1
    34   24   25 1
    35   24   46 1
    36   24   47 1
    37   25   26 1
    38   25   48 1
    39   25   49 1
    40   27   50 1
    41   27   51 1
    42   27   28 1
    43   28   29 2
    44   28   32 1
    45   29   30 1
    46   29   58 1
    47   30   33 1
    48   30   31 2
    49   31   32 1
    50   32   57 1
    51   34   39 ar
    52   34   35 ar
    53   35   36 ar
    54   35   52 1
    55   36   37 ar
    56   36   53 1
    57   37   38 ar
    58   37   54 1
    59   38   39 ar
    60   38   55 1
    61   39   56 1
@<TRIPOS>MOLECULE
ZINC19361055
   64    68     0     0     0
SMALL
USER_CHARGES

@<TRIPOS>ATOM
      1 C1         -0.9467    0.1313   -0.9819 C.3       1 <0>         0.0256
      2 O1         -0.5538   -1.2133   -0.6997 O.3       1 <0>        -0.3241
      3 C2         -1.5433   -2.1413   -0.6194 C.ar      1 <0>         0.1300
      4 C3         -2.8650   -1.7665   -0.8140 C.ar      1 <0>        -0.2074
      5 C4         -3.8689   -2.7116   -0.7323 C.ar      1 <0>        -0.0718
      6 C5         -3.5576   -4.0306   -0.4568 C.ar      1 <0>        -0.1546
      7 C6         -2.2416   -4.4065   -0.2620 C.ar      1 <0>        -0.0537
      8 C7         -1.2333   -3.4659   -0.3483 C.ar      1 <0>        -0.1206
      9 C8          0.2017   -3.8775   -0.1421 C.3       1 <0>         0.1126
     10 N1          0.6164   -3.5390    1.2259 N.3       1 <0>        -0.6601
     11 C9          2.0132   -3.9268    1.4637 C.3       1 <0>         0.0857
     12 H1          2.2033   -4.9015    1.0143 H         1 <0>         0.1168
     13 C10         2.2770   -3.9961    2.9695 C.3       1 <0>         0.0405
     14 H2          2.5883   -5.0061    3.2360 H         1 <0>         0.1391
     15 N2          3.3320   -3.0491    3.3380 N.4       1 <0>        -0.3734
     16 C11         2.9249   -1.6769    3.0267 C.3       1 <0>        -0.0127
     17 C12         2.6825   -1.5305    1.5228 C.3       1 <0>        -0.1377
     18 C13         2.9497   -2.8825    0.8418 C.3       1 <0>        -0.1333
     19 C14         4.3979   -3.2940    1.1379 C.3       1 <0>        -0.1316
     20 C15         4.5852   -3.3826    2.6569 C.3       1 <0>        -0.0072
     21 C16         0.9948   -3.6438    3.7262 C.3       1 <0>         0.0059
     22 C17        -0.0483   -4.7000    3.4662 C.ar      1 <0>        -0.0395
     23 C18         0.2639   -6.0360    3.6346 C.ar      1 <0>        -0.1264
     24 C19        -0.6928   -7.0048    3.3961 C.ar      1 <0>        -0.1155
     25 C20        -1.9620   -6.6375    2.9896 C.ar      1 <0>        -0.1153
     26 C21        -2.2745   -5.3014    2.8220 C.ar      1 <0>        -0.1105
     27 C22        -1.3190   -4.3324    3.0647 C.ar      1 <0>        -0.0668
     28 C23         1.2853   -3.5778    5.2035 C.ar      1 <0>        -0.1274
     29 C24         0.9386   -2.4517    5.9264 C.ar      1 <0>        -0.1107
     30 C25         1.2051   -2.3911    7.2815 C.ar      1 <0>        -0.1084
     31 C26         1.8180   -3.4568    7.9137 C.ar      1 <0>        -0.1043
     32 C27         2.1640   -4.5832    7.1909 C.ar      1 <0>        -0.1090
     33 C28         1.8935   -4.6455    5.8367 C.ar      1 <0>        -0.1238
     34 H3         -0.0628    0.7681   -1.0185 H         1 <0>         0.1002
     35 H4         -1.4594    0.1659   -1.9432 H         1 <0>         0.0589
     36 H5         -1.6177    0.4856   -0.1994 H         1 <0>         0.0573
     37 H6         -3.1087   -0.7365   -1.0288 H         1 <0>         0.1280
     38 H7         -4.8978   -2.4203   -0.8833 H         1 <0>         0.1264
     39 H8         -4.3440   -4.7681   -0.3933 H         1 <0>         0.1257
     40 H9         -2.0011   -5.4371   -0.0466 H         1 <0>         0.1282
     41 H10         0.2969   -4.9525   -0.2952 H         1 <0>         0.0843
     42 H11         0.8366   -3.3514   -0.8549 H         1 <0>         0.0482
     43 H12         0.4766   -2.5576    1.4138 H         1 <0>         0.3456
     44 H13         2.0073   -1.4408    3.5655 H         1 <0>         0.1280
     45 H14         3.7110   -0.9876    3.3351 H         1 <0>         0.1305
     46 H15         1.6493   -1.2314    1.3467 H         1 <0>         0.0985
     47 H16         3.3573   -0.7775    1.1156 H         1 <0>         0.1028
     48 H17         2.7744   -2.8096   -0.2315 H         1 <0>         0.1182
     49 H18         4.6007   -4.2660    0.6883 H         1 <0>         0.1002
     50 H19         5.0803   -2.5499    0.7271 H         1 <0>         0.1006
     51 H20         5.3625   -2.6844    2.9674 H         1 <0>         0.1305
     52 H21         4.8838   -4.3961    2.9247 H         1 <0>         0.1291
     53 H22         0.6255   -2.6767    3.3850 H         1 <0>         0.1036
     54 H23         1.2555   -6.3230    3.9522 H         1 <0>         0.1094
     55 H24        -0.4487   -8.0487    3.5269 H         1 <0>         0.1193
     56 H25        -2.7093   -7.3945    2.8025 H         1 <0>         0.1201
     57 H26        -3.2660   -5.0145    2.5041 H         1 <0>         0.1195
     58 H27        -1.5642   -3.2883    2.9374 H         1 <0>         0.1121
     59 H28         0.4597   -1.6191    5.4325 H         1 <0>         0.1255
     60 H29         0.9349   -1.5111    7.8462 H         1 <0>         0.1306
     61 H30         2.0269   -3.4091    8.9722 H         1 <0>         0.1304
     62 H31         2.6431   -5.4156    7.6848 H         1 <0>         0.1302
     63 H32         2.1604   -5.5270    5.2727 H         1 <0>         0.1249
     64 H33         3.4834   -3.1113    4.3336 H         1 <0>         0.4228
@<TRIPOS>BOND
     1    1    2 1
     2    1   34 1
     3    1   35 1
     4    1   36 1
     5    2    3 1
     6    3    8 ar
     7    3    4 ar
     8    4    5 ar
     9    4   37 1
    10    5    6 ar
    11    5   38 1
    12    6    7 ar
    13    6   39 1
    14    7    8 ar
    15    7   40 1
    16    8    9 1
    17    9   10 1
    18    9   41 1
    19    9   42 1
    20   10   11 1
    21   10   43 1
    22   11   12 1
    23   11   18 1
    24   11   13 1
    25   13   14 1
    26   13   15 1
    27   13   21 1
    28   15   20 1
    29   15   16 1
    30   15   64 1
    31   16   17 1
    32   16   44 1
    33   16   45 1
    34   17   18 1
    35   17   46 1
    36   17   47 1
    37   18   19 1
    38   18   48 1
    39   19   20 1
    40   19   49 1
    41   19   50 1
    42   20   51 1
    43   20   52 1
    44   21   22 1
    45   21   28 1
    46   21   53 1
    47   22   27 ar
    48   22   23 ar
    49   23   24 ar
    50   23   54 1
    51   24   25 ar
    52   24   55 1
    53   25   26 ar
    54   25   56 1
    55   26   27 ar
    56   26   57 1
    57   27   58 1
    58   28   33 ar
    59   28   29 ar
    60   29   30 ar
    61   29   59 1
    62   30   31 ar
    63   30   60 1
    64   31   32 ar
    65   31   61 1
    66   32   33 ar
    67   32   62 1
    68   33   63 1
@<TRIPOS>MOLECULE
ZINC19361055
   64    68     0     0     0
SMALL
USER_CHARGES

@<TRIPOS>ATOM
      1 C1         -0.7272    0.0235   -0.8992 C.3       1 <0>         0.0215
      2 O1         -0.2937   -1.3085   -0.6164 O.3       1 <0>        -0.3280
      3 C2         -1.2509   -2.2722   -0.5708 C.ar      1 <0>         0.1490
      4 C3         -2.5794   -1.9436   -0.7995 C.ar      1 <0>        -0.2025
      5 C4         -3.5502   -2.9250   -0.7532 C.ar      1 <0>        -0.0445
      6 C5         -3.1991   -4.2341   -0.4791 C.ar      1 <0>        -0.1484
      7 C6         -1.8762   -4.5641   -0.2504 C.ar      1 <0>        -0.0511
      8 C7         -0.9006   -3.5870   -0.3013 C.ar      1 <0>        -0.1934
      9 C8          0.5421   -3.9485   -0.0581 C.3       1 <0>         0.0449
     10 N1          0.9062   -3.6071    1.3235 N.4       1 <0>        -0.5103
     11 C9          2.3125   -3.9594    1.5606 C.3       1 <0>        -0.0043
     12 H1          2.4507   -5.0304    1.4121 H         1 <0>         0.1418
     13 C10         2.7005   -3.5857    2.9941 C.3       1 <0>         0.0806
     14 H2          3.0227   -4.4795    3.5284 H         1 <0>         0.1238
     15 N2          3.7988   -2.6106    2.9632 N.3       1 <0>        -0.4995
     16 C11         3.3857   -1.3713    2.2903 C.3       1 <0>         0.0375
     17 C12         3.0163   -1.6818    0.8371 C.3       1 <0>        -0.1685
     18 C13         3.2078   -3.1855    0.5848 C.3       1 <0>        -0.1027
     19 C14         4.6707   -3.5463    0.8720 C.3       1 <0>        -0.1468
     20 C15         4.9938   -3.1814    2.3265 C.3       1 <0>         0.0451
     21 C16         1.4931   -2.9728    3.7064 C.3       1 <0>        -0.0158
     22 C17         0.4319   -4.0263    3.8932 C.ar      1 <0>        -0.1306
     23 C18         0.7836   -5.2939    4.3181 C.ar      1 <0>        -0.1081
     24 C19        -0.1899   -6.2603    4.4894 C.ar      1 <0>        -0.1029
     25 C20        -1.5150   -5.9590    4.2364 C.ar      1 <0>        -0.1015
     26 C21        -1.8668   -4.6912    3.8124 C.ar      1 <0>        -0.1020
     27 C22        -0.8939   -3.7236    3.6451 C.ar      1 <0>        -0.1374
     28 C23         1.9186   -2.4443    5.0520 C.ar      1 <0>        -0.0590
     29 C24         1.6492   -1.1329    5.3962 C.ar      1 <0>        -0.1127
     30 C25         2.0396   -0.6481    6.6305 C.ar      1 <0>        -0.1123
     31 C26         2.6989   -1.4749    7.5208 C.ar      1 <0>        -0.1112
     32 C27         2.9675   -2.7866    7.1769 C.ar      1 <0>        -0.1118
     33 C28         2.5733   -3.2726    5.9443 C.ar      1 <0>        -0.0986
     34 H3          0.1337    0.6920   -0.9062 H         1 <0>         0.1104
     35 H4         -1.2139    0.0478   -1.8742 H         1 <0>         0.0668
     36 H5         -1.4320    0.3466   -0.1331 H         1 <0>         0.0646
     37 H6         -2.8541   -0.9212   -1.0133 H         1 <0>         0.1407
     38 H7         -4.5844   -2.6696   -0.9308 H         1 <0>         0.1385
     39 H8         -3.9597   -5.0001   -0.4433 H         1 <0>         0.1382
     40 H9         -1.6046   -5.5872   -0.0362 H         1 <0>         0.1378
     41 H10         0.6804   -5.0180   -0.2166 H         1 <0>         0.1348
     42 H11         1.1770   -3.3937   -0.7488 H         1 <0>         0.1378
     43 H12         0.7781   -2.6171    1.4702 H         1 <0>         0.4191
     44 H13         2.5212   -0.9498    2.8033 H         1 <0>         0.0837
     45 H14         4.2067   -0.6547    2.3117 H         1 <0>         0.0963
     46 H15         1.9753   -1.4120    0.6593 H         1 <0>         0.0678
     47 H16         3.6621   -1.1145    0.1669 H         1 <0>         0.0954
     48 H17         2.9434   -3.4330   -0.4433 H         1 <0>         0.1046
     49 H18         4.8191   -4.6158    0.7230 H         1 <0>         0.0800
     50 H19         5.3231   -2.9881    0.2005 H         1 <0>         0.0894
     51 H20         5.8017   -2.4500    2.3478 H         1 <0>         0.0941
     52 H21         5.3001   -4.0779    2.8656 H         1 <0>         0.0884
     53 H22         1.0926   -2.1563    3.1055 H         1 <0>         0.0798
     54 H23         1.8189   -5.5293    4.5158 H         1 <0>         0.1326
     55 H24         0.0850   -7.2508    4.8207 H         1 <0>         0.1358
     56 H25        -2.2755   -6.7143    4.3696 H         1 <0>         0.1350
     57 H26        -2.9021   -4.4560    3.6143 H         1 <0>         0.1344
     58 H27        -1.1692   -2.7320    3.3174 H         1 <0>         0.1268
     59 H28         1.1341   -0.4869    4.7007 H         1 <0>         0.1148
     60 H29         1.8298    0.3767    6.8992 H         1 <0>         0.1242
     61 H30         3.0045   -1.0960    8.4849 H         1 <0>         0.1246
     62 H31         3.4829   -3.4324    7.8724 H         1 <0>         0.1241
     63 H32         2.7799   -4.2984    5.6771 H         1 <0>         0.1156
     64 H33         0.3184   -4.1207    1.9629 H         1 <0>         0.4234
@<TRIPOS>BOND
     1    1    2 1
     2    1   34 1
     3    1   35 1
     4    1   36 1
     5    2    3 1
     6    3    8 ar
     7    3    4 ar
     8    4    5 ar
     9    4   37 1
    10    5    6 ar
    11    5   38 1
    12    6    7 ar
    13    6   39 1
    14    7    8 ar
    15    7   40 1
    16    8    9 1
    17    9   10 1
    18    9   41 1
    19    9   42 1
    20   10   11 1
    21   10   43 1
    22   10   64 1
    23   11   12 1
    24   11   18 1
    25   11   13 1
    26   13   14 1
    27   13   15 1
    28   13   21 1
    29   15   20 1
    30   15   16 1
    31   16   17 1
    32   16   44 1
    33   16   45 1
    34   17   18 1
    35   17   46 1
    36   17   47 1
    37   18   19 1
    38   18   48 1
    39   19   20 1
    40   19   49 1
    41   19   50 1
    42   20   51 1
    43   20   52 1
    44   21   22 1
    45   21   28 1
    46   21   53 1
    47   22   27 ar
    48   22   23 ar
    49   23   24 ar
    50   23   54 1
    51   24   25 ar
    52   24   55 1
    53   25   26 ar
    54   25   56 1
    55   26   27 ar
    56   26   57 1
    57   27   58 1
    58   28   33 ar
    59   28   29 ar
    60   29   30 ar
    61   29   59 1
    62   30   31 ar
    63   30   60 1
    64   31   32 ar
    65   31   61 1
    66   32   33 ar
    67   32   62 1
    68   33   63 1
@<TRIPOS>MOLECULE
ZINC27626558
   45    47     0     0     0
SMALL
USER_CHARGES
benzyl (3S)-3-benzyl-4-oxo-piperidine-1-carboxylate
@<TRIPOS>ATOM
      1 C1          7.2835   -8.0715   -6.4280 C.ar      1 <0>        -0.1202
      2 C2          7.3147   -6.8818   -7.1312 C.ar      1 <0>        -0.1293
      3 C3          7.5593   -5.6934   -6.4687 C.ar      1 <0>        -0.0894
      4 C4          7.7731   -5.6948   -5.1030 C.ar      1 <0>        -0.0955
      5 C5          7.7475   -6.8852   -4.4007 C.ar      1 <0>        -0.1165
      6 C6          7.4973   -8.0729   -5.0623 C.ar      1 <0>        -0.1283
      7 C7          8.0402   -4.3994   -4.3808 C.3       1 <0>        -0.0676
      8 C8          6.7152   -3.7928   -3.9146 C.3       1 <0>        -0.1478
      9 H1          6.1646   -4.5413   -3.3259 H         1 <0>         0.1122
     10 C9          6.9887   -2.5404   -3.0721 C.3       1 <0>         0.1355
     11 N1          5.7212   -1.8315   -2.8540 N.am      1 <0>        -0.5979
     12 C10         4.9331   -1.3976   -4.0148 C.3       1 <0>         0.1158
     13 C11         4.6099   -2.6151   -4.8816 C.3       1 <0>        -0.1880
     14 C12         5.8881   -3.3899   -5.1157 C.2       1 <0>         0.3622
     15 O1          6.2394   -3.6801   -6.2340 O.2       1 <0>        -0.4335
     16 C13         5.2836   -1.5867   -1.6030 C.2       1 <0>         0.6536
     17 O2          5.9388   -1.9532   -0.6476 O.2       1 <0>        -0.5657
     18 O3          4.1204   -0.9360   -1.4120 O.3       1 <0>        -0.3616
     19 C14         3.7112   -0.7071   -0.0378 C.3       1 <0>         0.1272
     20 C15         2.3960    0.0285   -0.0212 C.ar      1 <0>        -0.1021
     21 C16         1.2084   -0.6789   -0.0136 C.ar      1 <0>        -0.0931
     22 C17         0.0021   -0.0041    0.0020 C.ar      1 <0>        -0.1232
     23 C18        -0.0167    1.3781    0.0096 C.ar      1 <0>        -0.1063
     24 C19         1.1709    2.0855    0.0021 C.ar      1 <0>        -0.1232
     25 C20         2.3773    1.4107   -0.0141 C.ar      1 <0>        -0.0929
     26 H2          7.0917   -8.9998   -6.9455 H         1 <0>         0.1186
     27 H3          7.1476   -6.8807   -8.1982 H         1 <0>         0.1192
     28 H4          7.5837   -4.7640   -7.0182 H         1 <0>         0.1411
     29 H5          7.9190   -6.8868   -3.3343 H         1 <0>         0.1194
     30 H6          7.4726   -9.0023   -4.5128 H         1 <0>         0.1197
     31 H7          8.6825   -4.5915   -3.5087 H         1 <0>         0.0851
     32 H8          8.5455   -3.6979   -5.0609 H         1 <0>         0.0812
     33 H9          7.4217   -2.8363   -2.1052 H         1 <0>         0.1132
     34 H10         7.6947   -1.8867   -3.6053 H         1 <0>         0.0847
     35 H11         3.9992   -0.9299   -3.6698 H         1 <0>         0.1079
     36 H12         5.5133   -0.6693   -4.6004 H         1 <0>         0.0811
     37 H13         3.8756   -3.2495   -4.3635 H         1 <0>         0.1035
     38 H14         4.1921   -2.2805   -5.8426 H         1 <0>         0.1065
     39 H15         3.5978   -1.6727    0.4767 H         1 <0>         0.0829
     40 H16         4.4746   -0.1050    0.4767 H         1 <0>         0.0831
     41 H17         1.2231   -1.7588   -0.0196 H         1 <0>         0.1247
     42 H18        -0.9258   -0.5567    0.0079 H         1 <0>         0.1264
     43 H19        -0.9592    1.9054    0.0170 H         1 <0>         0.1255
     44 H20         1.1563    3.1654    0.0077 H         1 <0>         0.1265
     45 H21         3.3051    1.9634   -0.0204 H         1 <0>         0.1250
@<TRIPOS>BOND
     1    1    6 ar
     2    1    2 ar
     3    1   26 1
     4    2    3 ar
     5    2   27 1
     6    3    4 ar
     7    3   28 1
     8    4    5 ar
     9    4    7 1
    10    5    6 ar
    11    5   29 1
    12    6   30 1
    13    7    8 1
    14    7   31 1
    15    7   32 1
    16    8    9 1
    17    8   14 1
    18    8   10 1
    19   10   11 1
    20   10   33 1
    21   10   34 1
    22   11   12 1
    23   11   16 am
    24   12   13 1
    25   12   35 1
    26   12   36 1
    27   13   14 1
    28   13   37 1
    29   13   38 1
    30   14   15 2
    31   16   17 2
    32   16   18 1
    33   18   19 1
    34   19   20 1
    35   19   39 1
    36   19   40 1
    37   20   25 ar
    38   20   21 ar
    39   21   22 ar
    40   21   41 1
    41   22   23 ar
    42   22   42 1
    43   23   24 ar
    44   23   43 1
    45   24   25 ar
    46   24   44 1
    47   25   45 1
@<TRIPOS>MOLECULE
ZINC27626564
   45    47     0     0     0
SMALL
USER_CHARGES
benzyl (3R)-3-benzyl-4-oxo-piperidine-1-carboxylate
@<TRIPOS>ATOM
      1 C1         -4.8758   12.0784   -6.2664 C.ar      1 <0>        -0.1200
      2 C2         -4.7862   12.2470   -4.8973 C.ar      1 <0>        -0.1287
      3 C3         -3.6277   11.8925   -4.2316 C.ar      1 <0>        -0.1164
      4 C4         -2.5590   11.3689   -4.9349 C.ar      1 <0>        -0.0959
      5 C5         -2.6467   11.2052   -6.3047 C.ar      1 <0>        -0.0870
      6 C6         -3.8066   11.5561   -6.9699 C.ar      1 <0>        -0.1298
      7 C7         -1.2962   10.9823   -4.2092 C.3       1 <0>        -0.0672
      8 C8         -1.3900    9.5212   -3.7652 C.3       1 <0>        -0.1477
      9 H1         -2.3032    9.3840   -3.1675 H         1 <0>         0.1121
     10 C9         -0.1566    9.1512   -2.9406 C.3       1 <0>         0.1352
     11 N1         -0.1289    7.6958   -2.7466 N.am      1 <0>        -0.5981
     12 C10        -0.1280    6.8154   -3.9220 C.3       1 <0>         0.1158
     13 C11        -1.3670    7.1252   -4.7718 C.3       1 <0>        -0.1880
     14 C12        -1.4415    8.6218   -4.9807 C.2       1 <0>         0.3622
     15 O1         -1.5394    9.0872   -6.0907 O.2       1 <0>        -0.4330
     16 C13        -0.1099    7.1740   -1.5041 C.2       1 <0>         0.6535
     17 O2         -0.1108    7.9089   -0.5364 O.2       1 <0>        -0.5657
     18 O3         -0.0902    5.8384   -1.3351 O.3       1 <0>        -0.3616
     19 C14        -0.0705    5.3471    0.0311 C.3       1 <0>         0.1272
     20 C15        -0.0501    3.8402    0.0228 C.ar      1 <0>        -0.1021
     21 C16         1.1563    3.1654    0.0076 C.ar      1 <0>        -0.0930
     22 C17         1.1750    1.7832    0.0004 C.ar      1 <0>        -0.1231
     23 C18        -0.0126    1.0758    0.0080 C.ar      1 <0>        -0.1064
     24 C19        -1.2190    1.7506    0.0173 C.ar      1 <0>        -0.1232
     25 C20        -1.2377    3.1328    0.0299 C.ar      1 <0>        -0.0931
     26 H2         -5.7810   12.3551   -6.7865 H         1 <0>         0.1185
     27 H3         -5.6214   12.6554   -4.3477 H         1 <0>         0.1196
     28 H4         -3.5577   12.0242   -3.1619 H         1 <0>         0.1193
     29 H5         -1.8102   10.8002   -6.8548 H         1 <0>         0.1405
     30 H6         -3.8765   11.4247   -8.0396 H         1 <0>         0.1191
     31 H7         -0.4344   11.1066   -4.8813 H         1 <0>         0.0811
     32 H8         -1.1687   11.6263   -3.3266 H         1 <0>         0.0850
     33 H9          0.7506    9.4713   -3.4740 H         1 <0>         0.0843
     34 H10        -0.2042    9.6544   -1.9636 H         1 <0>         0.1131
     35 H11         0.7831    6.9929   -4.5123 H         1 <0>         0.0814
     36 H12        -0.1537    5.7658   -3.5940 H         1 <0>         0.1080
     37 H13        -1.2834    6.6137   -5.7421 H         1 <0>         0.1062
     38 H14        -2.2681    6.7732   -4.2482 H         1 <0>         0.1034
     39 H15         0.8275    5.7232    0.5431 H         1 <0>         0.0831
     40 H16        -0.9685    5.6987    0.5602 H         1 <0>         0.0829
     41 H17         2.0842    3.7181    0.0017 H         1 <0>         0.1250
     42 H18         2.1175    1.2560   -0.0115 H         1 <0>         0.1265
     43 H19         0.0021   -0.0041    0.0020 H         1 <0>         0.1255
     44 H20        -2.1469    1.1980    0.0188 H         1 <0>         0.1264
     45 H21        -2.1802    3.6600    0.0414 H         1 <0>         0.1247
@<TRIPOS>BOND
     1    1    6 ar
     2    1    2 ar
     3    1   26 1
     4    2    3 ar
     5    2   27 1
     6    3    4 ar
     7    3   28 1
     8    4    5 ar
     9    4    7 1
    10    5    6 ar
    11    5   29 1
    12    6   30 1
    13    7    8 1
    14    7   31 1
    15    7   32 1
    16    8    9 1
    17    8   14 1
    18    8   10 1
    19   10   11 1
    20   10   33 1
    21   10   34 1
    22   11   12 1
    23   11   16 am
    24   12   13 1
    25   12   35 1
    26   12   36 1
    27   13   14 1
    28   13   37 1
    29   13   38 1
    30   14   15 2
    31   16   17 2
    32   16   18 1
    33   18   19 1
    34   19   20 1
    35   19   39 1
    36   19   40 1
    37   20   25 ar
    38   20   21 ar
    39   21   22 ar
    40   21   41 1
    41   22   23 ar
    42   22   42 1
    43   23   24 ar
    44   23   43 1
    45   24   25 ar
    46   24   44 1
    47   25   45 1
@<TRIPOS>MOLECULE
ZINC42856596
   78    81     0     0     0
SMALL
USER_CHARGES

@<TRIPOS>ATOM
      1 C1         -3.3265   -0.2592    1.6240 C.3       1 <0>        -0.1211
      2 C2         -2.5487   -1.5374    1.4450 C.ar      1 <0>        -0.0283
      3 C3         -2.6146   -2.2243    0.2473 C.ar      1 <0>        -0.1905
      4 C4         -1.8996   -3.3982    0.0830 C.ar      1 <0>         0.1237
      5 C5         -1.1190   -3.8831    1.1190 C.ar      1 <0>        -0.2003
      6 C6         -1.0547   -3.1948    2.3154 C.ar      1 <0>         0.0256
      7 C7         -1.7651   -2.0196    2.4766 C.ar      1 <0>        -0.1464
      8 C8         -1.6895   -1.2668    3.7799 C.3       1 <0>         0.2154
      9 H1         -1.7346   -0.1951    3.5860 H         1 <0>         0.0863
     10 C9         -2.8613   -1.6759    4.6779 C.3       1 <0>        -0.1210
     11 C10        -2.7027   -1.0153    6.0492 C.3       1 <0>         0.0881
     12 H2         -2.6703    0.0676    5.9291 H         1 <0>         0.0466
     13 C11        -1.4040   -1.4950    6.7013 C.3       1 <0>        -0.1347
     14 C12        -0.2157   -1.0839    5.8263 C.3       1 <0>         0.0864
     15 N1         -0.4302   -1.5911    4.4637 N.am      1 <0>        -0.6279
     16 C13         0.5084   -2.3423    3.8544 C.2       1 <0>         0.6995
     17 O1          0.6175   -2.3147    2.6438 O.2       1 <0>        -0.5334
     18 N2          1.3260   -3.1240    4.5871 N.am      1 <0>        -0.6208
     19 C14         1.0755   -3.3070    6.0189 C.3       1 <0>         0.0555
     20 C15         2.4653   -3.7908    3.9517 C.3       1 <0>         0.1906
     21 H3          2.4294   -3.6245    2.8751 H         1 <0>         0.1257
     22 C16         2.4020   -5.2924    4.2382 C.3       1 <0>        -0.1690
     23 C17         3.7491   -3.2276    4.5045 C.ar      1 <0>        -0.0994
     24 C18         4.7718   -4.0784    4.8804 C.ar      1 <0>        -0.0313
     25 C19         5.9494   -3.5618    5.3874 C.ar      1 <0>        -0.1806
     26 C20         6.1047   -2.1944    5.5181 C.ar      1 <0>        -0.0217
     27 C21         5.0824   -1.3436    5.1414 C.ar      1 <0>        -0.1812
     28 C22         3.9063   -1.8600    4.6304 C.ar      1 <0>        -0.0199
     29 C23         5.2514    0.1470    5.2843 C.3       1 <0>         0.5113
     30 F1          6.5154    0.4242    5.8159 F         1 <0>        -0.1721
     31 F2          5.1304    0.7526    4.0290 F         1 <0>        -0.1703
     32 F3          4.2652    0.6482    6.1408 F         1 <0>        -0.1728
     33 C24         7.0639   -4.4893    5.7981 C.3       1 <0>         0.5120
     34 F4          7.9078   -4.7168    4.7057 F         1 <0>        -0.1705
     35 F5          7.7953   -3.9072    6.8390 F         1 <0>        -0.1721
     36 F6          6.5234   -5.7049    6.2309 F         1 <0>        -0.1722
     37 N3         -3.8419   -1.3791    6.9024 N.3       1 <0>        -0.5309
     38 C25        -5.1147   -1.0237    6.2609 C.3       1 <0>         0.0370
     39 C26        -6.2751   -1.5793    7.0934 C.3       1 <0>         0.1157
     40 N4         -6.1239   -1.1082    8.4785 N.am      1 <0>        -0.6180
     41 C27        -4.8270   -1.3064    9.1433 C.3       1 <0>         0.1120
     42 C28        -3.7236   -0.7616    8.2301 C.3       1 <0>         0.0358
     43 C29        -7.1468   -0.5111    9.1216 C.2       1 <0>         0.5122
     44 O2         -8.2096   -0.3562    8.5583 O.2       1 <0>        -0.5443
     45 C30        -6.9700   -0.0361   10.5408 C.3       1 <0>        -0.1747
     46 F7         -1.9636   -4.0706   -1.0870 F         1 <0>        -0.1437
     47 H4         -2.7138    0.5860    1.3103 H         1 <0>         0.0747
     48 H5         -4.2316   -0.2967    1.0178 H         1 <0>         0.0713
     49 H6         -3.5967   -0.1423    2.6735 H         1 <0>         0.0671
     50 H7         -3.2239   -1.8454   -0.5598 H         1 <0>         0.1294
     51 H8         -0.5611   -4.7991    0.9921 H         1 <0>         0.1254
     52 H9         -0.4463   -3.5729    3.1237 H         1 <0>         0.1278
     53 H10        -3.7979   -1.3518    4.2241 H         1 <0>         0.0843
     54 H11        -2.8690   -2.7596    4.7948 H         1 <0>         0.0823
     55 H12        -1.3033   -1.0422    7.6877 H         1 <0>         0.0818
     56 H13        -1.4254   -2.5804    6.7992 H         1 <0>         0.0837
     57 H14        -0.1391    0.0032    5.8013 H         1 <0>         0.0720
     58 H15         0.7021   -1.5077    6.2338 H         1 <0>         0.1097
     59 H16         0.0130   -3.1726    6.2219 H         1 <0>         0.0915
     60 H17         1.3779   -4.3114    6.3152 H         1 <0>         0.0778
     61 H18         1.6492   -2.5730    6.5848 H         1 <0>         0.0626
     62 H19         1.4734   -5.6998    3.8384 H         1 <0>         0.0743
     63 H20         3.2496   -5.7885    3.7655 H         1 <0>         0.0786
     64 H21         2.4379   -5.4587    5.3148 H         1 <0>         0.0689
     65 H22         4.6505   -5.1467    4.7783 H         1 <0>         0.1539
     66 H23         7.0245   -1.7908    5.9149 H         1 <0>         0.1540
     67 H24         3.1090   -1.1952    4.3325 H         1 <0>         0.1393
     68 H25        -5.1995    0.0611    6.1972 H         1 <0>         0.0402
     69 H26        -5.1487   -1.4511    5.2588 H         1 <0>         0.0939
     70 H27        -7.2213   -1.2225    6.6865 H         1 <0>         0.0960
     71 H28        -6.2519   -2.6688    7.0726 H         1 <0>         0.0757
     72 H29        -4.8158   -0.7693   10.0917 H         1 <0>         0.0911
     73 H30        -4.6646   -2.3697    9.3195 H         1 <0>         0.0792
     74 H31        -2.7487   -0.9988    8.6560 H         1 <0>         0.0932
     75 H32        -3.8277    0.3196    8.1389 H         1 <0>         0.0404
     76 H33        -6.1681    0.7012   10.5799 H         1 <0>         0.0874
     77 H34        -7.8976    0.4171   10.8905 H         1 <0>         0.0931
     78 H35        -6.7164   -0.8829   11.1785 H         1 <0>         0.0890
@<TRIPOS>BOND
     1    1    2 1
     2    1   47 1
     3    1   48 1
     4    1   49 1
     5    2    7 ar
     6    2    3 ar
     7    3    4 ar
     8    3   50 1
     9    4    5 ar
    10    4   46 1
    11    5    6 ar
    12    5   51 1
    13    6    7 ar
    14    6   52 1
    15    7    8 1
    16    8    9 1
    17    8   15 1
    18    8   10 1
    19   10   11 1
    20   10   53 1
    21   10   54 1
    22   11   12 1
    23   11   13 1
    24   11   37 1
    25   13   14 1
    26   13   55 1
    27   13   56 1
    28   14   15 1
    29   14   57 1
    30   14   58 1
    31   15   16 am
    32   16   17 2
    33   16   18 am
    34   18   19 1
    35   18   20 1
    36   19   59 1
    37   19   60 1
    38   19   61 1
    39   20   21 1
    40   20   22 1
    41   20   23 1
    42   22   62 1
    43   22   63 1
    44   22   64 1
    45   23   28 ar
    46   23   24 ar
    47   24   25 ar
    48   24   65 1
    49   25   26 ar
    50   25   33 1
    51   26   27 ar
    52   26   66 1
    53   27   28 ar
    54   27   29 1
    55   28   67 1
    56   29   30 1
    57   29   31 1
    58   29   32 1
    59   33   34 1
    60   33   35 1
    61   33   36 1
    62   37   42 1
    63   37   38 1
    64   38   39 1
    65   38   68 1
    66   38   69 1
    67   39   40 1
    68   39   70 1
    69   39   71 1
    70   40   41 1
    71   40   43 am
    72   41   42 1
    73   41   72 1
    74   41   73 1
    75   42   74 1
    76   42   75 1
    77   43   44 2
    78   43   45 1
    79   45   76 1
    80   45   77 1
    81   45   78 1
@<TRIPOS>MOLECULE
ZINC00598586
   51    53     0     0     0
SMALL
USER_CHARGES

@<TRIPOS>ATOM
      1 C1         -0.0184    1.5028    0.0103 C.3       1 <0>        -0.1785
      2 C2          0.0021   -0.0041    0.0020 C.2       1 <0>         0.5204
      3 O1          0.0203   -0.6160    1.0489 O.2       1 <0>        -0.5178
      4 N1          0.0001   -0.6716   -1.1688 N.am      1 <0>        -0.7177
      5 C3          0.0199   -2.1365   -1.1769 C.3       1 <0>         0.1729
      6 H1          0.0151   -2.4942   -2.2065 H         1 <0>         0.1225
      7 C4          1.2828   -2.6333   -0.4703 C.3       1 <0>        -0.0574
      8 C5          2.4971   -2.2137   -1.2580 C.2       1 <0>        -0.1697
      9 C6          3.1457   -2.9471   -2.1764 C.2       1 <0>         0.0606
     10 N2          4.2007   -2.2366   -2.6808 N.pl3     1 <0>        -0.5941
     11 H2          4.8163   -2.5582   -3.3579 H         1 <0>         0.4171
     12 C7          4.2583   -0.9970   -2.0841 C.ar      1 <0>         0.0940
     13 C8          3.1899   -0.9259   -1.1712 C.ar      1 <0>        -0.0922
     14 C9          2.9941    0.2322   -0.4170 C.ar      1 <0>        -0.0776
     15 C10         3.8405    1.2940   -0.5720 C.ar      1 <0>        -0.1458
     16 C11         4.8933    1.2304   -1.4741 C.ar      1 <0>        -0.0973
     17 C12         5.1104    0.0936   -2.2220 C.ar      1 <0>        -0.1297
     18 C13        -1.1968   -2.6593   -0.4576 C.2       1 <0>         0.4464
     19 O2         -1.7975   -1.9459    0.3106 O.2       1 <0>        -0.4684
     20 O3         -1.6132   -3.9175   -0.6704 O.3       1 <0>        -0.3500
     21 C14        -2.7734   -4.3466    0.0450 C.3       1 <0>         0.1082
     22 C15        -3.0881   -5.7748   -0.3187 C.ar      1 <0>        -0.0942
     23 C16        -3.9224   -6.0483   -1.3864 C.ar      1 <0>        -0.0137
     24 C17        -4.2111   -7.3584   -1.7201 C.ar      1 <0>        -0.1860
     25 C18        -3.6652   -8.3949   -0.9863 C.ar      1 <0>        -0.0127
     26 C19        -2.8301   -8.1214    0.0808 C.ar      1 <0>        -0.1852
     27 C20        -2.5380   -6.8114    0.4118 C.ar      1 <0>        -0.0115
     28 C21        -2.2353   -9.2514    0.8810 C.3       1 <0>         0.5128
     29 F1         -2.6707  -10.4734    0.3573 F         1 <0>        -0.1722
     30 F2         -0.8394   -9.1861    0.8139 F         1 <0>        -0.1704
     31 F3         -2.6436   -9.1437    2.2148 F         1 <0>        -0.1705
     32 C22        -5.1215   -7.6565   -2.8835 C.3       1 <0>         0.5129
     33 F4         -4.3617   -7.7723   -4.0524 F         1 <0>        -0.1705
     34 F5         -5.8010   -8.8566   -2.6482 F         1 <0>        -0.1715
     35 F6         -6.0468   -6.6176   -3.0297 F         1 <0>        -0.1718
     36 H3          1.0042    1.8801    0.0026 H         1 <0>         0.0959
     37 H4         -0.5455    1.8639   -0.8728 H         1 <0>         0.0795
     38 H5         -0.5286    1.8543    0.9071 H         1 <0>         0.0950
     39 H6         -0.0145   -0.1822   -2.0061 H         1 <0>         0.4088
     40 H7          1.3324   -2.2034    0.5301 H         1 <0>         0.1014
     41 H8          1.2546   -3.7205   -0.3977 H         1 <0>         0.0882
     42 H9          2.8751   -3.9497   -2.4730 H         1 <0>         0.1716
     43 H10         2.1765    0.2892    0.2864 H         1 <0>         0.1216
     44 H11         3.6886    2.1898    0.0117 H         1 <0>         0.1219
     45 H12         5.5533    2.0779   -1.5860 H         1 <0>         0.1251
     46 H13         5.9317    0.0543   -2.9221 H         1 <0>         0.1193
     47 H14        -2.5858   -4.2775    1.1165 H         1 <0>         0.0879
     48 H15        -3.6183   -3.7101   -0.2177 H         1 <0>         0.0863
     49 H16        -4.3490   -5.2385   -1.9597 H         1 <0>         0.1503
     50 H17        -3.8913   -9.4184   -1.2466 H         1 <0>         0.1563
     51 H18        -1.8826   -6.5978    1.2432 H         1 <0>         0.1495
@<TRIPOS>BOND
     1    1    2 1
     2    1   36 1
     3    1   37 1
     4    1   38 1
     5    2    3 2
     6    2    4 am
     7    4    5 1
     8    4   39 1
     9    5    6 1
    10    5    7 1
    11    5   18 1
    12    7    8 1
    13    7   40 1
    14    7   41 1
    15    8   13 1
    16    8    9 2
    17    9   10 1
    18    9   42 1
    19   10   11 1
    20   10   12 1
    21   12   17 ar
    22   12   13 ar
    23   13   14 ar
    24   14   15 ar
    25   14   43 1
    26   15   16 ar
    27   15   44 1
    28   16   17 ar
    29   16   45 1
    30   17   46 1
    31   18   19 2
    32   18   20 1
    33   20   21 1
    34   21   22 1
    35   21   47 1
    36   21   48 1
    37   22   27 ar
    38   22   23 ar
    39   23   24 ar
    40   23   49 1
    41   24   25 ar
    42   24   32 1
    43   25   26 ar
    44   25   50 1
    45   26   27 ar
    46   26   28 1
    47   27   51 1
    48   28   29 1
    49   28   30 1
    50   28   31 1
    51   32   33 1
    52   32   34 1
    53   32   35 1
@<TRIPOS>MOLECULE
ZINC04533909
   51    53     0     0     0
SMALL
USER_CHARGES
[3,5-bis(trifluoromethyl)phenyl]methyl 2-acetylamino-3-(1H-indol-3-yl)propanoate
@<TRIPOS>ATOM
      1 C1          3.6623   -2.9990    2.5431 C.3       1 <0>        -0.1719
      2 C2          4.1076   -1.7895    1.7621 C.2       1 <0>         0.5159
      3 O1          4.7960   -1.9261    0.7730 O.2       1 <0>        -0.5166
      4 N1          3.7410   -0.5561    2.1629 N.am      1 <0>        -0.7190
      5 C3          4.1739    0.6197    1.4037 C.3       1 <0>         0.1712
      6 H1          3.7831    1.5211    1.8757 H         1 <0>         0.1232
      7 C4          3.6459    0.5244   -0.0291 C.3       1 <0>        -0.0553
      8 C5          2.1404    0.5910   -0.0152 C.2       1 <0>        -0.1676
      9 C6          1.2950   -0.4517   -0.0127 C.2       1 <0>         0.0664
     10 N2          0.0021   -0.0041    0.0020 N.pl3     1 <0>        -0.5944
     11 H2         -0.7842   -0.5720    0.0062 H         1 <0>         0.4165
     12 C7         -0.0166    1.3727    0.0096 C.ar      1 <0>         0.0958
     13 C8          1.3221    1.8059   -0.0009 C.ar      1 <0>        -0.1011
     14 C9          1.6123    3.1713    0.0041 C.ar      1 <0>        -0.0725
     15 C10         0.5931    4.0815    0.0191 C.ar      1 <0>        -0.1436
     16 C11        -0.7290    3.6593    0.0295 C.ar      1 <0>        -0.0976
     17 C12        -1.0380    2.3165    0.0295 C.ar      1 <0>        -0.1302
     18 C13         5.6797    0.6767    1.3814 C.2       1 <0>         0.4479
     19 O2          6.3254   -0.3191    1.6077 O.2       1 <0>        -0.4717
     20 O3          6.3035    1.8339    1.1102 O.3       1 <0>        -0.3530
     21 C14         7.7554    1.8148    1.1058 C.3       1 <0>         0.1094
     22 C15         8.2749    3.1924    0.7843 C.ar      1 <0>        -0.0953
     23 C16         8.5115    3.5527   -0.5291 C.ar      1 <0>        -0.0110
     24 C17         8.9839    4.8179   -0.8243 C.ar      1 <0>        -0.1851
     25 C18         9.2283    5.7196    0.1945 C.ar      1 <0>        -0.0121
     26 C19         8.9967    5.3574    1.5084 C.ar      1 <0>        -0.1859
     27 C20         8.5202    4.0938    1.8033 C.ar      1 <0>        -0.0132
     28 C21         9.2632    6.3404    2.6191 C.3       1 <0>         0.5129
     29 F1         10.5838    6.2002    3.0590 F         1 <0>        -0.1708
     30 F2          9.0647    7.6424    2.1472 F         1 <0>        -0.1713
     31 F3          8.3886    6.0913    3.6822 F         1 <0>        -0.1716
     32 C22         9.2359    5.2128   -2.2566 C.3       1 <0>         0.5127
     33 F4          9.7106    6.5281   -2.3011 F         1 <0>        -0.1722
     34 F5         10.1881    4.3542   -2.8165 F         1 <0>        -0.1708
     35 F6          8.0431    5.1228   -2.9820 F         1 <0>        -0.1698
     36 H3          2.7089   -3.3536    2.1514 H         1 <0>         0.0918
     37 H4          4.4093   -3.7872    2.4496 H         1 <0>         0.0946
     38 H5          3.5465   -2.7310    3.5933 H         1 <0>         0.0788
     39 H6          3.1904   -0.4468    2.9540 H         1 <0>         0.4088
     40 H7          3.9637   -0.4198   -0.4714 H         1 <0>         0.1000
     41 H8          4.0408    1.3525   -0.6177 H         1 <0>         0.0885
     42 H9          1.5915   -1.4902   -0.0208 H         1 <0>         0.1647
     43 H10         2.6388    3.5071   -0.0036 H         1 <0>         0.1222
     44 H11         0.8182    5.1378    0.0225 H         1 <0>         0.1227
     45 H12        -1.5236    4.3907    0.0413 H         1 <0>         0.1250
     46 H13        -2.0699    1.9980    0.0429 H         1 <0>         0.1192
     47 H14         8.1177    1.5098    2.0876 H         1 <0>         0.0887
     48 H15         8.1072    1.1090    0.3534 H         1 <0>         0.0905
     49 H16         8.3240    2.8470   -1.3248 H         1 <0>         0.1495
     50 H17         9.5999    6.7071   -0.0359 H         1 <0>         0.1565
     51 H18         8.3393    3.8109    2.8297 H         1 <0>         0.1504
@<TRIPOS>BOND
     1    1    2 1
     2    1   36 1
     3    1   37 1
     4    1   38 1
     5    2    3 2
     6    2    4 am
     7    4    5 1
     8    4   39 1
     9    5    6 1
    10    5    7 1
    11    5   18 1
    12    7    8 1
    13    7   40 1
    14    7   41 1
    15    8   13 1
    16    8    9 2
    17    9   10 1
    18    9   42 1
    19   10   11 1
    20   10   12 1
    21   12   17 ar
    22   12   13 ar
    23   13   14 ar
    24   14   15 ar
    25   14   43 1
    26   15   16 ar
    27   15   44 1
    28   16   17 ar
    29   16   45 1
    30   17   46 1
    31   18   19 2
    32   18   20 1
    33   20   21 1
    34   21   22 1
    35   21   47 1
    36   21   48 1
    37   22   27 ar
    38   22   23 ar
    39   23   24 ar
    40   23   49 1
    41   24   25 ar
    42   24   32 1
    43   25   26 ar
    44   25   50 1
    45   26   27 ar
    46   26   28 1
    47   27   51 1
    48   28   29 1
    49   28   30 1
    50   28   31 1
    51   32   33 1
    52   32   34 1
    53   32   35 1
@<TRIPOS>MOLECULE
ZINC09610931
   49    52     0     0     0
SMALL
USER_CHARGES

@<TRIPOS>ATOM
      1 C1         -2.9157    1.5715   -1.3941 C.3       1 <0>         0.0250
      2 O1         -2.3100    0.2947   -1.1819 O.3       1 <0>        -0.3056
      3 C2         -1.3862    0.2071   -0.1875 C.ar      1 <0>         0.1214
      4 C3         -1.0742    1.3235    0.5705 C.ar      1 <0>        -0.2058
      5 C4         -0.1345    1.2332    1.5809 C.ar      1 <0>        -0.0805
      6 C5          0.4960    0.0299    1.8382 C.ar      1 <0>        -0.1515
      7 C6          0.1900   -1.0890    1.0866 C.ar      1 <0>        -0.0858
      8 C7         -0.7556   -1.0072    0.0748 C.ar      1 <0>         0.1326
      9 N1         -1.0714   -2.1401   -0.6839 N.pl3     1 <0>        -0.6635
     10 C8         -0.3226   -2.4523   -1.9093 C.3       1 <0>         0.1375
     11 C9          0.2370   -3.8755   -1.7925 C.3       1 <0>         0.0707
     12 N2         -0.8491   -4.7746   -1.3778 N.am      1 <0>        -0.6033
     13 C10        -1.5980   -4.4624   -0.1524 C.3       1 <0>         0.0973
     14 C11        -2.1538   -3.0422   -0.2661 C.3       1 <0>         0.1344
     15 C12        -1.1532   -5.8656   -2.1083 C.2       1 <0>         0.5925
     16 O2         -2.0517   -6.6043   -1.7531 O.2       1 <0>        -0.5148
     17 C13        -0.3979   -6.1631   -3.3362 C.2       1 <0>        -0.0316
     18 C14        -0.8691   -6.8149   -4.4598 C.2       1 <0>        -0.1393
     19 C15         0.2194   -6.8540   -5.3501 C.2       1 <0>         0.0723
     20 N3          1.2363   -6.2609   -4.7611 N.2       1 <0>        -0.2590
     21 N4          0.9061   -5.8439   -3.5922 N.pl3     1 <0>        -0.3784
     22 H1          1.4953   -5.3748   -2.9809 H         1 <0>         0.4479
     23 C16         0.2212   -7.4558   -6.7072 C.ar      1 <0>        -0.0117
     24 C17        -0.9342   -8.0501   -7.2099 C.ar      1 <0>        -0.0992
     25 C18        -0.9272   -8.6077   -8.4725 C.ar      1 <0>        -0.1185
     26 C19         0.2243   -8.5774   -9.2381 C.ar      1 <0>        -0.1137
     27 C20         1.3743   -7.9890   -8.7437 C.ar      1 <0>        -0.1206
     28 C21         1.3765   -7.4230   -7.4849 C.ar      1 <0>        -0.0944
     29 H2         -2.1461    2.3017   -1.6441 H         1 <0>         0.0545
     30 H3         -3.6311    1.5026   -2.2135 H         1 <0>         0.0996
     31 H4         -3.4319    1.8840   -0.4864 H         1 <0>         0.0548
     32 H5         -1.5648    2.2650    0.3722 H         1 <0>         0.1285
     33 H6          0.1080    2.1050    2.1705 H         1 <0>         0.1255
     34 H7          1.2295   -0.0359    2.6281 H         1 <0>         0.1253
     35 H8          0.6842   -2.0277    1.2893 H         1 <0>         0.1273
     36 H9         -0.9879   -2.3903   -2.7704 H         1 <0>         0.0595
     37 H10         0.4984   -1.7450   -2.0265 H         1 <0>         0.0835
     38 H11         0.6278   -4.1953   -2.7585 H         1 <0>         0.0868
     39 H12         1.0330   -3.8957   -1.0482 H         1 <0>         0.0814
     40 H13        -2.4189   -5.1698   -0.0351 H         1 <0>         0.1034
     41 H14        -0.9326   -4.5244    0.7088 H         1 <0>         0.0740
     42 H15        -2.5420   -2.7243    0.7016 H         1 <0>         0.0835
     43 H16        -2.9526   -3.0232   -1.0076 H         1 <0>         0.0585
     44 H17        -1.8613   -7.2100   -4.6202 H         1 <0>         0.1674
     45 H18        -1.8336   -8.0748   -6.6125 H         1 <0>         0.1270
     46 H19        -1.8223   -9.0687   -8.8631 H         1 <0>         0.1269
     47 H20         0.2256   -9.0152  -10.2254 H         1 <0>         0.1239
     48 H21         2.2709   -7.9684   -9.3456 H         1 <0>         0.1255
     49 H22         2.2736   -6.9596   -7.1016 H         1 <0>         0.1288
@<TRIPOS>BOND
     1    1    2 1
     2    1   29 1
     3    1   30 1
     4    1   31 1
     5    2    3 1
     6    3    8 ar
     7    3    4 ar
     8    4    5 ar
     9    4   32 1
    10    5    6 ar
    11    5   33 1
    12    6    7 ar
    13    6   34 1
    14    7    8 ar
    15    7   35 1
    16    8    9 1
    17    9   14 1
    18    9   10 1
    19   10   11 1
    20   10   36 1
    21   10   37 1
    22   11   12 1
    23   11   38 1
    24   11   39 1
    25   12   13 1
    26   12   15 am
    27   13   14 1
    28   13   40 1
    29   13   41 1
    30   14   42 1
    31   14   43 1
    32   15   16 2
    33   15   17 1
    34   17   21 1
    35   17   18 2
    36   18   19 1
    37   18   44 1
    38   19   20 2
    39   19   23 1
    40   20   21 1
    41   21   22 1
    42   23   28 ar
    43   23   24 ar
    44   24   25 ar
    45   24   45 1
    46   25   26 ar
    47   25   46 1
    48   26   27 ar
    49   26   47 1
    50   27   28 ar
    51   27   48 1
    52   28   49 1
@<TRIPOS>MOLECULE
ZINC71296558
   52    55     0     0     0
SMALL
USER_CHARGES

@<TRIPOS>ATOM
      1 C1          0.7045   -3.1874   -1.4727 C.3       1 <0>         0.0892
      2 N1          0.2902   -2.0466   -0.6522 N.pl3     1 <0>        -0.2489
      3 C2          0.0747   -0.7805   -1.1195 C.2       1 <0>        -0.0277
      4 C3         -0.2982   -0.0188   -0.0286 C.2       1 <0>        -0.1848
      5 C4         -0.2835   -0.9040    1.0647 C.2       1 <0>         0.0614
      6 N2          0.0700   -2.0886    0.6123 N.2       1 <0>        -0.2582
      7 C5         -0.6122   -0.5650    2.4721 C.ar      1 <0>         0.0000
      8 C6         -0.9835    0.7347    2.8094 C.ar      1 <0>        -0.0895
      9 C7         -1.2886    1.0449    4.1190 C.ar      1 <0>        -0.1072
     10 C8         -1.2257    0.0672    5.0970 C.ar      1 <0>        -0.0319
     11 C9         -0.8573   -1.2257    4.7667 C.ar      1 <0>        -0.1082
     12 C10        -0.5559   -1.5469    3.4588 C.ar      1 <0>        -0.0831
     13 Cl1        -1.6095    0.4637    6.7429 Cl        1 <0>        -0.0677
     14 C11         0.2135   -0.3191   -2.5104 C.2       1 <0>         0.5909
     15 O1          0.1756   -1.1212   -3.4238 O.2       1 <0>        -0.5374
     16 N3          0.3825    0.9923   -2.7716 N.am      1 <0>        -0.5875
     17 C12         0.5757    1.9541   -1.6774 C.3       1 <0>         0.0600
     18 C13         1.8774    2.7258   -1.9275 C.3       1 <0>         0.1353
     19 N4          1.8722    3.2194   -3.3117 N.pl3     1 <0>        -0.6654
     20 C14         1.6789    2.2575   -4.4059 C.3       1 <0>         0.1356
     21 C15         0.3828    1.4851   -4.1562 C.3       1 <0>         0.0999
     22 C16         2.0477    4.5812   -3.5831 C.ar      1 <0>         0.1345
     23 C17         3.3216    5.0912   -3.7871 C.ar      1 <0>        -0.0856
     24 C18         3.4923    6.4363   -4.0554 C.ar      1 <0>        -0.1510
     25 C19         2.3959    7.2761   -4.1211 C.ar      1 <0>        -0.0818
     26 C20         1.1232    6.7748   -3.9188 C.ar      1 <0>        -0.2059
     27 C21         0.9431    5.4272   -3.6547 C.ar      1 <0>         0.1202
     28 O2         -0.3087    4.9318   -3.4606 O.3       1 <0>        -0.3052
     29 C22        -1.3936    5.8576   -3.5489 C.3       1 <0>         0.0248
     30 H1         -0.1728   -3.6403   -1.9346 H         1 <0>         0.0916
     31 H2          1.3890   -2.8466   -2.2495 H         1 <0>         0.1009
     32 H3          1.2054   -3.9239   -0.8444 H         1 <0>         0.0989
     33 H4         -0.5477    1.0319   -0.0176 H         1 <0>         0.1757
     34 H5         -1.0321    1.4983    2.0472 H         1 <0>         0.1353
     35 H6         -1.5765    2.0522    4.3815 H         1 <0>         0.1382
     36 H7         -0.8093   -1.9851    5.5331 H         1 <0>         0.1370
     37 H8         -0.2730   -2.5569    3.2013 H         1 <0>         0.1388
     38 H9         -0.2626    2.6501   -1.6498 H         1 <0>         0.0807
     39 H10         0.6430    1.4208   -0.7292 H         1 <0>         0.1149
     40 H11         1.9412    3.5683   -1.2389 H         1 <0>         0.0820
     41 H12         2.7299    2.0631   -1.7786 H         1 <0>         0.0553
     42 H13         1.6116    2.7908   -5.3542 H         1 <0>         0.0818
     43 H14         2.5173    1.5615   -4.4335 H         1 <0>         0.0557
     44 H15         0.3228    0.6421   -4.8446 H         1 <0>         0.0981
     45 H16        -0.4696    2.1469   -4.3092 H         1 <0>         0.0774
     46 H17         4.1797    4.4374   -3.7360 H         1 <0>         0.1283
     47 H18         4.4845    6.8324   -4.2137 H         1 <0>         0.1248
     48 H19         2.5340    8.3266   -4.3306 H         1 <0>         0.1248
     49 H20         0.2689    7.4336   -3.9708 H         1 <0>         0.1277
     50 H21        -1.2677    6.6376   -2.7980 H         1 <0>         0.0545
     51 H22        -1.4074    6.3076   -4.5415 H         1 <0>         0.0541
     52 H23        -2.3334    5.3337   -3.3744 H         1 <0>         0.0987
@<TRIPOS>BOND
     1    1    2 1
     2    1   30 1
     3    1   31 1
     4    1   32 1
     5    2    6 1
     6    2    3 1
     7    3    4 2
     8    3   14 1
     9    4    5 1
    10    4   33 1
    11    5    6 2
    12    5    7 1
    13    7   12 ar
    14    7    8 ar
    15    8    9 ar
    16    8   34 1
    17    9   10 ar
    18    9   35 1
    19   10   11 ar
    20   10   13 1
    21   11   12 ar
    22   11   36 1
    23   12   37 1
    24   14   15 2
    25   14   16 am
    26   16   21 1
    27   16   17 1
    28   17   18 1
    29   17   38 1
    30   17   39 1
    31   18   19 1
    32   18   40 1
    33   18   41 1
    34   19   20 1
    35   19   22 1
    36   20   21 1
    37   20   42 1
    38   20   43 1
    39   21   44 1
    40   21   45 1
    41   22   27 ar
    42   22   23 ar
    43   23   24 ar
    44   23   46 1
    45   24   25 ar
    46   24   47 1
    47   25   26 ar
    48   25   48 1
    49   26   27 ar
    50   26   49 1
    51   27   28 1
    52   28   29 1
    53   29   50 1
    54   29   51 1
    55   29   52 1
@<TRIPOS>MOLECULE
ZINC14049704
   49    52     0     0     0
SMALL
USER_CHARGES

@<TRIPOS>ATOM
      1 C1          1.3541    1.7301    0.6487 C.3       1 <0>         0.0253
      2 O1          1.1131    0.3321    0.4768 O.3       1 <0>        -0.3052
      3 C2         -0.1803   -0.0562    0.3149 C.ar      1 <0>         0.1196
      4 C3         -1.1938    0.8878    0.3157 C.ar      1 <0>        -0.2065
      5 C4         -2.5084    0.4915    0.1515 C.ar      1 <0>        -0.0828
      6 C5         -2.8156   -0.8462   -0.0144 C.ar      1 <0>        -0.1518
      7 C6         -1.8099   -1.7945   -0.0169 C.ar      1 <0>        -0.0862
      8 C7         -0.4883   -1.4039    0.1421 C.ar      1 <0>         0.1367
      9 N1          0.5323   -2.3616    0.1341 N.pl3     1 <0>        -0.6659
     10 C8          0.9575   -3.0119    1.3816 C.3       1 <0>         0.1360
     11 C9          0.8502   -4.5314    1.2033 C.3       1 <0>         0.0962
     12 N2          1.5156   -4.9051   -0.0527 N.am      1 <0>        -0.5949
     13 C10         1.0904   -4.2547   -1.3002 C.3       1 <0>         0.0708
     14 C11         1.1938   -2.7393   -1.1227 C.3       1 <0>         0.1361
     15 C12         2.4984   -5.8273   -0.0603 C.2       1 <0>         0.6029
     16 O2          2.9287   -6.2657    0.9887 O.2       1 <0>        -0.5300
     17 C13         3.0527   -6.3055   -1.3436 C.2       1 <0>        -0.0035
     18 C14         4.1695   -7.1533   -1.5083 C.2       1 <0>        -0.1513
     19 C15         4.3041   -7.3200   -2.8582 C.2       1 <0>         0.0582
     20 N3          3.3071   -6.5988   -3.4460 N.pl3     1 <0>        -0.3782
     21 H1          3.1574   -6.5326   -4.4021 H         1 <0>         0.4465
     22 N4          2.5925   -6.0240   -2.5466 N.2       1 <0>        -0.2453
     23 C16         5.3343   -8.1274   -3.5492 C.ar      1 <0>        -0.0191
     24 C17         6.2937   -8.8192   -2.8098 C.ar      1 <0>        -0.0807
     25 C18         7.2517   -9.5702   -3.4592 C.ar      1 <0>        -0.1013
     26 C19         7.2619   -9.6379   -4.8421 C.ar      1 <0>        -0.0297
     27 C20         6.3123   -8.9528   -5.5810 C.ar      1 <0>        -0.1021
     28 C21         5.3459   -8.2038   -4.9420 C.ar      1 <0>        -0.1025
     29 Cl1         8.4703  -10.5848   -5.6526 Cl        1 <0>        -0.0613
     30 H2          2.4239    1.9026    0.7668 H         1 <0>         0.0988
     31 H3          0.9931    2.2713   -0.2259 H         1 <0>         0.0538
     32 H4          0.8291    2.0828    1.5365 H         1 <0>         0.0542
     33 H5         -0.9573    1.9336    0.4450 H         1 <0>         0.1274
     34 H6         -3.2974    1.2290    0.1531 H         1 <0>         0.1244
     35 H7         -3.8438   -1.1511   -0.1420 H         1 <0>         0.1244
     36 H8         -2.0527   -2.8389   -0.1462 H         1 <0>         0.1276
     37 H9          1.9902   -2.7414    1.6016 H         1 <0>         0.0570
     38 H10         0.3111   -2.6929    2.1992 H         1 <0>         0.0800
     39 H11         1.3380   -5.0331    2.0390 H         1 <0>         0.0995
     40 H12        -0.1996   -4.8216    1.1616 H         1 <0>         0.0713
     41 H13         1.7368   -4.5737   -2.1178 H         1 <0>         0.1303
     42 H14         0.0576   -4.5252   -1.5201 H         1 <0>         0.0682
     43 H15         0.7034   -2.2403   -1.9586 H         1 <0>         0.0781
     44 H16         2.2438   -2.4489   -1.0851 H         1 <0>         0.0531
     45 H17         4.7870   -7.5800   -0.7317 H         1 <0>         0.1687
     46 H18         6.2868   -8.7668   -1.7311 H         1 <0>         0.1424
     47 H19         7.9952  -10.1060   -2.8878 H         1 <0>         0.1422
     48 H20         6.3252   -9.0088   -6.6595 H         1 <0>         0.1398
     49 H21         4.6027   -7.6737   -5.5192 H         1 <0>         0.1287
@<TRIPOS>BOND
     1    1    2 1
     2    1   30 1
     3    1   31 1
     4    1   32 1
     5    2    3 1
     6    3    8 ar
     7    3    4 ar
     8    4    5 ar
     9    4   33 1
    10    5    6 ar
    11    5   34 1
    12    6    7 ar
    13    6   35 1
    14    7    8 ar
    15    7   36 1
    16    8    9 1
    17    9   14 1
    18    9   10 1
    19   10   11 1
    20   10   37 1
    21   10   38 1
    22   11   12 1
    23   11   39 1
    24   11   40 1
    25   12   13 1
    26   12   15 am
    27   13   14 1
    28   13   41 1
    29   13   42 1
    30   14   43 1
    31   14   44 1
    32   15   16 2
    33   15   17 1
    34   17   22 2
    35   17   18 1
    36   18   19 2
    37   18   45 1
    38   19   20 1
    39   19   23 1
    40   20   21 1
    41   20   22 1
    42   23   28 ar
    43   23   24 ar
    44   24   25 ar
    45   24   46 1
    46   25   26 ar
    47   25   47 1
    48   26   27 ar
    49   26   29 1
    50   27   28 ar
    51   27   48 1
    52   28   49 1
@<TRIPOS>MOLECULE
ZINC72105510
   52    55     0     0     0
SMALL
USER_CHARGES

@<TRIPOS>ATOM
      1 C1          2.1337    3.8971    0.8188 C.ar      1 <0>        -0.1184
      2 C2          3.4937    4.0478    0.6227 C.ar      1 <0>        -0.1203
      3 C3          4.2973    2.9339    0.4670 C.ar      1 <0>        -0.1163
      4 C4          3.7409    1.6691    0.5077 C.ar      1 <0>        -0.0808
      5 C5          2.3810    1.5183    0.7047 C.ar      1 <0>        -0.0968
      6 C6          1.5772    2.6323    0.8590 C.ar      1 <0>        -0.1202
      7 C7          4.6167    0.4547    0.3369 C.3       1 <0>         0.0961
      8 N1          5.1052    0.0146    1.6506 N.3       1 <0>        -0.5348
      9 C8          5.9913    1.0220    2.2471 C.3       1 <0>         0.0546
     10 C9          6.2830    0.6449    3.7040 C.3       1 <0>        -0.1636
     11 C10         6.8119   -0.7739    3.7297 C.2       1 <0>         0.3592
     12 O1          7.8158   -1.0547    4.3392 O.2       1 <0>        -0.4345
     13 C11         6.0394   -1.8289    2.9658 C.3       1 <0>        -0.1203
     14 H1          5.0963   -2.0332    3.4728 H         1 <0>         0.1150
     15 C12         5.7631   -1.2946    1.5558 C.3       1 <0>         0.0681
     16 C13         6.8671   -3.1128    2.8790 C.3       1 <0>         0.0050
     17 C14         7.1599   -3.6166    4.2688 C.ar      1 <0>        -0.0560
     18 C15         6.1288   -3.7874    5.1736 C.ar      1 <0>        -0.1216
     19 C16         6.3974   -4.2495    6.4484 C.ar      1 <0>        -0.1186
     20 C17         7.6969   -4.5414    6.8183 C.ar      1 <0>        -0.1237
     21 C18         8.7279   -4.3715    5.9132 C.ar      1 <0>        -0.1169
     22 C19         8.4588   -3.9134    4.6370 C.ar      1 <0>        -0.0955
     23 C20         6.0936   -4.1586    2.1181 C.ar      1 <0>        -0.0717
     24 C21         4.7982   -4.4667    2.4894 C.ar      1 <0>        -0.1115
     25 C22         4.0887   -5.4260    1.7915 C.ar      1 <0>        -0.1158
     26 C23         4.6745   -6.0770    0.7219 C.ar      1 <0>        -0.1213
     27 C24         5.9696   -5.7683    0.3500 C.ar      1 <0>        -0.1164
     28 C25         6.6776   -4.8059    1.0453 C.ar      1 <0>        -0.1139
     29 H2          1.5065    4.7672    0.9449 H         1 <0>         0.1211
     30 H3          3.9284    5.0360    0.5909 H         1 <0>         0.1215
     31 H4          5.3597    3.0517    0.3131 H         1 <0>         0.1184
     32 H5          1.9462    0.5302    0.7362 H         1 <0>         0.1227
     33 H6          0.5147    2.5145    1.0125 H         1 <0>         0.1221
     34 H7          4.0400   -0.3473   -0.1237 H         1 <0>         0.0876
     35 H8          5.4646    0.7050   -0.3007 H         1 <0>         0.0461
     36 H9          6.9259    1.0611    1.6875 H         1 <0>         0.0395
     37 H10         5.5065    1.9977    2.2142 H         1 <0>         0.0937
     38 H11         7.0299    1.3230    4.1168 H         1 <0>         0.0936
     39 H12         5.3662    0.7061    4.2903 H         1 <0>         0.1059
     40 H13         5.1137   -1.9901    1.0241 H         1 <0>         0.0910
     41 H14         6.7041   -1.1903    1.0157 H         1 <0>         0.0412
     42 H15         7.8044   -2.9066    2.3623 H         1 <0>         0.0879
     43 H16         5.1135   -3.5594    4.8846 H         1 <0>         0.1174
     44 H17         5.5919   -4.3823    7.1555 H         1 <0>         0.1195
     45 H18         7.9069   -4.9018    7.8145 H         1 <0>         0.1191
     46 H19         9.7433   -4.5991    6.2023 H         1 <0>         0.1198
     47 H20         9.2638   -3.7842    3.9287 H         1 <0>         0.1166
     48 H21         4.3405   -3.9581    3.3250 H         1 <0>         0.1214
     49 H22         3.0768   -5.6672    2.0820 H         1 <0>         0.1220
     50 H23         4.1204   -6.8270    0.1770 H         1 <0>         0.1210
     51 H24         6.4273   -6.2772   -0.4854 H         1 <0>         0.1218
     52 H25         7.6881   -4.5621    0.7524 H         1 <0>         0.1202
@<TRIPOS>BOND
     1    1    6 ar
     2    1    2 ar
     3    1   29 1
     4    2    3 ar
     5    2   30 1
     6    3    4 ar
     7    3   31 1
     8    4    5 ar
     9    4    7 1
    10    5    6 ar
    11    5   32 1
    12    6   33 1
    13    7    8 1
    14    7   34 1
    15    7   35 1
    16    8   15 1
    17    8    9 1
    18    9   10 1
    19    9   36 1
    20    9   37 1
    21   10   11 1
    22   10   38 1
    23   10   39 1
    24   11   12 2
    25   11   13 1
    26   13   14 1
    27   13   15 1
    28   13   16 1
    29   15   40 1
    30   15   41 1
    31   16   17 1
    32   16   23 1
    33   16   42 1
    34   17   22 ar
    35   17   18 ar
    36   18   19 ar
    37   18   43 1
    38   19   20 ar
    39   19   44 1
    40   20   21 ar
    41   20   45 1
    42   21   22 ar
    43   21   46 1
    44   22   47 1
    45   23   28 ar
    46   23   24 ar
    47   24   25 ar
    48   24   48 1
    49   25   26 ar
    50   25   49 1
    51   26   27 ar
    52   26   50 1
    53   27   28 ar
    54   27   51 1
    55   28   52 1
@<TRIPOS>MOLECULE
ZINC72105510
   53    56     0     0     0
SMALL
USER_CHARGES

@<TRIPOS>ATOM
      1 C1          2.0562    3.9314    0.6897 C.ar      1 <0>        -0.0827
      2 C2          3.4148    4.0807    0.4827 C.ar      1 <0>        -0.1128
      3 C3          4.2210    2.9652    0.3536 C.ar      1 <0>        -0.0988
      4 C4          3.6687    1.7004    0.4321 C.ar      1 <0>        -0.1632
      5 C5          2.3102    1.5511    0.6400 C.ar      1 <0>        -0.0925
      6 C6          1.5038    2.6666    0.7676 C.ar      1 <0>        -0.1123
      7 C7          4.5474    0.4844    0.2905 C.3       1 <0>         0.0442
      8 N1          5.0437    0.0821    1.6133 N.4       1 <0>        -0.3845
      9 C8          5.9033    1.1421    2.1532 C.3       1 <0>        -0.0083
     10 C9          6.2825    0.8056    3.5998 C.3       1 <0>        -0.1905
     11 C10         6.9018   -0.5766    3.6169 C.2       1 <0>         0.3400
     12 O1          7.9409   -0.7890    4.1944 O.2       1 <0>        -0.3792
     13 C11         6.1713   -1.6832    2.8847 C.3       1 <0>        -0.1500
     14 H1          5.2667   -1.9508    3.4307 H         1 <0>         0.1301
     15 C12         5.8001   -1.1695    1.4889 C.3       1 <0>         0.0006
     16 C13         7.0804   -2.9076    2.7602 C.3       1 <0>         0.0182
     17 C14         7.4660   -3.3887    4.1353 C.ar      1 <0>        -0.0755
     18 C15         6.4886   -3.6287    5.0829 C.ar      1 <0>        -0.1239
     19 C16         6.8424   -4.0700    6.3443 C.ar      1 <0>        -0.1160
     20 C17         8.1735   -4.2719    6.6578 C.ar      1 <0>        -0.1127
     21 C18         9.1508   -4.0328    5.7099 C.ar      1 <0>        -0.1120
     22 C19         8.7967   -3.5956    4.4472 C.ar      1 <0>        -0.0925
     23 C20         6.3484   -4.0047    2.0311 C.ar      1 <0>        -0.0944
     24 C21         5.0941   -4.4001    2.4568 C.ar      1 <0>        -0.1205
     25 C22         4.4226   -5.4065    1.7880 C.ar      1 <0>        -0.1130
     26 C23         5.0053   -6.0171    0.6932 C.ar      1 <0>        -0.1112
     27 C24         6.2592   -5.6210    0.2669 C.ar      1 <0>        -0.1105
     28 C25         6.9288   -4.6117    0.9331 C.ar      1 <0>        -0.1104
     29 H2          1.4270    4.8029    0.7949 H         1 <0>         0.1363
     30 H3          3.8463    5.0689    0.4214 H         1 <0>         0.1367
     31 H4          5.2823    3.0819    0.1912 H         1 <0>         0.1320
     32 H5          1.8786    0.5630    0.7009 H         1 <0>         0.1320
     33 H6          0.4424    2.5500    0.9297 H         1 <0>         0.1366
     34 H7          3.9708   -0.3318   -0.1449 H         1 <0>         0.1404
     35 H8          5.3913    0.7195   -0.3581 H         1 <0>         0.1382
     36 H9          6.8074    1.2195    1.5492 H         1 <0>         0.1354
     37 H10         5.3681    2.0914    2.1293 H         1 <0>         0.1446
     38 H11         7.0020    1.5355    3.9708 H         1 <0>         0.1377
     39 H12         5.3904    0.8167    4.2259 H         1 <0>         0.1232
     40 H13         5.1892   -1.9140    0.9784 H         1 <0>         0.1457
     41 H14         6.7087   -0.9893    0.9145 H         1 <0>         0.1379
     42 H15         7.9785   -2.6383    2.2044 H         1 <0>         0.0988
     43 H16         5.4487   -3.4710    4.8380 H         1 <0>         0.1149
     44 H17         6.0788   -4.2568    7.0849 H         1 <0>         0.1235
     45 H18         8.4499   -4.6160    7.6435 H         1 <0>         0.1250
     46 H19        10.1908   -4.1902    5.9549 H         1 <0>         0.1255
     47 H20         9.5600   -3.4123    3.7054 H         1 <0>         0.1197
     48 H21         4.6389   -3.9231    3.3122 H         1 <0>         0.1203
     49 H22         3.4430   -5.7159    2.1210 H         1 <0>         0.1262
     50 H23         4.4810   -6.8038    0.1711 H         1 <0>         0.1270
     51 H24         6.7146   -6.0982   -0.5882 H         1 <0>         0.1278
     52 H25         7.9069   -4.2997    0.5979 H         1 <0>         0.1244
     53 H26         4.2616   -0.0602    2.2347 H         1 <0>         0.4241
@<TRIPOS>BOND
     1    1    6 ar
     2    1    2 ar
     3    1   29 1
     4    2    3 ar
     5    2   30 1
     6    3    4 ar
     7    3   31 1
     8    4    5 ar
     9    4    7 1
    10    5    6 ar
    11    5   32 1
    12    6   33 1
    13    7    8 1
    14    7   34 1
    15    7   35 1
    16    8   15 1
    17    8    9 1
    18    8   53 1
    19    9   10 1
    20    9   36 1
    21    9   37 1
    22   10   11 1
    23   10   38 1
    24   10   39 1
    25   11   12 2
    26   11   13 1
    27   13   14 1
    28   13   15 1
    29   13   16 1
    30   15   40 1
    31   15   41 1
    32   16   17 1
    33   16   23 1
    34   16   42 1
    35   17   22 ar
    36   17   18 ar
    37   18   19 ar
    38   18   43 1
    39   19   20 ar
    40   19   44 1
    41   20   21 ar
    42   20   45 1
    43   21   22 ar
    44   21   46 1
    45   22   47 1
    46   23   28 ar
    47   23   24 ar
    48   24   25 ar
    49   24   48 1
    50   25   26 ar
    51   25   49 1
    52   26   27 ar
    53   26   50 1
    54   27   28 ar
    55   27   51 1
    56   28   52 1
@<TRIPOS>MOLECULE
ZINC72105511
   52    55     0     0     0
SMALL
USER_CHARGES

@<TRIPOS>ATOM
      1 C1          0.7290   -1.4051   -2.6496 C.ar      1 <0>        -0.1184
      2 C2          1.7354   -0.4588   -2.5988 C.ar      1 <0>        -0.1202
      3 C3          2.9819   -0.8011   -2.1089 C.ar      1 <0>        -0.0968
      4 C4          3.2218   -2.0895   -1.6692 C.ar      1 <0>        -0.0808
      5 C5          2.2150   -3.0355   -1.7191 C.ar      1 <0>        -0.1163
      6 C6          0.9690   -2.6936   -2.2103 C.ar      1 <0>        -0.1203
      7 C7          4.5809   -2.4629   -1.1360 C.3       1 <0>         0.0960
      8 N1          4.6211   -2.2237    0.3129 N.3       1 <0>        -0.5348
      9 C8          3.6945   -3.1169    1.0196 C.3       1 <0>         0.0546
     10 C9          3.5822   -2.6785    2.4843 C.3       1 <0>        -0.1637
     11 C10         4.9785   -2.6080    3.0664 C.2       1 <0>         0.3592
     12 O1          5.2418   -3.1327    4.1216 O.2       1 <0>        -0.4345
     13 C11         6.0336   -1.8579    2.2807 C.3       1 <0>        -0.1203
     14 H1          5.8255   -0.7884    2.3137 H         1 <0>         0.1150
     15 C12         5.9901   -2.3484    0.8289 C.3       1 <0>         0.0682
     16 C13         7.4149   -2.1334    2.8781 C.3       1 <0>         0.0050
     17 C14         8.4605   -1.3846    2.0925 C.ar      1 <0>        -0.0718
     18 C15         8.3209   -0.0266    1.8753 C.ar      1 <0>        -0.1114
     19 C16         9.2800    0.6602    1.1547 C.ar      1 <0>        -0.1159
     20 C17        10.3789   -0.0109    0.6516 C.ar      1 <0>        -0.1212
     21 C18        10.5188   -1.3687    0.8696 C.ar      1 <0>        -0.1166
     22 C19         9.5619   -2.0548    1.5939 C.ar      1 <0>        -0.1138
     23 C20         7.4417   -1.6756    4.3137 C.ar      1 <0>        -0.0562
     24 C21         7.0307   -0.3965    4.6390 C.ar      1 <0>        -0.1215
     25 C22         7.0553    0.0234    5.9558 C.ar      1 <0>        -0.1186
     26 C23         7.4904   -0.8359    6.9473 C.ar      1 <0>        -0.1236
     27 C24         7.9005   -2.1154    6.6221 C.ar      1 <0>        -0.1170
     28 C25         7.8719   -2.5367    5.3058 C.ar      1 <0>        -0.0954
     29 H2         -0.2462   -1.1365   -3.0282 H         1 <0>         0.1211
     30 H3          1.5480    0.5478   -2.9424 H         1 <0>         0.1221
     31 H4          3.7684   -0.0620   -2.0699 H         1 <0>         0.1227
     32 H5          2.4026   -4.0423   -1.3759 H         1 <0>         0.1184
     33 H6          0.1826   -3.4328   -2.2497 H         1 <0>         0.1215
     34 H7          4.7724   -3.5173   -1.3356 H         1 <0>         0.0461
     35 H8          5.3426   -1.8562   -1.6257 H         1 <0>         0.0876
     36 H9          2.7125   -3.0679    0.5492 H         1 <0>         0.0937
     37 H10         4.0692   -4.1394    0.9739 H         1 <0>         0.0395
     38 H11         3.1111   -1.6971    2.5392 H         1 <0>         0.1059
     39 H12         2.9882   -3.4036    3.0405 H         1 <0>         0.0936
     40 H13         6.3001   -3.3926    0.7886 H         1 <0>         0.0413
     41 H14         6.6642   -1.7450    0.2210 H         1 <0>         0.0911
     42 H15         7.6234   -3.2023    2.8337 H         1 <0>         0.0879
     43 H16         7.4624    0.4977    2.2683 H         1 <0>         0.1214
     44 H17         9.1706    1.7211    0.9844 H         1 <0>         0.1220
     45 H18        11.1278    0.5256    0.0880 H         1 <0>         0.1210
     46 H19        11.3772   -1.8931    0.4763 H         1 <0>         0.1218
     47 H20         9.6732   -3.1149    1.7674 H         1 <0>         0.1202
     48 H21         6.6908    0.2749    3.8644 H         1 <0>         0.1173
     49 H22         6.7349    1.0230    6.2099 H         1 <0>         0.1195
     50 H23         7.5103   -0.5076    7.9760 H         1 <0>         0.1191
     51 H24         8.2408   -2.7866    7.3967 H         1 <0>         0.1198
     52 H25         8.1888   -3.5375    5.0522 H         1 <0>         0.1166
@<TRIPOS>BOND
     1    1    6 ar
     2    1    2 ar
     3    1   29 1
     4    2    3 ar
     5    2   30 1
     6    3    4 ar
     7    3   31 1
     8    4    5 ar
     9    4    7 1
    10    5    6 ar
    11    5   32 1
    12    6   33 1
    13    7    8 1
    14    7   34 1
    15    7   35 1
    16    8   15 1
    17    8    9 1
    18    9   10 1
    19    9   36 1
    20    9   37 1
    21   10   11 1
    22   10   38 1
    23   10   39 1
    24   11   12 2
    25   11   13 1
    26   13   14 1
    27   13   15 1
    28   13   16 1
    29   15   40 1
    30   15   41 1
    31   16   17 1
    32   16   23 1
    33   16   42 1
    34   17   22 ar
    35   17   18 ar
    36   18   19 ar
    37   18   43 1
    38   19   20 ar
    39   19   44 1
    40   20   21 ar
    41   20   45 1
    42   21   22 ar
    43   21   46 1
    44   22   47 1
    45   23   28 ar
    46   23   24 ar
    47   24   25 ar
    48   24   48 1
    49   25   26 ar
    50   25   49 1
    51   26   27 ar
    52   26   50 1
    53   27   28 ar
    54   27   51 1
    55   28   52 1
@<TRIPOS>MOLECULE
ZINC72105511
   53    56     0     0     0
SMALL
USER_CHARGES

@<TRIPOS>ATOM
      1 C1          0.5882   -1.4125   -2.6750 C.ar      1 <0>        -0.0827
      2 C2          1.6013   -0.4723   -2.6494 C.ar      1 <0>        -0.1123
      3 C3          2.8510   -0.8157   -2.1686 C.ar      1 <0>        -0.0926
      4 C4          3.0875   -2.0993   -1.7131 C.ar      1 <0>        -0.1632
      5 C5          2.0742   -3.0392   -1.7379 C.ar      1 <0>        -0.0988
      6 C6          0.8249   -2.6961   -2.2200 C.ar      1 <0>        -0.1127
      7 C7          4.4502   -2.4740   -1.1900 C.3       1 <0>         0.0442
      8 N1          4.5085   -2.2142    0.2547 N.4       1 <0>        -0.3845
      9 C8          3.5548   -3.0904    0.9452 C.3       1 <0>        -0.0082
     10 C9          3.4865   -2.7043    2.4272 C.3       1 <0>        -0.1906
     11 C10         4.8925   -2.7374    2.9897 C.2       1 <0>         0.3400
     12 O1          5.1378   -3.3061    4.0263 O.2       1 <0>        -0.3792
     13 C11         5.9799   -2.0323    2.2057 C.3       1 <0>        -0.1501
     14 H1          5.8466   -0.9531    2.2808 H         1 <0>         0.1301
     15 C12         5.8707   -2.4662    0.7395 C.3       1 <0>         0.0006
     16 C13         7.3516   -2.4227    2.7598 C.3       1 <0>         0.0182
     17 C14         8.4290   -1.7183    1.9761 C.ar      1 <0>        -0.0949
     18 C15         8.3784   -0.3469    1.8101 C.ar      1 <0>        -0.1200
     19 C16         9.3667    0.2992    1.0912 C.ar      1 <0>        -0.1132
     20 C17        10.4057   -0.4261    0.5387 C.ar      1 <0>        -0.1109
     21 C18        10.4567   -1.7974    0.7055 C.ar      1 <0>        -0.1109
     22 C19         9.4708   -2.4430    1.4280 C.ar      1 <0>        -0.1100
     23 C20         7.4407   -2.0208    4.2095 C.ar      1 <0>        -0.0754
     24 C21         7.1258   -0.7295    4.5893 C.ar      1 <0>        -0.1240
     25 C22         7.2075   -0.3608    5.9191 C.ar      1 <0>        -0.1159
     26 C23         7.6037   -1.2835    6.8691 C.ar      1 <0>        -0.1127
     27 C24         7.9178   -2.5750    6.4893 C.ar      1 <0>        -0.1120
     28 C25         7.8319   -2.9449    5.1602 C.ar      1 <0>        -0.0925
     29 H2         -0.3894   -1.1429   -3.0464 H         1 <0>         0.1363
     30 H3          1.4165    0.5305   -3.0053 H         1 <0>         0.1366
     31 H4          3.6427   -0.0814   -2.1493 H         1 <0>         0.1320
     32 H5          2.2592   -4.0421   -1.3824 H         1 <0>         0.1320
     33 H6          0.0334   -3.4306   -2.2397 H         1 <0>         0.1367
     34 H7          4.6327   -3.5323   -1.3765 H         1 <0>         0.1382
     35 H8          5.2102   -1.8794   -1.6970 H         1 <0>         0.1404
     36 H9          2.5682   -2.9798    0.4952 H         1 <0>         0.1446
     37 H10         3.8815   -4.1263    0.8543 H         1 <0>         0.1354
     38 H11         3.0739   -1.7004    2.5271 H         1 <0>         0.1232
     39 H12         2.8588   -3.4156    2.9640 H         1 <0>         0.1377
     40 H13         6.0945   -3.5298    0.6578 H         1 <0>         0.1379
     41 H14         6.5811   -1.8983    0.1387 H         1 <0>         0.1457
     42 H15         7.4851   -3.5010    2.6729 H         1 <0>         0.0988
     43 H16         7.5666    0.2197    2.2418 H         1 <0>         0.1204
     44 H17         9.3268    1.3705    0.9609 H         1 <0>         0.1262
     45 H18        11.1774    0.0786   -0.0236 H         1 <0>         0.1270
     46 H19        11.2683   -2.3641    0.2735 H         1 <0>         0.1278
     47 H20         9.5126   -3.5139    1.5614 H         1 <0>         0.1244
     48 H21         6.8162   -0.0086    3.8471 H         1 <0>         0.1147
     49 H22         6.9621    0.6483    6.2157 H         1 <0>         0.1235
     50 H23         7.6683   -0.9952    7.9079 H         1 <0>         0.1250
     51 H24         8.2277   -3.2958    7.2315 H         1 <0>         0.1255
     52 H25         8.0737   -3.9549    4.8640 H         1 <0>         0.1198
     53 H26         4.2635   -1.2515    0.4314 H         1 <0>         0.4241
@<TRIPOS>BOND
     1    1    6 ar
     2    1    2 ar
     3    1   29 1
     4    2    3 ar
     5    2   30 1
     6    3    4 ar
     7    3   31 1
     8    4    5 ar
     9    4    7 1
    10    5    6 ar
    11    5   32 1
    12    6   33 1
    13    7    8 1
    14    7   34 1
    15    7   35 1
    16    8   15 1
    17    8    9 1
    18    8   53 1
    19    9   10 1
    20    9   36 1
    21    9   37 1
    22   10   11 1
    23   10   38 1
    24   10   39 1
    25   11   12 2
    26   11   13 1
    27   13   14 1
    28   13   15 1
    29   13   16 1
    30   15   40 1
    31   15   41 1
    32   16   17 1
    33   16   23 1
    34   16   42 1
    35   17   22 ar
    36   17   18 ar
    37   18   19 ar
    38   18   43 1
    39   19   20 ar
    40   19   44 1
    41   20   21 ar
    42   20   45 1
    43   21   22 ar
    44   21   46 1
    45   22   47 1
    46   23   28 ar
    47   23   24 ar
    48   24   25 ar
    49   24   48 1
    50   25   26 ar
    51   25   49 1
    52   26   27 ar
    53   26   50 1
    54   27   28 ar
    55   27   51 1
    56   28   52 1
@<TRIPOS>MOLECULE
ZINC12368102
   35    37     0     0     0
SMALL
USER_CHARGES
3,5-dichloro-N-[[3-(2,6-dichlorophenyl)-5-methyl-isoxazol-4-yl]methyleneamino]pyridin-4-amine
@<TRIPOS>ATOM
      1 C1         -1.2494    8.2201   -2.3102 C.3       1 <0>        -0.0713
      2 C2         -0.7108    6.9363   -1.7332 C.2       1 <0>         0.0253
      3 C3         -1.4196    5.9861   -1.0475 C.2       1 <0>        -0.1481
      4 C4         -0.3921    4.9736   -0.7291 C.2       1 <0>         0.0725
      5 N1          0.7176    5.4354   -1.2498 N.2       1 <0>        -0.3184
      6 O1          0.5533    6.4989   -1.7958 O.3       1 <0>         0.1067
      7 C5         -0.5783    3.7045    0.0143 C.ar      1 <0>        -0.0065
      8 C6         -1.1205    3.7186    1.2995 C.ar      1 <0>        -0.0082
      9 C7         -1.2918    2.5326    1.9867 C.ar      1 <0>        -0.1052
     10 C8         -0.9273    1.3328    1.4030 C.ar      1 <0>        -0.0802
     11 C9         -0.3839    1.3126    0.1313 C.ar      1 <0>        -0.1046
     12 C10        -0.2123    2.4911   -0.5686 C.ar      1 <0>        -0.0023
     13 Cl1         0.4628    2.4629   -2.1677 Cl        1 <0>        -0.0377
     14 Cl2        -1.5796    5.2233    2.0334 Cl        1 <0>        -0.0421
     15 C11        -2.8543    5.9774   -0.7079 C.2       1 <0>         0.1456
     16 N2         -3.6074    6.9791   -1.0460 N.2       1 <0>        -0.2175
     17 N3         -4.9908    6.9187   -0.8328 N.pl3     1 <0>        -0.5767
     18 C12        -5.7986    7.9911   -1.1987 C.ar      1 <0>         0.2687
     19 C13        -5.3444    9.3053   -1.0746 C.ar      1 <0>        -0.1143
     20 C14        -6.1748   10.3401   -1.4544 C.ar      1 <0>         0.1438
     21 N4         -7.3869   10.0998   -1.9186 N.ar      1 <0>        -0.4759
     22 C15        -7.8555    8.8723   -2.0456 C.ar      1 <0>         0.1482
     23 C16        -7.0868    7.7814   -1.6942 C.ar      1 <0>        -0.1322
     24 Cl3        -7.7126    6.1712   -1.8663 Cl        1 <0>        -0.0402
     25 Cl4        -3.7549    9.6329   -0.4584 Cl        1 <0>        -0.0247
     26 H1         -0.4677    8.7160   -2.8856 H         1 <0>         0.0856
     27 H2         -2.0951    7.9991   -2.9613 H         1 <0>         0.0992
     28 H3         -1.5750    8.8737   -1.5009 H         1 <0>         0.0943
     29 H4         -1.7115    2.5421    2.9817 H         1 <0>         0.1479
     30 H5         -1.0636    0.4082    1.9442 H         1 <0>         0.1494
     31 H6         -0.0972    0.3729   -0.3173 H         1 <0>         0.1482
     32 H7         -3.2786    5.1375   -0.1778 H         1 <0>         0.1227
     33 H8         -5.3855    6.1294   -0.4302 H         1 <0>         0.3981
     34 H9         -5.8302   11.3598   -1.3665 H         1 <0>         0.1746
     35 H10        -8.8533    8.7197   -2.4298 H         1 <0>         0.1754
@<TRIPOS>BOND
     1    1    2 1
     2    1   26 1
     3    1   27 1
     4    1   28 1
     5    2    6 1
     6    2    3 2
     7    3    4 1
     8    3   15 1
     9    4    5 2
    10    4    7 1
    11    5    6 1
    12    7   12 ar
    13    7    8 ar
    14    8    9 ar
    15    8   14 1
    16    9   10 ar
    17    9   29 1
    18   10   11 ar
    19   10   30 1
    20   11   12 ar
    21   11   31 1
    22   12   13 1
    23   15   16 2
    24   15   32 1
    25   16   17 1
    26   17   18 1
    27   17   33 1
    28   18   23 ar
    29   18   19 ar
    30   19   20 ar
    31   19   25 1
    32   20   21 ar
    33   20   34 1
    34   21   22 ar
    35   22   23 ar
    36   22   35 1
    37   23   24 1
@<TRIPOS>MOLECULE
ZINC19364273
   61    65     0     0     0
SMALL
USER_CHARGES

@<TRIPOS>ATOM
      1 C1          0.8161    1.5362   -2.0123 C.ar      1 <0>        -0.0870
      2 C2          1.9595    2.2097   -1.6249 C.ar      1 <0>        -0.1007
      3 C3          3.0145    1.5146   -1.0641 C.ar      1 <0>        -0.1072
      4 C4          2.9261    0.1461   -0.8901 C.ar      1 <0>        -0.1404
      5 C5          1.7823   -0.5273   -1.2766 C.ar      1 <0>        -0.1226
      6 C6          0.7278    0.1676   -1.8388 C.ar      1 <0>        -0.1010
      7 C7          4.0767   -0.6118   -0.2796 C.3       1 <0>        -0.0267
      8 C8          3.6499   -1.1922    1.0441 C.ar      1 <0>        -0.1481
      9 C9          4.0599   -0.5988    2.2234 C.ar      1 <0>        -0.1317
     10 C10         3.6685   -1.1312    3.4375 C.ar      1 <0>        -0.0902
     11 C11         2.8667   -2.2567    3.4724 C.ar      1 <0>        -0.0792
     12 C12         2.4559   -2.8496    2.2932 C.ar      1 <0>        -0.0956
     13 C13         2.8439   -2.3147    1.0790 C.ar      1 <0>        -0.1090
     14 C14         4.4988   -1.7425   -1.2199 C.3       1 <0>         0.0140
     15 H1          3.7407   -2.5256   -1.2071 H         1 <0>         0.1764
     16 C15         5.8351   -2.3217   -0.7498 C.3       1 <0>         0.0194
     17 H2          5.7132   -3.3798   -0.5181 H         1 <0>         0.1779
     18 C16         6.8683   -2.1567   -1.8720 C.3       1 <0>        -0.1191
     19 C17         6.3496   -2.8859   -3.1184 C.3       1 <0>        -0.1317
     20 C18         4.9968   -2.2886   -3.5124 C.3       1 <0>        -0.0175
     21 N1          4.6331   -1.2181   -2.5810 N.4       1 <0>        -0.3707
     22 C19         5.6212   -0.1375   -2.6222 C.3       1 <0>        -0.0277
     23 C20         6.9906   -0.6631   -2.2015 C.3       1 <0>        -0.1549
     24 N2          6.2880   -1.6041    0.4493 N.4       1 <0>        -0.5164
     25 C21         7.5850   -2.1419    0.8811 C.3       1 <0>         0.0232
     26 C22         7.9846   -1.5027    2.1860 C.ar      1 <0>        -0.1421
     27 C23         8.8491   -0.4239    2.1912 C.ar      1 <0>        -0.0823
     28 C24         9.2157    0.1625    3.3879 C.ar      1 <0>        -0.0913
     29 C25         8.7178   -0.3297    4.5802 C.ar      1 <0>        -0.0690
     30 C26         7.8536   -1.4081    4.5757 C.ar      1 <0>        -0.0758
     31 C27         7.4821   -1.9915    3.3778 C.ar      1 <0>        -0.0895
     32 I1          6.1652   -3.6208    3.3699 I         1 <0>        -0.0195
     33 H3         -0.0100    2.0799   -2.4463 H         1 <0>         0.1401
     34 H4          2.0286    3.2789   -1.7608 H         1 <0>         0.1397
     35 H5          3.9081    2.0407   -0.7621 H         1 <0>         0.1286
     36 H6          1.7135   -1.5966   -1.1414 H         1 <0>         0.1267
     37 H7         -0.1656   -0.3585   -2.1411 H         1 <0>         0.1392
     38 H8          4.9168    0.0654   -0.1254 H         1 <0>         0.0977
     39 H9          4.6863    0.2806    2.1961 H         1 <0>         0.1289
     40 H10         3.9893   -0.6680    4.3589 H         1 <0>         0.1401
     41 H11         2.5614   -2.6731    4.4211 H         1 <0>         0.1420
     42 H12         1.8298   -3.7292    2.3204 H         1 <0>         0.1410
     43 H13         2.5199   -2.7757    0.1576 H         1 <0>         0.1280
     44 H14         7.8334   -2.5545   -1.5583 H         1 <0>         0.1467
     45 H15         7.0576   -2.7584   -3.9373 H         1 <0>         0.1272
     46 H16         6.2302   -3.9466   -2.8979 H         1 <0>         0.1170
     47 H17         5.0607   -1.8833   -4.5222 H         1 <0>         0.1496
     48 H18         4.2355   -3.0682   -3.4850 H         1 <0>         0.1430
     49 H19         5.6837    0.2569   -3.6364 H         1 <0>         0.1546
     50 H20         5.3145    0.6591   -1.9444 H         1 <0>         0.1348
     51 H21         7.3335   -0.1215   -1.3199 H         1 <0>         0.0934
     52 H22         7.7014   -0.5258   -3.0164 H         1 <0>         0.1367
     53 H23         6.3847   -0.6224    0.2374 H         1 <0>         0.4205
     54 H24         7.5048   -3.2207    1.0145 H         1 <0>         0.1460
     55 H25         8.3386   -1.9244    0.1242 H         1 <0>         0.1538
     56 H26         9.2384   -0.0395    1.2600 H         1 <0>         0.1425
     57 H27         9.8913    1.0050    3.3918 H         1 <0>         0.1492
     58 H28         9.0047    0.1284    5.5153 H         1 <0>         0.1509
     59 H29         7.4653   -1.7929    5.5071 H         1 <0>         0.1468
     60 H30         3.7430   -0.8379   -2.8659 H         1 <0>         0.4399
     61 H31         5.6115   -1.7236    1.1884 H         1 <0>         0.4316
@<TRIPOS>BOND
     1    1    6 ar
     2    1    2 ar
     3    1   33 1
     4    2    3 ar
     5    2   34 1
     6    3    4 ar
     7    3   35 1
     8    4    5 ar
     9    4    7 1
    10    5    6 ar
    11    5   36 1
    12    6   37 1
    13    7    8 1
    14    7   14 1
    15    7   38 1
    16    8   13 ar
    17    8    9 ar
    18    9   10 ar
    19    9   39 1
    20   10   11 ar
    21   10   40 1
    22   11   12 ar
    23   11   41 1
    24   12   13 ar
    25   12   42 1
    26   13   43 1
    27   14   15 1
    28   14   21 1
    29   14   16 1
    30   16   17 1
    31   16   18 1
    32   16   24 1
    33   18   23 1
    34   18   19 1
    35   18   44 1
    36   19   20 1
    37   19   45 1
    38   19   46 1
    39   20   21 1
    40   20   47 1
    41   20   48 1
    42   21   22 1
    43   21   60 1
    44   22   23 1
    45   22   49 1
    46   22   50 1
    47   23   51 1
    48   23   52 1
    49   24   25 1
    50   24   53 1
    51   24   61 1
    52   25   26 1
    53   25   54 1
    54   25   55 1
    55   26   31 ar
    56   26   27 ar
    57   27   28 ar
    58   27   56 1
    59   28   29 ar
    60   28   57 1
    61   29   30 ar
    62   29   58 1
    63   30   31 ar
    64   30   59 1
    65   31   32 1
@<TRIPOS>MOLECULE
ZINC19364273
   60    64     0     0     0
SMALL
USER_CHARGES

@<TRIPOS>ATOM
      1 C1          0.7694    1.4937   -1.9807 C.ar      1 <0>        -0.1107
      2 C2          1.9016    2.1804   -1.5837 C.ar      1 <0>        -0.1123
      3 C3          2.9667    1.4954   -1.0295 C.ar      1 <0>        -0.1148
      4 C4          2.8995    0.1237   -0.8720 C.ar      1 <0>        -0.0585
      5 C5          1.7670   -0.5629   -1.2682 C.ar      1 <0>        -0.0944
      6 C6          0.7025    0.1220   -1.8236 C.ar      1 <0>        -0.1115
      7 C7          4.0611   -0.6233   -0.2688 C.3       1 <0>        -0.0149
      8 C8          3.6468   -1.2118    1.0552 C.ar      1 <0>        -0.1281
      9 C9          4.0590   -0.6195    2.2342 C.ar      1 <0>        -0.1415
     10 C10         3.6790   -1.1593    3.4487 C.ar      1 <0>        -0.0970
     11 C11         2.8863   -2.2913    3.4842 C.ar      1 <0>        -0.0951
     12 C12         2.4733   -2.8831    2.3052 C.ar      1 <0>        -0.1020
     13 C13         2.8498   -2.3407    1.0907 C.ar      1 <0>        -0.1053
     14 C14         4.4912   -1.7468   -1.2141 C.3       1 <0>         0.0795
     15 H1          3.7430   -2.5394   -1.2011 H         1 <0>         0.1264
     16 C15         5.8401   -2.3101   -0.7578 C.3       1 <0>        -0.0065
     17 H2          5.7350   -3.3710   -0.5307 H         1 <0>         0.1435
     18 C16         6.8614   -2.1250   -1.8872 C.3       1 <0>        -0.1043
     19 C17         6.3505   -2.8584   -3.1338 C.3       1 <0>        -0.1465
     20 C18         4.9878   -2.2793   -3.5246 C.3       1 <0>         0.0439
     21 N1          4.6202   -1.2170   -2.5783 N.3       1 <0>        -0.4972
     22 C19         5.5881   -0.1124   -2.6263 C.3       1 <0>         0.0358
     23 C20         6.9688   -0.6291   -2.2093 C.3       1 <0>        -0.1684
     24 N2          6.2930   -1.5925    0.4414 N.4       1 <0>        -0.5099
     25 C21         7.5967   -2.1205    0.8648 C.3       1 <0>         0.0220
     26 C22         7.9970   -1.4827    2.1702 C.ar      1 <0>        -0.1313
     27 C23         8.8536   -0.3977    2.1754 C.ar      1 <0>        -0.0846
     28 C24         9.2208    0.1874    3.3726 C.ar      1 <0>        -0.0934
     29 C25         8.7316   -0.3123    4.5653 C.ar      1 <0>        -0.0784
     30 C26         7.8752   -1.3970    4.5607 C.ar      1 <0>        -0.0780
     31 C27         7.5031   -1.9791    3.3625 C.ar      1 <0>        -0.0893
     32 I1          6.1981   -3.6180    3.3545 I         1 <0>        -0.0197
     33 H3         -0.0645    2.0295   -2.4095 H         1 <0>         0.1245
     34 H4          1.9540    3.2521   -1.7068 H         1 <0>         0.1242
     35 H5          3.8515    2.0318   -0.7200 H         1 <0>         0.1146
     36 H6          1.7148   -1.6347   -1.1458 H         1 <0>         0.1157
     37 H7         -0.1822   -0.4145   -2.1335 H         1 <0>         0.1241
     38 H8          4.8945    0.0625   -0.1167 H         1 <0>         0.0737
     39 H9          4.6783    0.2649    2.2065 H         1 <0>         0.1229
     40 H10         4.0017   -0.6969    4.3699 H         1 <0>         0.1313
     41 H11         2.5900   -2.7135    4.4331 H         1 <0>         0.1330
     42 H12         1.8543   -3.7677    2.3329 H         1 <0>         0.1334
     43 H13         2.5240   -2.8010    0.1696 H         1 <0>         0.1307
     44 H14         7.8329   -2.5133   -1.5814 H         1 <0>         0.1050
     45 H15         7.0551   -2.7194   -3.9537 H         1 <0>         0.0917
     46 H16         6.2466   -3.9212   -2.9153 H         1 <0>         0.0816
     47 H17         5.0436   -1.8660   -4.5316 H         1 <0>         0.0958
     48 H18         4.2358   -3.0679   -3.4959 H         1 <0>         0.0896
     49 H19         5.6385    0.2831   -3.6408 H         1 <0>         0.0988
     50 H20         5.2736    0.6766   -1.9432 H         1 <0>         0.0863
     51 H21         7.3096   -0.0889   -1.3260 H         1 <0>         0.0590
     52 H22         7.6758   -0.4811   -3.0255 H         1 <0>         0.0999
     53 H23         6.3802   -0.6093    0.2321 H         1 <0>         0.4192
     54 H24         7.5266   -3.2005    0.9946 H         1 <0>         0.1386
     55 H25         8.3447   -1.8937    0.1052 H         1 <0>         0.1474
     56 H26         9.2363   -0.0073    1.2439 H         1 <0>         0.1416
     57 H27         9.8903    1.0348    3.3765 H         1 <0>         0.1455
     58 H28         9.0189    0.1448    5.5007 H         1 <0>         0.1466
     59 H29         7.4936   -1.7877    5.4925 H         1 <0>         0.1435
     60 H30         5.6213   -1.7202    1.1834 H         1 <0>         0.4245
@<TRIPOS>BOND
     1    1    6 ar
     2    1    2 ar
     3    1   33 1
     4    2    3 ar
     5    2   34 1
     6    3    4 ar
     7    3   35 1
     8    4    5 ar
     9    4    7 1
    10    5    6 ar
    11    5   36 1
    12    6   37 1
    13    7    8 1
    14    7   14 1
    15    7   38 1
    16    8   13 ar
    17    8    9 ar
    18    9   10 ar
    19    9   39 1
    20   10   11 ar
    21   10   40 1
    22   11   12 ar
    23   11   41 1
    24   12   13 ar
    25   12   42 1
    26   13   43 1
    27   14   15 1
    28   14   21 1
    29   14   16 1
    30   16   17 1
    31   16   18 1
    32   16   24 1
    33   18   23 1
    34   18   19 1
    35   18   44 1
    36   19   20 1
    37   19   45 1
    38   19   46 1
    39   20   21 1
    40   20   47 1
    41   20   48 1
    42   21   22 1
    43   22   23 1
    44   22   49 1
    45   22   50 1
    46   23   51 1
    47   23   52 1
    48   24   25 1
    49   24   53 1
    50   24   60 1
    51   25   26 1
    52   25   54 1
    53   25   55 1
    54   26   31 ar
    55   26   27 ar
    56   27   28 ar
    57   27   56 1
    58   28   29 ar
    59   28   57 1
    60   29   30 ar
    61   29   58 1
    62   30   31 ar
    63   30   59 1
    64   31   32 1
@<TRIPOS>MOLECULE
ZINC19364273
   60    64     0     0     0
SMALL
USER_CHARGES

@<TRIPOS>ATOM
      1 C1          1.2139   -3.7091   -4.9415 C.ar      1 <0>        -0.1069
      2 C2          1.0338   -2.7597   -3.9530 C.ar      1 <0>        -0.0997
      3 C3          1.9450   -2.6576   -2.9185 C.ar      1 <0>        -0.1119
      4 C4          3.0360   -3.5052   -2.8722 C.ar      1 <0>        -0.1134
      5 C5          3.2156   -4.4552   -3.8602 C.ar      1 <0>        -0.1551
      6 C6          2.3052   -4.5563   -4.8955 C.ar      1 <0>        -0.1014
      7 C7          4.0299   -3.3933   -1.7449 C.3       1 <0>        -0.0242
      8 C8          4.0116   -4.6617   -0.9314 C.ar      1 <0>        -0.0767
      9 C9          3.3205   -4.7056    0.2650 C.ar      1 <0>        -0.1013
     10 C10         3.3037   -5.8690    1.0113 C.ar      1 <0>        -0.1098
     11 C11         3.9777   -6.9888    0.5610 C.ar      1 <0>        -0.1092
     12 C12         4.6680   -6.9452   -0.6359 C.ar      1 <0>        -0.1102
     13 C13         4.6812   -5.7831   -1.3842 C.ar      1 <0>        -0.1299
     14 C14         5.4310   -3.1764   -2.3200 C.3       1 <0>         0.0389
     15 H1          5.9334   -4.1384   -2.4210 H         1 <0>         0.1350
     16 C15         6.2347   -2.2806   -1.3748 C.3       1 <0>         0.0738
     17 H2          7.1204   -2.8145   -1.0304 H         1 <0>         0.0870
     18 C16         6.6592   -1.0159   -2.1328 C.3       1 <0>        -0.1032
     19 C17         7.4940   -1.4380   -3.3491 C.3       1 <0>        -0.1334
     20 C18         6.6499   -2.3610   -4.2308 C.3       1 <0>        -0.0096
     21 N1          5.3234   -2.5436   -3.6367 N.4       1 <0>        -0.3721
     22 C19         4.6193   -1.2630   -3.5374 C.3       1 <0>        -0.0195
     23 C20         5.3953   -0.3066   -2.6366 C.3       1 <0>        -0.1312
     24 N2          5.4034   -1.9107   -0.2215 N.3       1 <0>        -0.6704
     25 C21         5.4658   -2.9405    0.8243 C.3       1 <0>         0.0778
     26 C22         6.4832   -2.5417    1.8620 C.ar      1 <0>        -0.0965
     27 C23         7.4656   -3.4354    2.2461 C.ar      1 <0>        -0.1065
     28 C24         8.3988   -3.0697    3.1978 C.ar      1 <0>        -0.0927
     29 C25         8.3502   -1.8101    3.7659 C.ar      1 <0>        -0.1091
     30 C26         7.3684   -0.9163    3.3823 C.ar      1 <0>        -0.0778
     31 C27         6.4378   -1.2800    2.4258 C.ar      1 <0>        -0.1096
     32 I1          4.9546    0.0776    1.8376 I         1 <0>        -0.0233
     33 H3          0.4996   -3.7918   -5.7474 H         1 <0>         0.1331
     34 H4          0.1814   -2.0975   -3.9891 H         1 <0>         0.1344
     35 H5          1.8047   -1.9155   -2.1465 H         1 <0>         0.1348
     36 H6          4.0684   -5.1170   -3.8245 H         1 <0>         0.1252
     37 H7          2.4457   -5.2983   -5.6677 H         1 <0>         0.1326
     38 H8          3.7637   -2.5495   -1.1084 H         1 <0>         0.1561
     39 H9          2.7940   -3.8307    0.6169 H         1 <0>         0.1277
     40 H10         2.7644   -5.9031    1.9464 H         1 <0>         0.1282
     41 H11         3.9652   -7.8976    1.1444 H         1 <0>         0.1270
     42 H12         5.1949   -7.8200   -0.9875 H         1 <0>         0.1256
     43 H13         5.2174   -5.7501   -2.3211 H         1 <0>         0.1133
     44 H14         7.2271   -0.3555   -1.4775 H         1 <0>         0.1138
     45 H15         7.7839   -0.5544   -3.9176 H         1 <0>         0.1047
     46 H16         8.3856   -1.9679   -3.0140 H         1 <0>         0.0994
     47 H17         6.5447   -1.9182   -5.2213 H         1 <0>         0.1310
     48 H18         7.1445   -3.3282   -4.3196 H         1 <0>         0.1274
     49 H19         4.5248   -0.8243   -4.5307 H         1 <0>         0.1243
     50 H20         3.6256   -1.4280   -3.1208 H         1 <0>         0.1405
     51 H21         4.7739   -0.0208   -1.7878 H         1 <0>         0.1043
     52 H22         5.6759    0.5820   -3.2020 H         1 <0>         0.0988
     53 H23         4.4875   -3.0407    1.2944 H         1 <0>         0.1070
     54 H24         5.7544   -3.8929    0.3796 H         1 <0>         0.0933
     55 H25         7.5036   -4.4195    1.8028 H         1 <0>         0.1300
     56 H26         9.1659   -3.7681    3.4981 H         1 <0>         0.1338
     57 H27         9.0793   -1.5248    4.5098 H         1 <0>         0.1364
     58 H28         7.3301    0.0673    3.8265 H         1 <0>         0.1337
     59 H29         4.7861   -3.1492   -4.2390 H         1 <0>         0.4187
     60 H30         5.6713   -1.0087    0.1429 H         1 <0>         0.3566
@<TRIPOS>BOND
     1    1    6 ar
     2    1    2 ar
     3    1   33 1
     4    2    3 ar
     5    2   34 1
     6    3    4 ar
     7    3   35 1
     8    4    5 ar
     9    4    7 1
    10    5    6 ar
    11    5   36 1
    12    6   37 1
    13    7    8 1
    14    7   14 1
    15    7   38 1
    16    8   13 ar
    17    8    9 ar
    18    9   10 ar
    19    9   39 1
    20   10   11 ar
    21   10   40 1
    22   11   12 ar
    23   11   41 1
    24   12   13 ar
    25   12   42 1
    26   13   43 1
    27   14   15 1
    28   14   21 1
    29   14   16 1
    30   16   17 1
    31   16   18 1
    32   16   24 1
    33   18   23 1
    34   18   19 1
    35   18   44 1
    36   19   20 1
    37   19   45 1
    38   19   46 1
    39   20   21 1
    40   20   47 1
    41   20   48 1
    42   21   22 1
    43   21   59 1
    44   22   23 1
    45   22   49 1
    46   22   50 1
    47   23   51 1
    48   23   52 1
    49   24   25 1
    50   24   60 1
    51   25   26 1
    52   25   53 1
    53   25   54 1
    54   26   31 ar
    55   26   27 ar
    56   27   28 ar
    57   27   55 1
    58   28   29 ar
    59   28   56 1
    60   29   30 ar
    61   29   57 1
    62   30   31 ar
    63   30   58 1
    64   31   32 1
@<TRIPOS>MOLECULE
ZINC03809445
   48    50     0     0     0
SMALL
USER_CHARGES

@<TRIPOS>ATOM
      1 C1         -0.0167    1.3781    0.0096 C.ar      1 <0>        -0.0880
      2 C2          1.1709    2.0855    0.0021 C.ar      1 <0>        -0.1087
      3 C3          2.3773    1.4107   -0.0130 C.ar      1 <0>        -0.0885
      4 C4          2.3960    0.0285   -0.0201 C.ar      1 <0>        -0.1484
      5 C5          1.2084   -0.6789   -0.0117 C.ar      1 <0>        -0.1020
      6 C6          0.0021   -0.0041    0.0020 C.ar      1 <0>        -0.1094
      7 C7          3.7112   -0.7071   -0.0376 C.3       1 <0>         0.0919
      8 H1          4.4957   -0.0396   -0.3940 H         1 <0>         0.1544
      9 C8          4.0491   -1.1802    1.3779 C.3       1 <0>         0.0756
     10 H2          4.1245   -0.3187    2.0413 H         1 <0>         0.1095
     11 C9          5.3860   -1.9268    1.3551 C.3       1 <0>        -0.1581
     12 C10         5.2940   -3.0883    0.3614 C.3       1 <0>        -0.1433
     13 C11         4.9100   -2.5445   -1.0164 C.3       1 <0>        -0.0071
     14 N1          3.6112   -1.8657   -0.9332 N.4       1 <0>        -0.5024
     15 O1          3.0210   -2.0550    1.8467 O.3       1 <0>        -0.3813
     16 C12         2.8340   -2.0255    3.2631 C.3       1 <0>         0.1115
     17 C13         1.7321   -2.9803    3.6443 C.ar      1 <0>        -0.1022
     18 C14         0.4220   -2.5414    3.6892 C.ar      1 <0>        -0.0155
     19 C15        -0.5887   -3.4173    4.0389 C.ar      1 <0>        -0.1818
     20 C16        -0.2894   -4.7320    4.3432 C.ar      1 <0>        -0.0098
     21 C17         1.0206   -5.1711    4.2975 C.ar      1 <0>        -0.1815
     22 C18         2.0308   -4.2964    3.9437 C.ar      1 <0>        -0.0150
     23 C19         1.3469   -6.6044    4.6298 C.3       1 <0>         0.5112
     24 F1          0.1695   -7.2883    4.9509 F         1 <0>        -0.1691
     25 F2          1.9532   -7.2127    3.5254 F         1 <0>        -0.1721
     26 F3          2.2209   -6.6426    5.7214 F         1 <0>        -0.1689
     27 C20        -2.0168   -2.9386    4.0888 C.3       1 <0>         0.5110
     28 F4         -2.6130   -3.1187    2.8361 F         1 <0>        -0.1710
     29 F5         -2.7210   -3.6715    5.0501 F         1 <0>        -0.1681
     30 F6         -2.0421   -1.5812    4.4264 F         1 <0>        -0.1714
     31 H3         -0.9591    1.9053    0.0259 H         1 <0>         0.1350
     32 H4          1.1563    3.1654    0.0076 H         1 <0>         0.1363
     33 H5          3.3051    1.9634   -0.0196 H         1 <0>         0.1323
     34 H6          1.2231   -1.7588   -0.0176 H         1 <0>         0.1219
     35 H7         -0.9258   -0.5567    0.0082 H         1 <0>         0.1339
     36 H8          6.1788   -1.2452    1.0468 H         1 <0>         0.0944
     37 H9          5.6038   -2.3148    2.3502 H         1 <0>         0.0982
     38 H10         6.2593   -3.5907    0.2983 H         1 <0>         0.1135
     39 H11         4.5361   -3.7958    0.6977 H         1 <0>         0.0948
     40 H12         5.6687   -1.8374   -1.3517 H         1 <0>         0.1316
     41 H13         4.8438   -3.3689   -1.7263 H         1 <0>         0.1361
     42 H14         2.9193   -2.5073   -0.5755 H         1 <0>         0.4310
     43 H15         3.7588   -2.3218    3.7580 H         1 <0>         0.0774
     44 H16         2.5634   -1.0161    3.5729 H         1 <0>         0.0774
     45 H17         0.1882   -1.5142    3.4514 H         1 <0>         0.1481
     46 H18        -1.0790   -5.4161    4.6171 H         1 <0>         0.1585
     47 H19         3.0538   -4.6404    3.9043 H         1 <0>         0.1471
     48 H20         3.3357   -1.5557   -1.8530 H         1 <0>         0.4310
@<TRIPOS>BOND
     1    1    6 ar
     2    1    2 ar
     3    1   31 1
     4    2    3 ar
     5    2   32 1
     6    3    4 ar
     7    3   33 1
     8    4    5 ar
     9    4    7 1
    10    5    6 ar
    11    5   34 1
    12    6   35 1
    13    7    8 1
    14    7   14 1
    15    7    9 1
    16    9   10 1
    17    9   11 1
    18    9   15 1
    19   11   12 1
    20   11   36 1
    21   11   37 1
    22   12   13 1
    23   12   38 1
    24   12   39 1
    25   13   14 1
    26   13   40 1
    27   13   41 1
    28   14   42 1
    29   14   48 1
    30   15   16 1
    31   16   17 1
    32   16   43 1
    33   16   44 1
    34   17   22 ar
    35   17   18 ar
    36   18   19 ar
    37   18   45 1
    38   19   20 ar
    39   19   27 1
    40   20   21 ar
    41   20   46 1
    42   21   22 ar
    43   21   23 1
    44   22   47 1
    45   23   24 1
    46   23   25 1
    47   23   26 1
    48   27   28 1
    49   27   29 1
    50   27   30 1
@<TRIPOS>MOLECULE
ZINC38334036
   61    65     0     0     0
SMALL
USER_CHARGES

@<TRIPOS>ATOM
      1 C1          6.3735    1.8351   -2.2195 C.ar      1 <0>        -0.0842
      2 C2          6.4899    1.7002   -0.8486 C.ar      1 <0>        -0.0950
      3 C3          5.6237    0.8721   -0.1596 C.ar      1 <0>        -0.1276
      4 C4          4.6408    0.1792   -0.8413 C.ar      1 <0>        -0.1509
      5 C5          4.5238    0.3148   -2.2120 C.ar      1 <0>        -0.1121
      6 C6          5.3909    1.1418   -2.9012 C.ar      1 <0>        -0.0960
      7 C7          3.6971   -0.7243   -0.0902 C.3       1 <0>        -0.0292
      8 C8          2.3753   -0.0253    0.0977 C.ar      1 <0>        -0.1410
      9 C9          1.9476    0.3147    1.3675 C.ar      1 <0>        -0.1066
     10 C10         0.7351    0.9558    1.5399 C.ar      1 <0>        -0.1016
     11 C11        -0.0495    1.2574    0.4424 C.ar      1 <0>        -0.0866
     12 C12         0.3786    0.9182   -0.8274 C.ar      1 <0>        -0.1024
     13 C13         1.5931    0.2809   -1.0001 C.ar      1 <0>        -0.1191
     14 C14         3.4837   -2.0135   -0.8859 C.3       1 <0>         0.0145
     15 H1          3.1921   -1.7647   -1.9063 H         1 <0>         0.1770
     16 C15         4.7865   -2.8160   -0.9115 C.3       1 <0>         0.0218
     17 H2          5.1113   -2.9524   -1.9429 H         1 <0>         0.1811
     18 C16         4.5372   -4.1853   -0.2655 C.3       1 <0>        -0.1203
     19 C17         4.0461   -3.9606    1.1707 C.3       1 <0>        -0.1585
     20 C18         2.7671   -3.1213    1.1294 C.3       1 <0>        -0.0266
     21 N1          2.4229   -2.8034   -0.2562 N.4       1 <0>        -0.3699
     22 C19         2.1694   -4.0277   -1.0194 C.3       1 <0>        -0.0175
     23 C20         3.4267   -4.8957   -1.0507 C.3       1 <0>        -0.1312
     24 N2          5.8231   -2.0957   -0.1601 N.4       1 <0>        -0.5179
     25 C21         7.0776   -2.8590   -0.2018 C.3       1 <0>         0.0311
     26 C22         8.1410   -2.1201    0.5689 C.ar      1 <0>        -0.1622
     27 C23         9.0767   -1.3560   -0.1030 C.ar      1 <0>        -0.0715
     28 C24        10.0522   -0.6782    0.6038 C.ar      1 <0>        -0.1016
     29 C25        10.0927   -0.7640    1.9832 C.ar      1 <0>        -0.0621
     30 C26         9.1579   -1.5276    2.6560 C.ar      1 <0>        -0.0974
     31 C27         8.1776   -2.2018    1.9494 C.ar      1 <0>        -0.0245
     32 Cl1         6.9989   -3.1559    2.7943 Cl        1 <0>        -0.0621
     33 H3          7.0474    2.4855   -2.7572 H         1 <0>         0.1443
     34 H4          7.2578    2.2416   -0.3161 H         1 <0>         0.1434
     35 H5          5.7151    0.7662    0.9113 H         1 <0>         0.1330
     36 H6          3.7563   -0.2271   -2.7446 H         1 <0>         0.1304
     37 H7          5.2998    1.2474   -3.9722 H         1 <0>         0.1438
     38 H8          4.1226   -0.9648    0.8841 H         1 <0>         0.1000
     39 H9          2.5605    0.0791    2.2249 H         1 <0>         0.1281
     40 H10         0.4006    1.2208    2.5320 H         1 <0>         0.1394
     41 H11        -0.9971    1.7576    0.5772 H         1 <0>         0.1398
     42 H12        -0.2345    1.1534   -1.6848 H         1 <0>         0.1388
     43 H13         1.9293    0.0192   -1.9926 H         1 <0>         0.1259
     44 H14         5.4498   -4.7810   -0.2791 H         1 <0>         0.1465
     45 H15         3.8371   -4.9220    1.6399 H         1 <0>         0.1363
     46 H16         4.8112   -3.4328    1.7400 H         1 <0>         0.0876
     47 H17         1.9515   -3.6822    1.5857 H         1 <0>         0.1557
     48 H18         2.9232   -2.1967    1.6851 H         1 <0>         0.1340
     49 H19         1.3583   -4.5848   -0.5506 H         1 <0>         0.1492
     50 H20         1.8845   -3.7662   -2.0385 H         1 <0>         0.1434
     51 H21         3.7453   -5.0421   -2.0827 H         1 <0>         0.1176
     52 H22         3.2149   -5.8612   -0.5913 H         1 <0>         0.1262
     53 H23         5.9684   -1.1871   -0.5740 H         1 <0>         0.4339
     54 H24         6.9206   -3.8406    0.2453 H         1 <0>         0.1440
     55 H25         7.3961   -2.9782   -1.2374 H         1 <0>         0.1541
     56 H26         9.0458   -1.2888   -1.1805 H         1 <0>         0.1447
     57 H27        10.7832   -0.0816    0.0784 H         1 <0>         0.1494
     58 H28        10.8553   -0.2344    2.5349 H         1 <0>         0.1523
     59 H29         9.1898   -1.5948    3.7334 H         1 <0>         0.1519
     60 H30         1.5754   -2.2559   -0.2544 H         1 <0>         0.4403
     61 H31         5.5283   -1.9854    0.7985 H         1 <0>         0.4161
@<TRIPOS>BOND
     1    1    6 ar
     2    1    2 ar
     3    1   33 1
     4    2    3 ar
     5    2   34 1
     6    3    4 ar
     7    3   35 1
     8    4    5 ar
     9    4    7 1
    10    5    6 ar
    11    5   36 1
    12    6   37 1
    13    7    8 1
    14    7   14 1
    15    7   38 1
    16    8   13 ar
    17    8    9 ar
    18    9   10 ar
    19    9   39 1
    20   10   11 ar
    21   10   40 1
    22   11   12 ar
    23   11   41 1
    24   12   13 ar
    25   12   42 1
    26   13   43 1
    27   14   15 1
    28   14   21 1
    29   14   16 1
    30   16   17 1
    31   16   18 1
    32   16   24 1
    33   18   23 1
    34   18   19 1
    35   18   44 1
    36   19   20 1
    37   19   45 1
    38   19   46 1
    39   20   21 1
    40   20   47 1
    41   20   48 1
    42   21   22 1
    43   21   60 1
    44   22   23 1
    45   22   49 1
    46   22   50 1
    47   23   51 1
    48   23   52 1
    49   24   25 1
    50   24   53 1
    51   24   61 1
    52   25   26 1
    53   25   54 1
    54   25   55 1
    55   26   31 ar
    56   26   27 ar
    57   27   28 ar
    58   27   56 1
    59   28   29 ar
    60   28   57 1
    61   29   30 ar
    62   29   58 1
    63   30   31 ar
    64   30   59 1
    65   31   32 1
@<TRIPOS>MOLECULE
ZINC38334036
   60    64     0     0     0
SMALL
USER_CHARGES

@<TRIPOS>ATOM
      1 C1          6.4002    1.8754   -2.1632 C.ar      1 <0>        -0.1012
      2 C2          6.5006    1.7150   -0.7939 C.ar      1 <0>        -0.1019
      3 C3          5.6264    0.8745   -0.1305 C.ar      1 <0>        -0.1400
      4 C4          4.6514    0.1947   -0.8363 C.ar      1 <0>        -0.1309
      5 C5          4.5503    0.3559   -2.2055 C.ar      1 <0>        -0.1074
      6 C6          5.4255    1.1953   -2.8691 C.ar      1 <0>        -0.1020
      7 C7          3.6990   -0.7223   -0.1132 C.3       1 <0>        -0.0172
      8 C8          2.3618   -0.0431    0.0338 C.ar      1 <0>        -0.0598
      9 C9          1.9016    0.3130    1.2877 C.ar      1 <0>        -0.1131
     10 C10         0.6750    0.9360    1.4226 C.ar      1 <0>        -0.1118
     11 C11        -0.0912    1.2033    0.3035 C.ar      1 <0>        -0.1105
     12 C12         0.3694    0.8479   -0.9505 C.ar      1 <0>        -0.1117
     13 C13         1.5979    0.2288   -1.0858 C.ar      1 <0>        -0.0974
     14 C14         3.5291   -2.0151   -0.9136 C.3       1 <0>         0.0799
     15 H1          3.2670   -1.7733   -1.9436 H         1 <0>         0.1263
     16 C15         4.8407   -2.8053   -0.8923 C.3       1 <0>        -0.0057
     17 H2          5.2011   -2.9426   -1.9119 H         1 <0>         0.1457
     18 C16         4.5837   -4.1740   -0.2494 C.3       1 <0>        -0.1043
     19 C17         4.0487   -3.9544    1.1713 C.3       1 <0>        -0.1713
     20 C18         2.7587   -3.1331    1.0927 C.3       1 <0>         0.0372
     21 N1          2.4613   -2.8263   -0.3137 N.3       1 <0>        -0.4978
     22 C19         2.2371   -4.0572   -1.0843 C.3       1 <0>         0.0445
     23 C20         3.5123   -4.9055   -1.0680 C.3       1 <0>        -0.1464
     24 N2          5.8447   -2.0718   -0.1100 N.4       1 <0>        -0.5118
     25 C21         7.1086   -2.8203   -0.1107 C.3       1 <0>         0.0293
     26 C22         8.1385   -2.0679    0.6919 C.ar      1 <0>        -0.1518
     27 C23         9.0860   -1.2938    0.0484 C.ar      1 <0>        -0.0745
     28 C24        10.0306   -0.6035    0.7843 C.ar      1 <0>        -0.1050
     29 C25        10.0286   -0.6868    2.1644 C.ar      1 <0>        -0.0712
     30 C26         9.0820   -1.4603    2.8089 C.ar      1 <0>        -0.1006
     31 C27         8.1325   -2.1471    2.0729 C.ar      1 <0>        -0.0259
     32 Cl1         6.9389   -3.1137    2.8820 Cl        1 <0>        -0.0546
     33 H3          7.0803    2.5356   -2.6809 H         1 <0>         0.1356
     34 H4          7.2624    2.2461   -0.2424 H         1 <0>         0.1349
     35 H5          5.7054    0.7486    0.9393 H         1 <0>         0.1273
     36 H6          3.7890   -0.1757   -2.7571 H         1 <0>         0.1333
     37 H7          5.3467    1.3209   -3.9389 H         1 <0>         0.1366
     38 H8          4.0983   -0.9559    0.8738 H         1 <0>         0.0778
     39 H9          2.5002    0.1042    2.1620 H         1 <0>         0.1152
     40 H10         0.3151    1.2137    2.4023 H         1 <0>         0.1247
     41 H11        -1.0499    1.6894    0.4089 H         1 <0>         0.1249
     42 H12        -0.2294    1.0564   -1.8248 H         1 <0>         0.1244
     43 H13         1.9594   -0.0455   -2.0658 H         1 <0>         0.1156
     44 H14         5.5040   -4.7577   -0.2298 H         1 <0>         0.1047
     45 H15         3.8403   -4.9181    1.6361 H         1 <0>         0.0985
     46 H16         4.7897   -3.4149    1.7612 H         1 <0>         0.0590
     47 H17         1.9364   -3.7056    1.5217 H         1 <0>         0.0988
     48 H18         2.8846   -2.2041    1.6487 H         1 <0>         0.0848
     49 H19         1.4187   -4.6219   -0.6376 H         1 <0>         0.0953
     50 H20         1.9838   -3.8012   -2.1131 H         1 <0>         0.0897
     51 H21         3.8676   -5.0500   -2.0882 H         1 <0>         0.0816
     52 H22         3.3017   -5.8730   -0.6121 H         1 <0>         0.0909
     53 H23         5.9923   -1.1621   -0.5208 H         1 <0>         0.4255
     54 H24         6.9492   -3.8031    0.3331 H         1 <0>         0.1398
     55 H25         7.4611   -2.9373   -1.1355 H         1 <0>         0.1445
     56 H26         9.0883   -1.2286   -1.0297 H         1 <0>         0.1425
     57 H27        10.7708    0.0009    0.2811 H         1 <0>         0.1452
     58 H28        10.7672   -0.1475    2.7389 H         1 <0>         0.1476
     59 H29         9.0807   -1.5256    3.8869 H         1 <0>         0.1483
     60 H30         5.5184   -1.9635    0.8386 H         1 <0>         0.4162
@<TRIPOS>BOND
     1    1    6 ar
     2    1    2 ar
     3    1   33 1
     4    2    3 ar
     5    2   34 1
     6    3    4 ar
     7    3   35 1
     8    4    5 ar
     9    4    7 1
    10    5    6 ar
    11    5   36 1
    12    6   37 1
    13    7    8 1
    14    7   14 1
    15    7   38 1
    16    8   13 ar
    17    8    9 ar
    18    9   10 ar
    19    9   39 1
    20   10   11 ar
    21   10   40 1
    22   11   12 ar
    23   11   41 1
    24   12   13 ar
    25   12   42 1
    26   13   43 1
    27   14   15 1
    28   14   21 1
    29   14   16 1
    30   16   17 1
    31   16   18 1
    32   16   24 1
    33   18   23 1
    34   18   19 1
    35   18   44 1
    36   19   20 1
    37   19   45 1
    38   19   46 1
    39   20   21 1
    40   20   47 1
    41   20   48 1
    42   21   22 1
    43   22   23 1
    44   22   49 1
    45   22   50 1
    46   23   51 1
    47   23   52 1
    48   24   25 1
    49   24   53 1
    50   24   60 1
    51   25   26 1
    52   25   54 1
    53   25   55 1
    54   26   31 ar
    55   26   27 ar
    56   27   28 ar
    57   27   56 1
    58   28   29 ar
    59   28   57 1
    60   29   30 ar
    61   29   58 1
    62   30   31 ar
    63   30   59 1
    64   31   32 1
@<TRIPOS>MOLECULE
ZINC38334036
   60    64     0     0     0
SMALL
USER_CHARGES

@<TRIPOS>ATOM
      1 C1          5.3144    2.3115   -1.3372 C.ar      1 <0>        -0.1069
      2 C2          5.7017    2.0389   -0.0385 C.ar      1 <0>        -0.1060
      3 C3          5.1626    0.9562    0.6307 C.ar      1 <0>        -0.0977
      4 C4          4.2357    0.1463    0.0015 C.ar      1 <0>        -0.0840
      5 C5          3.8477    0.4194   -1.2969 C.ar      1 <0>        -0.1280
      6 C6          4.3879    1.5013   -1.9666 C.ar      1 <0>        -0.1093
      7 C7          3.6486   -1.0346    0.7308 C.3       1 <0>        -0.0097
      8 C8          2.3114   -0.6525    1.3111 C.ar      1 <0>        -0.1277
      9 C9          2.1244   -0.6608    2.6807 C.ar      1 <0>        -0.1095
     10 C10         0.8978   -0.3103    3.2130 C.ar      1 <0>        -0.1084
     11 C11        -0.1418    0.0490    2.3757 C.ar      1 <0>        -0.1023
     12 C12         0.0454    0.0582    1.0061 C.ar      1 <0>        -0.1097
     13 C13         1.2733   -0.2882    0.4740 C.ar      1 <0>        -0.1205
     14 C14         3.4670   -2.1983   -0.2459 C.3       1 <0>         0.0389
     15 H1          2.9232   -1.8515   -1.1245 H         1 <0>         0.1364
     16 C15         4.8402   -2.7220   -0.6726 C.3       1 <0>         0.0835
     17 H2          4.9470   -2.6287   -1.7533 H         1 <0>         0.0771
     18 C16         4.9537   -4.1983   -0.2704 C.3       1 <0>        -0.0951
     19 C17         4.7622   -4.3022    1.2485 C.3       1 <0>        -0.1360
     20 C18         3.3916   -3.7276    1.6135 C.3       1 <0>        -0.0089
     21 N1          2.7059   -3.2662    0.4067 N.4       1 <0>        -0.3690
     22 C19         2.4829   -4.3798   -0.5184 C.3       1 <0>        -0.0082
     23 C20         3.8211   -4.9749   -0.9548 C.3       1 <0>        -0.1373
     24 N2          5.8928   -1.9448   -0.0049 N.3       1 <0>        -0.6803
     25 C21         7.2264   -2.4296   -0.3847 C.3       1 <0>         0.0929
     26 C22         8.2779   -1.6102    0.3181 C.ar      1 <0>        -0.0861
     27 C23         8.9217   -0.5882   -0.3542 C.ar      1 <0>        -0.0985
     28 C24         9.8860    0.1635    0.2904 C.ar      1 <0>        -0.1115
     29 C25        10.2074   -0.1062    1.6078 C.ar      1 <0>        -0.0980
     30 C26         9.5644   -1.1276    2.2810 C.ar      1 <0>        -0.1118
     31 C27         8.5949   -1.8768    1.6380 C.ar      1 <0>        -0.0117
     32 Cl1         7.7821   -3.1557    2.4850 Cl        1 <0>        -0.0649
     33 H3          5.7323    3.1600   -1.8585 H         1 <0>         0.1289
     34 H4          6.4259    2.6716    0.4531 H         1 <0>         0.1294
     35 H5          5.4657    0.7428    1.6451 H         1 <0>         0.1278
     36 H6          3.1241   -0.2137   -1.7888 H         1 <0>         0.1170
     37 H7          4.0851    1.7145   -2.9812 H         1 <0>         0.1279
     38 H8          4.3206   -1.3361    1.5343 H         1 <0>         0.1296
     39 H9          2.9367   -0.9414    3.3349 H         1 <0>         0.1281
     40 H10         0.7515   -0.3174    4.2830 H         1 <0>         0.1320
     41 H11        -1.1004    0.3222    2.7915 H         1 <0>         0.1312
     42 H12        -0.7669    0.3385    0.3519 H         1 <0>         0.1305
     43 H13         1.4207   -0.2774   -0.5958 H         1 <0>         0.1231
     44 H14         5.9218   -4.5985   -0.5717 H         1 <0>         0.1170
     45 H15         4.8126   -5.3478    1.5524 H         1 <0>         0.0940
     46 H16         5.5429   -3.7345    1.7548 H         1 <0>         0.1161
     47 H17         2.7931   -4.4994    2.0975 H         1 <0>         0.1274
     48 H18         3.5215   -2.8901    2.2989 H         1 <0>         0.1284
     49 H19         1.8909   -5.1490   -0.0224 H         1 <0>         0.1321
     50 H20         1.9438   -4.0197   -1.3946 H         1 <0>         0.1279
     51 H21         3.9234   -4.8922   -2.0368 H         1 <0>         0.0992
     52 H22         3.8673   -6.0234   -0.6606 H         1 <0>         0.1041
     53 H23         7.3284   -3.4759   -0.0965 H         1 <0>         0.0921
     54 H24         7.3536   -2.3358   -1.4632 H         1 <0>         0.0492
     55 H25         8.6714   -0.3773   -1.3834 H         1 <0>         0.1276
     56 H26        10.3890    0.9616   -0.2354 H         1 <0>         0.1316
     57 H27        10.9612    0.4812    2.1108 H         1 <0>         0.1351
     58 H28         9.8157   -1.3384    3.3100 H         1 <0>         0.1355
     59 H29         1.8055   -2.8984    0.6751 H         1 <0>         0.4219
     60 H30         5.7960   -0.9602   -0.2030 H         1 <0>         0.3631
@<TRIPOS>BOND
     1    1    6 ar
     2    1    2 ar
     3    1   33 1
     4    2    3 ar
     5    2   34 1
     6    3    4 ar
     7    3   35 1
     8    4    5 ar
     9    4    7 1
    10    5    6 ar
    11    5   36 1
    12    6   37 1
    13    7    8 1
    14    7   14 1
    15    7   38 1
    16    8   13 ar
    17    8    9 ar
    18    9   10 ar
    19    9   39 1
    20   10   11 ar
    21   10   40 1
    22   11   12 ar
    23   11   41 1
    24   12   13 ar
    25   12   42 1
    26   13   43 1
    27   14   15 1
    28   14   21 1
    29   14   16 1
    30   16   17 1
    31   16   18 1
    32   16   24 1
    33   18   23 1
    34   18   19 1
    35   18   44 1
    36   19   20 1
    37   19   45 1
    38   19   46 1
    39   20   21 1
    40   20   47 1
    41   20   48 1
    42   21   22 1
    43   21   59 1
    44   22   23 1
    45   22   49 1
    46   22   50 1
    47   23   51 1
    48   23   52 1
    49   24   25 1
    50   24   60 1
    51   25   26 1
    52   25   53 1
    53   25   54 1
    54   26   31 ar
    55   26   27 ar
    56   27   28 ar
    57   27   55 1
    58   28   29 ar
    59   28   56 1
    60   29   30 ar
    61   29   57 1
    62   30   31 ar
    63   30   58 1
    64   31   32 1
@<TRIPOS>MOLECULE
ZINC19861693
   64    67     0     0     0
SMALL
USER_CHARGES
benzyl N-[(1R)-2-[[(1S)-2-amino-1-benzyl-2-oxo-ethyl]amino]-1-(1H-indol-3-ylmethyl)-2-oxo-ethyl]carbamate
@<TRIPOS>ATOM
      1 C1          1.5259    0.0874    4.7131 C.ar      1 <0>        -0.1193
      2 C2          1.0561   -0.7761    3.7413 C.ar      1 <0>        -0.1138
      3 C3          1.3260   -0.5293    2.4083 C.ar      1 <0>        -0.1107
      4 C4          2.0658    0.5812    2.0470 C.ar      1 <0>        -0.0848
      5 C5          2.5401    1.4419    3.0192 C.ar      1 <0>        -0.1142
      6 C6          2.2657    1.1979    4.3518 C.ar      1 <0>        -0.1160
      7 C7          2.3605    0.8501    0.5937 C.3       1 <0>        -0.0821
      8 C8          1.2475    1.7155   -0.0006 C.3       1 <0>         0.1382
      9 H1          1.0943    2.6268    0.5961 H         1 <0>         0.1175
     10 C9          1.6022    2.0866   -1.4175 C.2       1 <0>         0.5063
     11 O1          0.8753    1.7572   -2.3307 O.2       1 <0>        -0.5365
     12 N1          2.7273    2.7844   -1.6699 N.am      1 <0>        -0.8764
     13 N2         -0.0111    0.9658    0.0074 N.am      1 <0>        -0.7119
     14 C10        -1.1873    1.6238    0.0165 C.2       1 <0>         0.5272
     15 O2         -1.2037    2.8365    0.0232 O.2       1 <0>        -0.5345
     16 C11        -2.4820    0.8526    0.0185 C.3       1 <0>         0.1605
     17 H2         -2.5590    0.2515   -0.8995 H         1 <0>         0.1182
     18 C12        -2.5452   -0.0348    1.2632 C.3       1 <0>        -0.0475
     19 C13        -3.7805   -0.8959    1.2040 C.2       1 <0>        -0.1594
     20 C14        -4.9662   -0.6316    1.7752 C.2       1 <0>         0.0557
     21 N3         -5.8500   -1.6404    1.5039 N.pl3     1 <0>        -0.6022
     22 H3         -6.8790   -1.5886    1.8893 H         1 <0>         0.4360
     23 C15        -5.2366   -2.6071    0.7390 C.ar      1 <0>         0.1179
     24 C16        -3.9133   -2.1832    0.5176 C.ar      1 <0>        -0.0808
     25 C17        -3.0455   -2.9744   -0.2371 C.ar      1 <0>        -0.0733
     26 C18        -3.4865   -4.1585   -0.7576 C.ar      1 <0>        -0.1488
     27 C19        -4.7906   -4.5813   -0.5417 C.ar      1 <0>        -0.1037
     28 C20        -5.6640   -3.8159    0.1999 C.ar      1 <0>        -0.1321
     29 N4         -3.6084    1.7894    0.0289 N.am      1 <0>        -0.7079
     30 C21        -4.8052    1.4097   -0.4608 C.2       1 <0>         0.6486
     31 O3         -4.9501    0.2903   -0.9109 O.2       1 <0>        -0.5507
     32 O4         -5.8403    2.2706   -0.4512 O.3       1 <0>        -0.3671
     33 C22        -7.0995    1.7936   -0.9946 C.3       1 <0>         0.1340
     34 C23        -8.1333    2.8860   -0.9003 C.ar      1 <0>        -0.0991
     35 C24        -8.9297    2.9887    0.2249 C.ar      1 <0>        -0.0942
     36 C25        -9.8746    3.9938    0.3135 C.ar      1 <0>        -0.1238
     37 C26       -10.0301    4.8900   -0.7275 C.ar      1 <0>        -0.1081
     38 C27        -9.2376    4.7838   -1.8551 C.ar      1 <0>        -0.1224
     39 C28        -8.2891    3.7819   -1.9414 C.ar      1 <0>        -0.0932
     40 H4          1.3153   -0.1056    5.7547 H         1 <0>         0.1210
     41 H5          0.4784   -1.6439    4.0236 H         1 <0>         0.1231
     42 H6          0.9593   -1.2042    1.6491 H         1 <0>         0.1197
     43 H7          3.1218    2.3071    2.7372 H         1 <0>         0.1216
     44 H8          2.6331    1.8724    5.1111 H         1 <0>         0.1219
     45 H9          3.3217    1.3777    0.5060 H         1 <0>         0.0949
     46 H10         2.4146   -0.1035    0.0480 H         1 <0>         0.0885
     47 H11         2.9862    3.0552   -2.7041 H         1 <0>         0.4240
     48 H12         3.3867    3.0831   -0.8417 H         1 <0>         0.4184
     49 H13         0.0039   -0.1341    0.0060 H         1 <0>         0.4249
     50 H14        -1.6525   -0.6764    1.3018 H         1 <0>         0.0830
     51 H15        -2.5816    0.5973    2.1627 H         1 <0>         0.0788
     52 H16        -5.1900    0.2479    2.3606 H         1 <0>         0.1550
     53 H17        -2.0292   -2.6519   -0.4089 H         1 <0>         0.1143
     54 H18        -2.8148   -4.7701   -1.3419 H         1 <0>         0.1179
     55 H19        -5.1245   -5.5196   -0.9595 H         1 <0>         0.1202
     56 H20        -6.6771   -4.1532    0.3617 H         1 <0>         0.1141
     57 H21        -3.4773    2.8027    0.4364 H         1 <0>         0.4356
     58 H22        -6.9603    1.5105   -2.0484 H         1 <0>         0.0782
     59 H23        -7.4380    0.9179   -0.4213 H         1 <0>         0.0757
     60 H24        -8.8110    2.2861    1.0364 H         1 <0>         0.1222
     61 H25       -10.4941    4.0765    1.1943 H         1 <0>         0.1255
     62 H26       -10.7709    5.6729   -0.6599 H         1 <0>         0.1250
     63 H27        -9.3593    5.4837   -2.6685 H         1 <0>         0.1262
     64 H28        -7.6699    3.6990   -2.8224 H         1 <0>         0.1246
@<TRIPOS>BOND
     1    1    6 ar
     2    1    2 ar
     3    1   40 1
     4    2    3 ar
     5    2   41 1
     6    3    4 ar
     7    3   42 1
     8    4    5 ar
     9    4    7 1
    10    5    6 ar
    11    5   43 1
    12    6   44 1
    13    7    8 1
    14    7   45 1
    15    7   46 1
    16    8    9 1
    17    8   10 1
    18    8   13 1
    19   10   11 2
    20   10   12 am
    21   12   47 1
    22   12   48 1
    23   13   14 am
    24   13   49 1
    25   14   15 2
    26   14   16 1
    27   16   17 1
    28   16   18 1
    29   16   29 1
    30   18   19 1
    31   18   50 1
    32   18   51 1
    33   19   24 1
    34   19   20 2
    35   20   21 1
    36   20   52 1
    37   21   22 1
    38   21   23 1
    39   23   28 ar
    40   23   24 ar
    41   24   25 ar
    42   25   26 ar
    43   25   53 1
    44   26   27 ar
    45   26   54 1
    46   27   28 ar
    47   27   55 1
    48   28   56 1
    49   29   30 am
    50   29   57 1
    51   30   31 2
    52   30   32 1
    53   32   33 1
    54   33   34 1
    55   33   58 1
    56   33   59 1
    57   34   39 ar
    58   34   35 ar
    59   35   36 ar
    60   35   60 1
    61   36   37 ar
    62   36   61 1
    63   37   38 ar
    64   37   62 1
    65   38   39 ar
    66   38   63 1
    67   39   64 1
@<TRIPOS>MOLECULE
ZINC19861699
   64    67     0     0     0
SMALL
USER_CHARGES
benzyl N-[(1S)-2-[[(1S)-2-amino-1-benzyl-2-oxo-ethyl]amino]-1-(1H-indol-3-ylmethyl)-2-oxo-ethyl]carbamate
@<TRIPOS>ATOM
      1 C1          1.6882   -1.3858   -3.6715 C.ar      1 <0>        -0.1193
      2 C2          2.5051   -1.1499   -2.5816 C.ar      1 <0>        -0.1155
      3 C3          1.9595   -0.7027   -1.3929 C.ar      1 <0>        -0.1114
      4 C4          0.5970   -0.4913   -1.2941 C.ar      1 <0>        -0.0856
      5 C5         -0.2206   -0.7322   -2.3824 C.ar      1 <0>        -0.1141
      6 C6          0.3257   -1.1744   -3.5727 C.ar      1 <0>        -0.1159
      7 C7          0.0021   -0.0041    0.0020 C.3       1 <0>        -0.0815
      8 C8         -0.0187    1.5258    0.0104 C.3       1 <0>         0.1375
      9 H1         -0.5240    1.9190   -0.8840 H         1 <0>         0.1167
     10 C9         -0.7240    2.0118    1.2503 C.2       1 <0>         0.5074
     11 O1         -0.1366    2.7127    2.0468 O.2       1 <0>        -0.5355
     12 N1         -2.0078    1.6675    1.4740 N.am      1 <0>        -0.8766
     13 N2          1.3557    2.0329    0.0000 N.am      1 <0>        -0.7123
     14 C10         1.6171    3.2612   -0.4892 C.2       1 <0>         0.5260
     15 O2          0.7146    3.9467   -0.9208 O.2       1 <0>        -0.5333
     16 C11         3.0309    3.7828   -0.4999 C.3       1 <0>         0.1635
     17 H2          3.6599    3.1412   -1.1345 H         1 <0>         0.1144
     18 C12         3.5666    3.8337    0.9324 C.3       1 <0>        -0.0482
     19 C13         5.0183    4.2377    0.9117 C.2       1 <0>        -0.1634
     20 C14         6.0770    3.4125    0.9236 C.2       1 <0>         0.0594
     21 N3          7.2358    4.1398    0.8968 N.pl3     1 <0>        -0.6036
     22 H3          8.2082    3.6255    0.9017 H         1 <0>         0.4379
     23 C15         6.9436    5.4850    0.8663 C.ar      1 <0>         0.1173
     24 C16         5.5417    5.6052    0.8684 C.ar      1 <0>        -0.0796
     25 C17         4.9510    6.8696    0.8353 C.ar      1 <0>        -0.0743
     26 C18         5.7389    7.9857    0.7976 C.ar      1 <0>        -0.1479
     27 C19         7.1221    7.8723    0.7920 C.ar      1 <0>        -0.1071
     28 C20         7.7260    6.6344    0.8318 C.ar      1 <0>        -0.1323
     29 N4          3.0503    5.1294   -1.0766 N.am      1 <0>        -0.7100
     30 C21         4.1747    5.6002   -1.6514 C.2       1 <0>         0.6584
     31 O3          5.1725    4.9078   -1.6913 O.2       1 <0>        -0.5596
     32 O4          4.1925    6.8377   -2.1814 O.3       1 <0>        -0.3622
     33 C22         5.4377    7.2789   -2.7840 C.3       1 <0>         0.1341
     34 C23         5.2687    8.6773   -3.3197 C.ar      1 <0>        -0.0958
     35 C24         4.8449    8.8724   -4.6210 C.ar      1 <0>        -0.0953
     36 C25         4.6852   10.1551   -5.1109 C.ar      1 <0>        -0.1242
     37 C26         4.9591   11.2427   -4.3028 C.ar      1 <0>        -0.1093
     38 C27         5.3884   11.0476   -3.0033 C.ar      1 <0>        -0.1243
     39 C28         5.5430    9.7649   -2.5118 C.ar      1 <0>        -0.0912
     40 H4          2.1145   -1.7356   -4.6002 H         1 <0>         0.1215
     41 H5          3.5696   -1.3154   -2.6587 H         1 <0>         0.1227
     42 H6          2.5976   -0.5187   -0.5412 H         1 <0>         0.1197
     43 H7         -1.2856   -0.5712   -2.3039 H         1 <0>         0.1223
     44 H8         -0.3125   -1.3591   -4.4242 H         1 <0>         0.1226
     45 H9         -1.0251   -0.3853    0.1002 H         1 <0>         0.0948
     46 H10         0.6099   -0.3672    0.8438 H         1 <0>         0.0883
     47 H11        -2.5227    2.0222    2.3790 H         1 <0>         0.4241
     48 H12        -2.5406    1.0318    0.7515 H         1 <0>         0.4184
     49 H13         2.1743    1.4111    0.3915 H         1 <0>         0.4239
     50 H14         2.9898    4.5682    1.5137 H         1 <0>         0.0813
     51 H15         3.4688    2.8409    1.3960 H         1 <0>         0.0825
     52 H16         6.0224    2.3343    0.9506 H         1 <0>         0.1616
     53 H17         3.8753    6.9655    0.8390 H         1 <0>         0.1127
     54 H18         5.2814    8.9637    0.7724 H         1 <0>         0.1164
     55 H19         7.7314    8.7636    0.7621 H         1 <0>         0.1200
     56 H20         8.8032    6.5565    0.8253 H         1 <0>         0.1143
     57 H21         2.1471    5.7563   -1.0405 H         1 <0>         0.4351
     58 H22         6.2350    7.2704   -2.0262 H         1 <0>         0.0806
     59 H23         5.7071    6.6009   -3.6073 H         1 <0>         0.0728
     60 H24         4.6349    8.0227   -5.2536 H         1 <0>         0.1225
     61 H25         4.3502   10.3076   -6.1262 H         1 <0>         0.1244
     62 H26         4.8379   12.2449   -4.6867 H         1 <0>         0.1236
     63 H27         5.6027   11.8973   -2.3721 H         1 <0>         0.1248
     64 H28         5.8785    9.6124   -1.4965 H         1 <0>         0.1260
@<TRIPOS>BOND
     1    1    6 ar
     2    1    2 ar
     3    1   40 1
     4    2    3 ar
     5    2   41 1
     6    3    4 ar
     7    3   42 1
     8    4    5 ar
     9    4    7 1
    10    5    6 ar
    11    5   43 1
    12    6   44 1
    13    7    8 1
    14    7   45 1
    15    7   46 1
    16    8    9 1
    17    8   10 1
    18    8   13 1
    19   10   11 2
    20   10   12 am
    21   12   47 1
    22   12   48 1
    23   13   14 am
    24   13   49 1
    25   14   15 2
    26   14   16 1
    27   16   17 1
    28   16   18 1
    29   16   29 1
    30   18   19 1
    31   18   50 1
    32   18   51 1
    33   19   24 1
    34   19   20 2
    35   20   21 1
    36   20   52 1
    37   21   22 1
    38   21   23 1
    39   23   28 ar
    40   23   24 ar
    41   24   25 ar
    42   25   26 ar
    43   25   53 1
    44   26   27 ar
    45   26   54 1
    46   27   28 ar
    47   27   55 1
    48   28   56 1
    49   29   30 am
    50   29   57 1
    51   30   31 2
    52   30   32 1
    53   32   33 1
    54   33   34 1
    55   33   58 1
    56   33   59 1
    57   34   39 ar
    58   34   35 ar
    59   35   36 ar
    60   35   60 1
    61   36   37 ar
    62   36   61 1
    63   37   38 ar
    64   37   62 1
    65   38   39 ar
    66   38   63 1
    67   39   64 1
@<TRIPOS>MOLECULE
ZINC22933029
   47    49     0     0     0
SMALL
USER_CHARGES

@<TRIPOS>ATOM
      1 C1         -0.0173    1.4248    0.0099 C.3       1 <0>         0.0255
      2 O1          0.0021   -0.0041    0.0020 O.3       1 <0>        -0.3184
      3 C2          0.6058   -0.6071   -1.0557 C.ar      1 <0>         0.1308
      4 C3          1.1731    0.1608   -2.0626 C.ar      1 <0>        -0.2069
      5 C4          1.7865   -0.4545   -3.1363 C.ar      1 <0>        -0.0709
      6 C5          1.8356   -1.8347   -3.2084 C.ar      1 <0>        -0.1540
      7 C6          1.2707   -2.6020   -2.2067 C.ar      1 <0>        -0.0620
      8 C7          0.6609   -1.9913   -1.1277 C.ar      1 <0>        -0.1286
      9 C8          0.0508   -2.8283   -0.0330 C.3       1 <0>         0.1141
     10 N1         -1.4020   -2.9126   -0.2332 N.3       1 <0>        -0.6932
     11 C9         -2.0320   -3.7229    0.8178 C.3       1 <0>         0.0690
     12 H1         -1.5084   -3.5666    1.7609 H         1 <0>         0.0920
     13 C10        -1.9617   -5.2036    0.4332 C.3       1 <0>        -0.1229
     14 C11        -2.7649   -5.4258   -0.8516 C.3       1 <0>        -0.1399
     15 C12        -4.2033   -4.9503   -0.6361 C.3       1 <0>        -0.0050
     16 N2         -4.2047   -3.5221   -0.2972 N.4       1 <0>        -0.5008
     17 C13        -3.4973   -3.3098    0.9722 C.3       1 <0>         0.0826
     18 H2         -3.9636   -3.9114    1.7524 H         1 <0>         0.1500
     19 C14        -3.5705   -1.8531    1.3516 C.ar      1 <0>        -0.1497
     20 C15        -3.4392   -0.8785    0.3802 C.ar      1 <0>        -0.1232
     21 C16        -3.5064    0.4577    0.7282 C.ar      1 <0>        -0.0967
     22 C17        -3.7054    0.8191    2.0475 C.ar      1 <0>        -0.0904
     23 C18        -3.8376   -0.1556    3.0188 C.ar      1 <0>        -0.1031
     24 C19        -3.7747   -1.4918    2.6702 C.ar      1 <0>        -0.0850
     25 H3          1.0053    1.8021    0.0021 H         1 <0>         0.0596
     26 H4         -0.5445    1.7859   -0.8732 H         1 <0>         0.0570
     27 H5         -0.5275    1.7763    0.9067 H         1 <0>         0.0998
     28 H6          1.1347    1.2387   -2.0069 H         1 <0>         0.1299
     29 H7          2.2279    0.1427   -3.9204 H         1 <0>         0.1286
     30 H8          2.3157   -2.3139   -4.0487 H         1 <0>         0.1282
     31 H9          1.3100   -3.6796   -2.2654 H         1 <0>         0.1301
     32 H10         0.4800   -3.8299   -0.0595 H         1 <0>         0.0867
     33 H11         0.2584   -2.3694    0.9337 H         1 <0>         0.0521
     34 H12        -1.8150   -1.9930   -0.2771 H         1 <0>         0.3481
     35 H13        -0.9226   -5.4881    0.2672 H         1 <0>         0.0950
     36 H14        -2.3829   -5.8090    1.2357 H         1 <0>         0.0832
     37 H15        -2.3126   -4.8599   -1.6661 H         1 <0>         0.1004
     38 H16        -2.7658   -6.4868   -1.1014 H         1 <0>         0.1080
     39 H17        -4.7780   -5.1073   -1.5489 H         1 <0>         0.1336
     40 H18        -4.6546   -5.5170    0.1783 H         1 <0>         0.1288
     41 H19        -3.7429   -3.0034   -1.0291 H         1 <0>         0.4277
     42 H20        -3.2837   -1.1609   -0.6506 H         1 <0>         0.1214
     43 H21        -3.4031    1.2192   -0.0306 H         1 <0>         0.1336
     44 H22        -3.7571    1.8630    2.3195 H         1 <0>         0.1356
     45 H23        -3.9927    0.1268    4.0496 H         1 <0>         0.1371
     46 H24        -3.8817   -2.2533    3.4284 H         1 <0>         0.1337
     47 H25        -5.1567   -3.1996   -0.2084 H         1 <0>         0.4285
@<TRIPOS>BOND
     1    1    2 1
     2    1   25 1
     3    1   26 1
     4    1   27 1
     5    2    3 1
     6    3    8 ar
     7    3    4 ar
     8    4    5 ar
     9    4   28 1
    10    5    6 ar
    11    5   29 1
    12    6    7 ar
    13    6   30 1
    14    7    8 ar
    15    7   31 1
    16    8    9 1
    17    9   10 1
    18    9   32 1
    19    9   33 1
    20   10   11 1
    21   10   34 1
    22   11   12 1
    23   11   17 1
    24   11   13 1
    25   13   14 1
    26   13   35 1
    27   13   36 1
    28   14   15 1
    29   14   37 1
    30   14   38 1
    31   15   16 1
    32   15   39 1
    33   15   40 1
    34   16   17 1
    35   16   41 1
    36   16   47 1
    37   17   18 1
    38   17   19 1
    39   19   24 ar
    40   19   20 ar
    41   20   21 ar
    42   20   42 1
    43   21   22 ar
    44   21   43 1
    45   22   23 ar
    46   22   44 1
    47   23   24 ar
    48   23   45 1
    49   24   46 1
@<TRIPOS>MOLECULE
ZINC22933029
   47    49     0     0     0
SMALL
USER_CHARGES

@<TRIPOS>ATOM
      1 C1         -0.0173    1.4248    0.0099 C.3       1 <0>         0.0229
      2 O1          0.0021   -0.0041    0.0020 O.3       1 <0>        -0.3261
      3 C2         -1.2003   -0.6375    0.0101 C.ar      1 <0>         0.1516
      4 C3         -2.3748    0.1012    0.0195 C.ar      1 <0>        -0.2031
      5 C4         -3.5956   -0.5449    0.0272 C.ar      1 <0>        -0.0422
      6 C5         -3.6478   -1.9268    0.0256 C.ar      1 <0>        -0.1499
      7 C6         -2.4790   -2.6650    0.0167 C.ar      1 <0>        -0.0533
      8 C7         -1.2554   -2.0235    0.0032 C.ar      1 <0>        -0.2006
      9 C8          0.0182   -2.8288   -0.0128 C.3       1 <0>         0.0531
     10 N1          0.5731   -2.8945    1.3458 N.4       1 <0>        -0.5090
     11 C9          1.8147   -3.6796    1.3302 C.3       1 <0>        -0.0082
     12 H1          2.5038   -3.2561    0.5996 H         1 <0>         0.1478
     13 C10         1.4980   -5.1295    0.9536 C.3       1 <0>        -0.1419
     14 C11         0.5768   -5.7350    2.0164 C.3       1 <0>        -0.1752
     15 C12         1.2553   -5.6428    3.3850 C.3       1 <0>         0.0454
     16 N2          1.5368   -4.2363    3.6994 N.3       1 <0>        -0.6706
     17 C13         2.4578   -3.6461    2.7185 C.3       1 <0>         0.1207
     18 H2          3.3860   -4.2173    2.7026 H         1 <0>         0.1361
     19 C14         2.7534   -2.2187    3.1007 C.ar      1 <0>        -0.1115
     20 C15         1.7444   -1.4117    3.5923 C.ar      1 <0>        -0.1413
     21 C16         2.0155   -0.1023    3.9428 C.ar      1 <0>        -0.1021
     22 C17         3.2957    0.4000    3.8023 C.ar      1 <0>        -0.1030
     23 C18         4.3049   -0.4073    3.3115 C.ar      1 <0>        -0.1012
     24 C19         4.0347   -1.7179    2.9650 C.ar      1 <0>        -0.0965
     25 H3          1.0053    1.8021    0.0021 H         1 <0>         0.1107
     26 H4         -0.5445    1.7859   -0.8732 H         1 <0>         0.0665
     27 H5         -0.5275    1.7763    0.9067 H         1 <0>         0.0648
     28 H6         -2.3345    1.1804    0.0211 H         1 <0>         0.1416
     29 H7         -4.5101    0.0296    0.0349 H         1 <0>         0.1397
     30 H8         -4.6033   -2.4302    0.0316 H         1 <0>         0.1392
     31 H9         -2.5225   -3.7442    0.0158 H         1 <0>         0.1389
     32 H10        -0.1940   -3.8373   -0.3678 H         1 <0>         0.1378
     33 H11         0.7400   -2.3541   -0.6775 H         1 <0>         0.1397
     34 H12         0.7696   -1.9610    1.6743 H         1 <0>         0.4273
     35 H13         1.0007   -5.1538   -0.0160 H         1 <0>         0.0930
     36 H14         2.4233   -5.7034    0.9040 H         1 <0>         0.1162
     37 H15        -0.3639   -5.1849    2.0387 H         1 <0>         0.0590
     38 H16         0.3821   -6.7803    1.7764 H         1 <0>         0.1032
     39 H17         0.5960   -6.0601    4.1461 H         1 <0>         0.0983
     40 H18         2.1891   -6.2046    3.3660 H         1 <0>         0.0953
     41 H19         0.7442   -1.8041    3.7021 H         1 <0>         0.1109
     42 H20         1.2271    0.5284    4.3262 H         1 <0>         0.1306
     43 H21         3.5074    1.4232    4.0755 H         1 <0>         0.1327
     44 H22         5.3050   -0.0148    3.2014 H         1 <0>         0.1342
     45 H23         4.8239   -2.3497    2.5850 H         1 <0>         0.1319
     46 H24         0.6833   -3.7017    3.7610 H         1 <0>         0.3334
     47 H25        -0.0950   -3.3340    1.9611 H         1 <0>         0.4129
@<TRIPOS>BOND
     1    1    2 1
     2    1   25 1
     3    1   26 1
     4    1   27 1
     5    2    3 1
     6    3    8 ar
     7    3    4 ar
     8    4    5 ar
     9    4   28 1
    10    5    6 ar
    11    5   29 1
    12    6    7 ar
    13    6   30 1
    14    7    8 ar
    15    7   31 1
    16    8    9 1
    17    9   10 1
    18    9   32 1
    19    9   33 1
    20   10   11 1
    21   10   34 1
    22   10   47 1
    23   11   12 1
    24   11   17 1
    25   11   13 1
    26   13   14 1
    27   13   35 1
    28   13   36 1
    29   14   15 1
    30   14   37 1
    31   14   38 1
    32   15   16 1
    33   15   39 1
    34   15   40 1
    35   16   17 1
    36   16   46 1
    37   17   18 1
    38   17   19 1
    39   19   24 ar
    40   19   20 ar
    41   20   21 ar
    42   20   41 1
    43   21   22 ar
    44   21   42 1
    45   22   23 ar
    46   22   43 1
    47   23   24 ar
    48   23   44 1
    49   24   45 1
@<TRIPOS>MOLECULE
ZINC21002590
   49    51     0     0     0
SMALL
USER_CHARGES
(2S)-2-acetamido-N-benzyl-3-(1H-indol-3-yl)-N-methyl-propanamide
@<TRIPOS>ATOM
      1 C1          4.8715    4.3719    0.2714 C.3       1 <0>        -0.1758
      2 C2          3.5387    3.8541   -0.2047 C.2       1 <0>         0.5219
      3 O1          3.4771    3.1614   -1.1983 O.2       1 <0>        -0.5233
      4 N1          2.4153    4.1607    0.4738 N.am      1 <0>        -0.7282
      5 C3          1.1197    3.6573    0.0110 C.3       1 <0>         0.1502
      6 H1          0.3541    4.0157    0.7149 H         1 <0>         0.1025
      7 C4          0.8487    4.1715   -1.4043 C.3       1 <0>        -0.0586
      8 C5          0.7063    5.6714   -1.3752 C.2       1 <0>        -0.1673
      9 C6         -0.4412    6.3631   -1.2938 C.2       1 <0>         0.0453
     10 N2         -0.1775    7.7058   -1.2898 N.pl3     1 <0>        -0.6071
     11 H2         -1.0040    8.4284   -1.2213 H         1 <0>         0.4414
     12 C7          1.1803    7.9164   -1.3793 C.ar      1 <0>         0.1063
     13 C8          1.7935    6.6513   -1.4367 C.ar      1 <0>        -0.0944
     14 C9          3.1828    6.5544   -1.5315 C.ar      1 <0>        -0.0726
     15 C10         3.9412    7.6906   -1.5682 C.ar      1 <0>        -0.1494
     16 C11         3.3412    8.9408   -1.5123 C.ar      1 <0>        -0.0981
     17 C12         1.9716    9.0595   -1.4183 C.ar      1 <0>        -0.1336
     18 C13         1.1401    2.1505    0.0027 C.2       1 <0>         0.5036
     19 O2          2.1985    1.5584   -0.0106 O.2       1 <0>        -0.5011
     20 N3         -0.0178    1.4608    0.0101 N.am      1 <0>        -0.6148
     21 C14        -1.2963    2.1760    0.0200 C.3       1 <0>         0.0722
     22 C15         0.0021   -0.0041    0.0020 C.3       1 <0>         0.1532
     23 C16         0.0225   -0.5140    1.4200 C.ar      1 <0>        -0.1069
     24 C17         1.2288   -0.7369    2.0570 C.ar      1 <0>        -0.0950
     25 C18         1.2475   -1.1996    3.3595 C.ar      1 <0>        -0.1232
     26 C19         0.0598   -1.4498    4.0212 C.ar      1 <0>        -0.1169
     27 C20        -1.1465   -1.2323    3.3822 C.ar      1 <0>        -0.1249
     28 C21        -1.1652   -0.7641    2.0817 C.ar      1 <0>        -0.1077
     29 H3          4.7271    4.9761    1.1792 H         1 <0>         0.0733
     30 H4          5.3253    4.9935   -0.5145 H         1 <0>         0.0919
     31 H5          5.5349    3.5240    0.4970 H         1 <0>         0.0924
     32 H6          2.4712    4.7889    1.3750 H         1 <0>         0.4228
     33 H7          1.6866    3.8954   -2.0614 H         1 <0>         0.1003
     34 H8         -0.0800    3.7224   -1.7861 H         1 <0>         0.0785
     35 H9         -1.4267    5.9247   -1.2378 H         1 <0>         0.1665
     36 H10         3.6567    5.5849   -1.5756 H         1 <0>         0.1215
     37 H11         5.0161    7.6151   -1.6410 H         1 <0>         0.1202
     38 H12         3.9539    9.8297   -1.5425 H         1 <0>         0.1234
     39 H13         1.5142   10.0369   -1.3748 H         1 <0>         0.1174
     40 H14        -2.1226    1.4499    0.0250 H         1 <0>         0.0791
     41 H15        -1.3695    2.8086   -0.8769 H         1 <0>         0.0655
     42 H16        -1.3568    2.8065    0.9193 H         1 <0>         0.0610
     43 H17        -0.8959   -0.3802   -0.5100 H         1 <0>         0.0860
     44 H18         0.9001   -0.3557   -0.5271 H         1 <0>         0.0935
     45 H19         2.1567   -0.5457    1.5386 H         1 <0>         0.1266
     46 H20         2.1900   -1.3692    3.8589 H         1 <0>         0.1211
     47 H21         0.0744   -1.8148    5.0375 H         1 <0>         0.1208
     48 H22        -2.0744   -1.4277    3.8992 H         1 <0>         0.1213
     49 H23        -2.1077   -0.5942    1.5824 H         1 <0>         0.1191
@<TRIPOS>BOND
     1    1    2 1
     2    1   29 1
     3    1   30 1
     4    1   31 1
     5    2    3 2
     6    2    4 am
     7    4    5 1
     8    4   32 1
     9    5    6 1
    10    5    7 1
    11    5   18 1
    12    7    8 1
    13    7   33 1
    14    7   34 1
    15    8   13 1
    16    8    9 2
    17    9   10 1
    18    9   35 1
    19   10   11 1
    20   10   12 1
    21   12   17 ar
    22   12   13 ar
    23   13   14 ar
    24   14   15 ar
    25   14   36 1
    26   15   16 ar
    27   15   37 1
    28   16   17 ar
    29   16   38 1
    30   17   39 1
    31   18   19 2
    32   18   20 am
    33   20   21 1
    34   20   22 1
    35   21   40 1
    36   21   41 1
    37   21   42 1
    38   22   23 1
    39   22   43 1
    40   22   44 1
    41   23   28 ar
    42   23   24 ar
    43   24   25 ar
    44   24   45 1
    45   25   26 ar
    46   25   46 1
    47   26   27 ar
    48   26   47 1
    49   27   28 ar
    50   27   48 1
    51   28   49 1
@<TRIPOS>MOLECULE
ZINC26150359
   49    51     0     0     0
SMALL
USER_CHARGES
(2R)-2-acetamido-N-benzyl-3-(1H-indol-3-yl)-N-methyl-propanamide
@<TRIPOS>ATOM
      1 C1          3.6623   -2.9990    2.5431 C.3       1 <0>        -0.1719
      2 C2          4.1076   -1.7895    1.7621 C.2       1 <0>         0.5164
      3 O1          4.7960   -1.9261    0.7730 O.2       1 <0>        -0.5206
      4 N1          3.7410   -0.5561    2.1629 N.am      1 <0>        -0.7300
      5 C3          4.1739    0.6197    1.4037 C.3       1 <0>         0.1490
      6 H1          3.7748    1.5090    1.9134 H         1 <0>         0.1040
      7 C4          3.6459    0.5244   -0.0291 C.3       1 <0>        -0.0551
      8 C5          2.1404    0.5910   -0.0152 C.2       1 <0>        -0.1679
      9 C6          1.2950   -0.4517   -0.0127 C.2       1 <0>         0.0585
     10 N2          0.0021   -0.0041    0.0020 N.pl3     1 <0>        -0.6071
     11 H2         -0.8293   -0.7244    0.0060 H         1 <0>         0.4416
     12 C7         -0.0166    1.3727    0.0096 C.ar      1 <0>         0.1081
     13 C8          1.3221    1.8059   -0.0009 C.ar      1 <0>        -0.1037
     14 C9          1.6123    3.1713    0.0041 C.ar      1 <0>        -0.0739
     15 C10         0.5931    4.0815    0.0191 C.ar      1 <0>        -0.1466
     16 C11        -0.7290    3.6593    0.0295 C.ar      1 <0>        -0.1003
     17 C12        -1.0380    2.3165    0.0295 C.ar      1 <0>        -0.1308
     18 C13         5.6797    0.6767    1.3814 C.2       1 <0>         0.5040
     19 O2          6.3278   -0.3229    1.6085 O.2       1 <0>        -0.5033
     20 N3          6.3061    1.8386    1.1091 N.am      1 <0>        -0.6138
     21 C14         5.5231    3.0461    0.8348 C.3       1 <0>         0.0701
     22 C15         7.7698    1.8941    1.0874 C.3       1 <0>         0.1547
     23 C16         8.2634    1.5932   -0.3043 C.ar      1 <0>        -0.1095
     24 C17         8.5433    0.2903   -0.6718 C.ar      1 <0>        -0.0905
     25 C18         8.9914    0.0137   -1.9499 C.ar      1 <0>        -0.1223
     26 C19         9.1692    1.0412   -2.8574 C.ar      1 <0>        -0.1162
     27 C20         8.8947    2.3447   -2.4881 C.ar      1 <0>        -0.1257
     28 C21         8.4416    2.6207   -1.2117 C.ar      1 <0>        -0.1078
     29 H3          3.0511   -2.6779    3.3995 H         1 <0>         0.0719
     30 H4          4.5447   -3.5458    2.9069 H         1 <0>         0.0928
     31 H5          3.0660   -3.6561    1.8930 H         1 <0>         0.0896
     32 H6          3.1167   -0.4322    3.0601 H         1 <0>         0.4231
     33 H7          4.0444    1.3601   -0.6231 H         1 <0>         0.0784
     34 H8          3.9667   -0.4284   -0.4755 H         1 <0>         0.0982
     35 H9          1.5915   -1.4902   -0.0208 H         1 <0>         0.1620
     36 H10         2.6388    3.5071   -0.0036 H         1 <0>         0.1181
     37 H11         0.8182    5.1378    0.0225 H         1 <0>         0.1214
     38 H12        -1.5236    4.3907    0.0413 H         1 <0>         0.1236
     39 H13        -2.0699    1.9980    0.0429 H         1 <0>         0.1179
     40 H14         6.2037    3.8872    0.6363 H         1 <0>         0.0800
     41 H15         4.8942    3.2811    1.7062 H         1 <0>         0.0639
     42 H16         4.8836    2.8766   -0.0440 H         1 <0>         0.0646
     43 H17         8.1031    2.8992    1.3853 H         1 <0>         0.0859
     44 H18         8.1754    1.1504    1.7891 H         1 <0>         0.0917
     45 H19         8.4083   -0.5120    0.0385 H         1 <0>         0.1270
     46 H20         9.2062   -1.0047   -2.2383 H         1 <0>         0.1209
     47 H21         9.5229    0.8256   -3.8548 H         1 <0>         0.1203
     48 H22         9.0340    3.1475   -3.1971 H         1 <0>         0.1209
     49 H23         8.2272    3.6391   -0.9232 H         1 <0>         0.1185
@<TRIPOS>BOND
     1    1    2 1
     2    1   29 1
     3    1   30 1
     4    1   31 1
     5    2    3 2
     6    2    4 am
     7    4    5 1
     8    4   32 1
     9    5    6 1
    10    5    7 1
    11    5   18 1
    12    7    8 1
    13    7   33 1
    14    7   34 1
    15    8   13 1
    16    8    9 2
    17    9   10 1
    18    9   35 1
    19   10   11 1
    20   10   12 1
    21   12   17 ar
    22   12   13 ar
    23   13   14 ar
    24   14   15 ar
    25   14   36 1
    26   15   16 ar
    27   15   37 1
    28   16   17 ar
    29   16   38 1
    30   17   39 1
    31   18   19 2
    32   18   20 am
    33   20   21 1
    34   20   22 1
    35   21   40 1
    36   21   41 1
    37   21   42 1
    38   22   23 1
    39   22   43 1
    40   22   44 1
    41   23   28 ar
    42   23   24 ar
    43   24   25 ar
    44   24   45 1
    45   25   26 ar
    46   25   46 1
    47   26   27 ar
    48   26   47 1
    49   27   28 ar
    50   27   48 1
    51   28   49 1
@<TRIPOS>MOLECULE
ZINC01893694
   66    70     0     0     0
SMALL
USER_CHARGES
benzofuran-2-ylmethyl [2-(1H-indol-3-yl)-1-methyl-1-(1-phenylethylcarbamoyl)ethyl]aminoformate
@<TRIPOS>ATOM
      1 C1          8.6921    0.9066   -6.9622 C.3       1 <0>        -0.1591
      2 C2          7.6455    1.9393   -6.5393 C.3       1 <0>         0.1837
      3 H1          7.9003    2.9101   -6.9646 H         1 <0>         0.0997
      4 C3          6.2888    1.5129   -7.0381 C.ar      1 <0>        -0.0957
      5 C4          5.5722    0.5493   -6.3534 C.ar      1 <0>        -0.1168
      6 C5          4.3259    0.1613   -6.8085 C.ar      1 <0>        -0.1136
      7 C6          3.8002    0.7303   -7.9534 C.ar      1 <0>        -0.1165
      8 C7          4.5191    1.6901   -8.6410 C.ar      1 <0>        -0.1137
      9 C8          5.7635    2.0813   -8.1835 C.ar      1 <0>        -0.1068
     10 N1          7.6196    2.0381   -5.0779 N.am      1 <0>        -0.7287
     11 C9          8.4883    2.8487   -4.4417 C.2       1 <0>         0.5196
     12 O1          9.2915    3.4964   -5.0791 O.2       1 <0>        -0.5002
     13 C10         8.4616    2.9502   -2.9384 C.3       1 <0>         0.1837
     14 C11         9.3005    1.8214   -2.3360 C.3       1 <0>        -0.1654
     15 C12         9.0390    4.3002   -2.5081 C.3       1 <0>        -0.0495
     16 C13         8.1798    5.4111   -3.0545 C.2       1 <0>        -0.1481
     17 C14         7.0795    5.2714   -3.8105 C.2       1 <0>         0.0441
     18 N2          6.5646    6.5016   -4.1170 N.pl3     1 <0>        -0.5938
     19 H2          5.7707    6.6557   -4.6526 H         1 <0>         0.4140
     20 C15         7.3409    7.4881   -3.5513 C.ar      1 <0>         0.1002
     21 C16         8.3834    6.8482   -2.8560 C.ar      1 <0>        -0.1000
     22 C17         9.3335    7.6082   -2.1716 C.ar      1 <0>        -0.0671
     23 C18         9.2439    8.9719   -2.1779 C.ar      1 <0>        -0.1478
     24 C19         8.2156    9.6077   -2.8594 C.ar      1 <0>        -0.0971
     25 C20         7.2715    8.8772   -3.5476 C.ar      1 <0>        -0.1330
     26 N3          7.0796    2.8372   -2.4657 N.am      1 <0>        -0.7055
     27 C21         6.8105    2.9073   -1.1469 C.2       1 <0>         0.6623
     28 O2          7.7143    3.0642   -0.3500 O.2       1 <0>        -0.5524
     29 O3          5.5404    2.8034   -0.7125 O.3       1 <0>        -0.3653
     30 C22         5.3250    2.8878    0.7209 C.3       1 <0>         0.1669
     31 C23         3.8535    2.7520    1.0166 C.2       1 <0>         0.0182
     32 C24         3.2216    1.5935    1.2489 C.2       1 <0>        -0.1622
     33 C25         1.8140    1.9356    1.4860 C.ar      1 <0>        -0.1389
     34 C26         0.6672    1.1982    1.7767 C.ar      1 <0>        -0.0655
     35 C27        -0.5289    1.8409    1.9386 C.ar      1 <0>        -0.1361
     36 C28        -0.6053    3.2216    1.8259 C.ar      1 <0>        -0.0863
     37 C29         0.5181    3.9673    1.5394 C.ar      1 <0>        -0.1092
     38 C30         1.7423    3.3335    1.3658 C.ar      1 <0>         0.0625
     39 O4          2.9845    3.7756    1.0852 O.3       1 <0>        -0.1864
     40 H3          8.4373   -0.0641   -6.5370 H         1 <0>         0.0604
     41 H4          8.7114    0.8332   -8.0496 H         1 <0>         0.0700
     42 H5          9.6733    1.2150   -6.6015 H         1 <0>         0.0677
     43 H6          5.9845    0.1021   -5.4610 H         1 <0>         0.1194
     44 H7          3.7641   -0.5883   -6.2711 H         1 <0>         0.1248
     45 H8          2.8276    0.4253   -8.3104 H         1 <0>         0.1241
     46 H9          4.1084    2.1347   -9.5355 H         1 <0>         0.1253
     47 H10         6.3252    2.8312   -8.7207 H         1 <0>         0.1248
     48 H11         6.9772    1.5200   -4.5681 H         1 <0>         0.3980
     49 H12         8.8892    0.8596   -2.6426 H         1 <0>         0.0646
     50 H13        10.3288    1.9054   -2.6877 H         1 <0>         0.0803
     51 H14         9.2813    1.8948   -1.2487 H         1 <0>         0.0977
     52 H15         9.0577    4.3570   -1.4197 H         1 <0>         0.1067
     53 H16        10.0531    4.4014   -2.8947 H         1 <0>         0.0963
     54 H17         6.6621    4.3277   -4.1294 H         1 <0>         0.1518
     55 H18        10.1367    7.1203   -1.6394 H         1 <0>         0.1214
     56 H19         9.9794    9.5594   -1.6485 H         1 <0>         0.1223
     57 H20         8.1582   10.6862   -2.8551 H         1 <0>         0.1244
     58 H21         6.4740    9.3812   -4.0734 H         1 <0>         0.1183
     59 H22         6.3581    2.7120   -3.1019 H         1 <0>         0.4025
     60 H23         5.6815    3.8511    1.0858 H         1 <0>         0.0958
     61 H24         5.8711    2.0862    1.2182 H         1 <0>         0.1121
     62 H25         3.6597    0.6064    1.2589 H         1 <0>         0.1633
     63 H26         0.7223    0.1236    1.8691 H         1 <0>         0.1298
     64 H27        -1.4190    1.2704    2.1593 H         1 <0>         0.1321
     65 H28        -1.5555    3.7170    1.9607 H         1 <0>         0.1377
     66 H29         0.4469    5.0413    1.4504 H         1 <0>         0.1341
@<TRIPOS>BOND
     1    1    2 1
     2    1   40 1
     3    1   41 1
     4    1   42 1
     5    2    3 1
     6    2    4 1
     7    2   10 1
     8    4    9 ar
     9    4    5 ar
    10    5    6 ar
    11    5   43 1
    12    6    7 ar
    13    6   44 1
    14    7    8 ar
    15    7   45 1
    16    8    9 ar
    17    8   46 1
    18    9   47 1
    19   10   11 am
    20   10   48 1
    21   11   12 2
    22   11   13 1
    23   13   14 1
    24   13   15 1
    25   13   26 1
    26   14   49 1
    27   14   50 1
    28   14   51 1
    29   15   16 1
    30   15   52 1
    31   15   53 1
    32   16   21 1
    33   16   17 2
    34   17   18 1
    35   17   54 1
    36   18   19 1
    37   18   20 1
    38   20   25 ar
    39   20   21 ar
    40   21   22 ar
    41   22   23 ar
    42   22   55 1
    43   23   24 ar
    44   23   56 1
    45   24   25 ar
    46   24   57 1
    47   25   58 1
    48   26   27 am
    49   26   59 1
    50   27   28 2
    51   27   29 1
    52   29   30 1
    53   30   31 1
    54   30   60 1
    55   30   61 1
    56   31   39 1
    57   31   32 2
    58   32   33 1
    59   32   62 1
    60   33   38 ar
    61   33   34 ar
    62   34   35 ar
    63   34   63 1
    64   35   36 ar
    65   35   64 1
    66   36   37 ar
    67   36   65 1
    68   37   38 ar
    69   37   66 1
    70   38   39 1
@<TRIPOS>MOLECULE
ZINC22441997
   51    53     0     0     0
SMALL
USER_CHARGES

@<TRIPOS>ATOM
      1 C1         -0.0173    1.4248    0.0099 C.3       1 <0>         0.0225
      2 O1          0.0021   -0.0041    0.0020 O.3       1 <0>        -0.3192
      3 C2         -1.2010   -0.6378    0.0101 C.ar      1 <0>         0.1169
      4 C3         -2.3745    0.1018    0.0196 C.ar      1 <0>        -0.1635
      5 C4         -3.5964   -0.5419    0.0282 C.ar      1 <0>        -0.1413
      6 C5         -3.6502   -1.9280    0.0270 C.ar      1 <0>         0.0743
      7 C6         -2.4770   -2.6674    0.0171 C.ar      1 <0>        -0.0641
      8 C7         -1.2548   -2.0235    0.0032 C.ar      1 <0>        -0.0905
      9 C8          0.0200   -2.8270   -0.0134 C.3       1 <0>         0.1159
     10 N1          0.5756   -2.8920    1.3450 N.3       1 <0>        -0.6819
     11 C9          1.8218   -3.6694    1.3675 C.3       1 <0>         0.0723
     12 H1          1.7553   -4.4846    0.6470 H         1 <0>         0.1257
     13 C10         2.9986   -2.7597    1.0031 C.3       1 <0>        -0.1672
     14 C11         3.1307   -1.6629    2.0636 C.3       1 <0>        -0.1484
     15 C12         3.3022   -2.3097    3.4398 C.3       1 <0>        -0.0080
     16 N2          2.1335   -3.1452    3.7408 N.4       1 <0>        -0.5050
     17 C13         2.0412   -4.2427    2.7691 C.3       1 <0>         0.0963
     18 H2          2.9659   -4.8195    2.7846 H         1 <0>         0.1451
     19 C14         0.8853   -5.1393    3.1310 C.ar      1 <0>        -0.1349
     20 C15        -0.3036   -4.5898    3.5733 C.ar      1 <0>        -0.0867
     21 C16        -1.3639   -5.4123    3.9052 C.ar      1 <0>        -0.1115
     22 C17        -1.2355   -6.7842    3.7945 C.ar      1 <0>        -0.0913
     23 C18        -0.0470   -7.3336    3.3513 C.ar      1 <0>        -0.1122
     24 C19         1.0119   -6.5110    3.0153 C.ar      1 <0>        -0.0915
     25 O2         -4.8533   -2.5618    0.0360 O.3       1 <0>        -0.3088
     26 C20        -6.0206   -1.7377    0.0464 C.3       1 <0>         0.6044
     27 F1         -6.0305   -0.9286   -1.0949 F         1 <0>        -0.1634
     28 F2         -7.1623   -2.5462    0.0547 F         1 <0>        -0.1261
     29 F3         -6.0120   -0.9313    1.1896 F         1 <0>        -0.1651
     30 H3          1.0053    1.8021    0.0021 H         1 <0>         0.1046
     31 H4         -0.5445    1.7859   -0.8732 H         1 <0>         0.0618
     32 H5         -0.5275    1.7763    0.9067 H         1 <0>         0.0594
     33 H6         -2.3327    1.1810    0.0205 H         1 <0>         0.1419
     34 H7         -4.5101    0.0339    0.0363 H         1 <0>         0.1399
     35 H8         -2.5189   -3.7466    0.0162 H         1 <0>         0.1472
     36 H9         -0.1909   -3.8358   -0.3683 H         1 <0>         0.0927
     37 H10         0.7408   -2.3512   -0.6783 H         1 <0>         0.0603
     38 H11         0.7196   -1.9669    1.7214 H         1 <0>         0.3401
     39 H12         3.9164   -3.3467    0.9696 H         1 <0>         0.0905
     40 H13         2.8197   -2.3049    0.0288 H         1 <0>         0.0970
     41 H14         4.0003   -1.0444    1.8413 H         1 <0>         0.1161
     42 H15         2.2332   -1.0444    2.0614 H         1 <0>         0.0875
     43 H16         4.2001   -2.9276    3.4410 H         1 <0>         0.1333
     44 H17         3.3967   -1.5316    4.1972 H         1 <0>         0.1351
     45 H18         2.2248   -3.5272    4.6702 H         1 <0>         0.4311
     46 H19        -0.4039   -3.5180    3.6598 H         1 <0>         0.1200
     47 H20        -2.2925   -4.9830    4.2514 H         1 <0>         0.1305
     48 H21        -2.0637   -7.4268    4.0545 H         1 <0>         0.1315
     49 H22         0.0534   -8.4055    3.2651 H         1 <0>         0.1328
     50 H23         1.9392   -6.9401    2.6656 H         1 <0>         0.1289
     51 H24         1.2974   -2.5826    3.6913 H         1 <0>         0.4252
@<TRIPOS>BOND
     1    1    2 1
     2    1   30 1
     3    1   31 1
     4    1   32 1
     5    2    3 1
     6    3    8 ar
     7    3    4 ar
     8    4    5 ar
     9    4   33 1
    10    5    6 ar
    11    5   34 1
    12    6    7 ar
    13    6   25 1
    14    7    8 ar
    15    7   35 1
    16    8    9 1
    17    9   10 1
    18    9   36 1
    19    9   37 1
    20   10   11 1
    21   10   38 1
    22   11   12 1
    23   11   17 1
    24   11   13 1
    25   13   14 1
    26   13   39 1
    27   13   40 1
    28   14   15 1
    29   14   41 1
    30   14   42 1
    31   15   16 1
    32   15   43 1
    33   15   44 1
    34   16   17 1
    35   16   45 1
    36   16   51 1
    37   17   18 1
    38   17   19 1
    39   19   24 ar
    40   19   20 ar
    41   20   21 ar
    42   20   46 1
    43   21   22 ar
    44   21   47 1
    45   22   23 ar
    46   22   48 1
    47   23   24 ar
    48   23   49 1
    49   24   50 1
    50   25   26 1
    51   26   27 1
    52   26   28 1
    53   26   29 1
@<TRIPOS>MOLECULE
ZINC22441997
   51    53     0     0     0
SMALL
USER_CHARGES

@<TRIPOS>ATOM
      1 C1         -0.0173    1.4248    0.0099 C.3       1 <0>         0.0201
      2 O1          0.0021   -0.0041    0.0020 O.3       1 <0>        -0.3212
      3 C2          0.6062   -0.6075   -1.0563 C.ar      1 <0>         0.1379
      4 C3          1.1729    0.1613   -2.0623 C.ar      1 <0>        -0.1586
      5 C4          1.7860   -0.4515   -3.1375 C.ar      1 <0>        -0.1172
      6 C5          1.8355   -1.8358   -3.2112 C.ar      1 <0>         0.0798
      7 C6          1.2694   -2.6044   -2.2052 C.ar      1 <0>        -0.0596
      8 C7          0.6606   -1.9914   -1.1272 C.ar      1 <0>        -0.1600
      9 C8          0.0504   -2.8265   -0.0312 C.3       1 <0>         0.0496
     10 N1         -1.4026   -2.9101   -0.2306 N.4       1 <0>        -0.5019
     11 C9         -1.9974   -3.7242    0.8378 C.3       1 <0>         0.0411
     12 H1         -1.5068   -4.6970    0.8700 H         1 <0>         0.1436
     13 C10        -1.8154   -3.0150    2.1825 C.3       1 <0>        -0.1455
     14 C11        -2.5571   -1.6759    2.1489 C.3       1 <0>        -0.1345
     15 C12        -4.0347   -1.9244    1.8376 C.3       1 <0>         0.0440
     16 N2         -4.1556   -2.6039    0.5414 N.3       1 <0>        -0.6963
     17 C13        -3.4911   -3.9142    0.5639 C.3       1 <0>         0.1128
     18 H2         -3.9290   -4.5298    1.3496 H         1 <0>         0.0944
     19 C14        -3.6748   -4.5948   -0.7680 C.ar      1 <0>        -0.1258
     20 C15        -3.5833   -3.8625   -1.9369 C.ar      1 <0>        -0.1312
     21 C16        -3.7519   -4.4868   -3.1586 C.ar      1 <0>        -0.1085
     22 C17        -4.0114   -5.8435   -3.2116 C.ar      1 <0>        -0.1005
     23 C18        -4.1020   -6.5760   -2.0428 C.ar      1 <0>        -0.1051
     24 C19        -3.9292   -5.9525   -0.8212 C.ar      1 <0>        -0.1001
     25 O2          2.4388   -2.4392   -4.2700 O.3       1 <0>        -0.3069
     26 C20         3.0003   -1.5861   -5.2694 C.3       1 <0>         0.6051
     27 F1          3.9810   -0.7730   -4.6912 F         1 <0>        -0.1612
     28 F2          3.5762   -2.3658   -6.2782 F         1 <0>        -0.1215
     29 F3          1.9934   -0.7842   -5.8174 F         1 <0>        -0.1624
     30 H3          1.0053    1.8021    0.0021 H         1 <0>         0.0677
     31 H4         -0.5445    1.7859   -0.8732 H         1 <0>         0.0664
     32 H5         -0.5275    1.7763    0.9067 H         1 <0>         0.1133
     33 H6          1.1343    1.2391   -2.0050 H         1 <0>         0.1528
     34 H7          2.2266    0.1471   -3.9211 H         1 <0>         0.1487
     35 H8          1.3079   -3.6822   -2.2626 H         1 <0>         0.1567
     36 H9          0.4789   -3.8285   -0.0565 H         1 <0>         0.1408
     37 H10         0.2587   -2.3666    0.9349 H         1 <0>         0.1451
     38 H11        -2.2220   -3.6367    2.9802 H         1 <0>         0.1100
     39 H12        -0.7545   -2.8394    2.3611 H         1 <0>         0.0947
     40 H13        -2.4669   -1.1855    3.1181 H         1 <0>         0.0964
     41 H14        -2.1245   -1.0396    1.3768 H         1 <0>         0.0731
     42 H15        -4.4700   -2.5493    2.6173 H         1 <0>         0.0509
     43 H16        -4.5629   -0.9717    1.7988 H         1 <0>         0.0949
     44 H17        -3.3806   -2.8025   -1.8955 H         1 <0>         0.1262
     45 H18        -3.6811   -3.9145   -4.0718 H         1 <0>         0.1317
     46 H19        -4.1438   -6.3311   -4.1661 H         1 <0>         0.1324
     47 H20        -4.3051   -7.6359   -2.0841 H         1 <0>         0.1332
     48 H21        -3.9962   -6.5255    0.0918 H         1 <0>         0.1295
     49 H22        -1.7992   -1.9827   -0.2071 H         1 <0>         0.4314
     50 H23        -5.1230   -2.6940    0.2692 H         1 <0>         0.3708
     51 H24        -1.5954   -3.3359   -1.1248 H         1 <0>         0.4228
@<TRIPOS>BOND
     1    1    2 1
     2    1   30 1
     3    1   31 1
     4    1   32 1
     5    2    3 1
     6    3    8 ar
     7    3    4 ar
     8    4    5 ar
     9    4   33 1
    10    5    6 ar
    11    5   34 1
    12    6    7 ar
    13    6   25 1
    14    7    8 ar
    15    7   35 1
    16    8    9 1
    17    9   10 1
    18    9   36 1
    19    9   37 1
    20   10   11 1
    21   10   49 1
    22   10   51 1
    23   11   12 1
    24   11   17 1
    25   11   13 1
    26   13   14 1
    27   13   38 1
    28   13   39 1
    29   14   15 1
    30   14   40 1
    31   14   41 1
    32   15   16 1
    33   15   42 1
    34   15   43 1
    35   16   17 1
    36   16   50 1
    37   17   18 1
    38   17   19 1
    39   19   24 ar
    40   19   20 ar
    41   20   21 ar
    42   20   44 1
    43   21   22 ar
    44   21   45 1
    45   22   23 ar
    46   22   46 1
    47   23   24 ar
    48   23   47 1
    49   24   48 1
    50   25   26 1
    51   26   27 1
    52   26   28 1
    53   26   29 1
@<TRIPOS>MOLECULE
ZINC03935475
   84    88     0     0     0
SMALL
USER_CHARGES
N-[1-[3-[1-benzoyl-3-(3,4-dichlorophenyl)-3-piperidyl]propyl]-4-phenyl-4-piperidyl]-N-methyl-acetamide
@<TRIPOS>ATOM
      1 C1         -1.7697   -6.2079   -2.9380 C.3       1 <0>        -0.1803
      2 C2         -1.5505   -6.7090   -1.5338 C.2       1 <0>         0.5117
      3 O1         -0.9517   -7.7470   -1.3470 O.2       1 <0>        -0.5158
      4 N1         -2.0200   -6.0038   -0.4856 N.am      1 <0>        -0.6196
      5 C3         -2.8344   -4.8075   -0.7134 C.3       1 <0>         0.0598
      6 C4         -1.7158   -6.4334    0.8815 C.3       1 <0>         0.2218
      7 C5         -2.0581   -5.3066    1.8601 C.3       1 <0>        -0.1522
      8 C6         -1.1856   -4.0876    1.5522 C.3       1 <0>        -0.0143
      9 C7          0.5945   -5.5017    0.7132 C.3       1 <0>        -0.0015
     10 C8         -0.2249   -6.7629    0.9960 C.3       1 <0>        -0.1633
     11 C9          1.0949   -3.2759    1.5231 C.3       1 <0>        -0.0069
     12 C10         2.5309   -3.6438    1.9020 C.3       1 <0>        -0.1650
     13 C11         3.4307   -2.4167    1.7428 C.3       1 <0>        -0.1087
     14 C12         4.8879   -2.8187    1.9788 C.3       1 <0>        -0.0228
     15 C13         5.0117   -3.5224    3.3322 C.3       1 <0>        -0.1128
     16 C14         4.5262   -2.5868    4.4417 C.3       1 <0>        -0.1363
     17 C15         5.4048   -1.3321    4.4670 C.3       1 <0>         0.0868
     18 N2          5.4068   -0.7292    3.1271 N.am      1 <0>        -0.6076
     19 C16         5.7706   -1.5667    1.9761 C.3       1 <0>         0.1233
     20 C17         5.0816    0.5677    2.9572 C.2       1 <0>         0.5642
     21 O2          5.0056    1.0335    1.8371 O.2       1 <0>        -0.5271
     22 C18         4.8172    1.4237    4.1333 C.ar      1 <0>        -0.1380
     23 C19         3.8267    2.4055    4.0772 C.ar      1 <0>        -0.0658
     24 C20         3.5814    3.1974    5.1799 C.ar      1 <0>        -0.1235
     25 C21         4.3223    3.0274    6.3360 C.ar      1 <0>        -0.0910
     26 C22         5.3095    2.0599    6.3964 C.ar      1 <0>        -0.1242
     27 C23         5.5609    1.2575    5.3027 C.ar      1 <0>        -0.0943
     28 C24         5.3358   -3.7522    0.8837 C.ar      1 <0>        -0.0612
     29 C25         6.5760   -4.3590    0.9573 C.ar      1 <0>        -0.0938
     30 C26         6.9904   -5.2105   -0.0493 C.ar      1 <0>        -0.0875
     31 C27         6.1595   -5.4650   -1.1258 C.ar      1 <0>        -0.0308
     32 C28         4.9176   -4.8575   -1.1994 C.ar      1 <0>        -0.0305
     33 C29         4.5067   -4.0010   -0.1937 C.ar      1 <0>        -0.1108
     34 Cl1         3.8765   -5.1707   -2.5528 Cl        1 <0>        -0.0437
     35 Cl2         6.6766   -6.5401   -2.3869 Cl        1 <0>        -0.0352
     36 C30        -2.5292   -7.6567    1.2177 C.ar      1 <0>        -0.1097
     37 C31        -2.7954   -7.9685    2.5378 C.ar      1 <0>        -0.1154
     38 C32        -3.5455   -9.0879    2.8460 C.ar      1 <0>        -0.1181
     39 C33        -4.0210   -9.9012    1.8343 C.ar      1 <0>        -0.1054
     40 C34        -3.7501   -9.5926    0.5144 C.ar      1 <0>        -0.1172
     41 C35        -3.0043   -8.4702    0.2060 C.ar      1 <0>        -0.0910
     42 H1         -1.3055   -5.2281   -3.0508 H         1 <0>         0.0906
     43 H2         -1.3229   -6.9053   -3.6466 H         1 <0>         0.0999
     44 H3         -2.8392   -6.1277   -3.1324 H         1 <0>         0.0950
     45 H4         -2.1822   -3.9477   -0.8667 H         1 <0>         0.0612
     46 H5         -3.4560   -4.9540   -1.5967 H         1 <0>         0.0865
     47 H6         -3.4709   -4.6308    0.1536 H         1 <0>         0.0853
     48 H7         -1.8694   -5.6408    2.8803 H         1 <0>         0.1081
     49 H8         -3.1091   -5.0381    1.7536 H         1 <0>         0.1241
     50 H9         -1.4168   -3.2883    2.2563 H         1 <0>         0.1344
     51 H10        -1.3849   -3.7455    0.5366 H         1 <0>         0.1377
     52 H11         0.3868   -5.1530   -0.2985 H         1 <0>         0.1261
     53 H12         1.6562   -5.7295    0.8079 H         1 <0>         0.1313
     54 H13        -0.0074   -7.1200    2.0026 H         1 <0>         0.0973
     55 H14         0.0339   -7.5350    0.2715 H         1 <0>         0.1491
     56 H15         0.7400   -2.4781    2.1755 H         1 <0>         0.1314
     57 H16         1.0678   -2.9374    0.4874 H         1 <0>         0.1297
     58 H17         2.8857   -4.4416    1.2496 H         1 <0>         0.0949
     59 H18         2.5580   -3.9823    2.9377 H         1 <0>         0.0941
     60 H19         3.1412   -1.6572    2.4691 H         1 <0>         0.0867
     61 H20         3.3231   -2.0155    0.7351 H         1 <0>         0.0808
     62 H21         4.4036   -4.4270    3.3281 H         1 <0>         0.0715
     63 H22         6.0541   -3.7866    3.5101 H         1 <0>         0.0770
     64 H23         4.5927   -3.0969    5.4027 H         1 <0>         0.0839
     65 H24         3.4913   -2.3024    4.2516 H         1 <0>         0.0685
     66 H25         6.4225   -1.6043    4.7467 H         1 <0>         0.0764
     67 H26         5.0037   -0.6196    5.1877 H         1 <0>         0.1053
     68 H27         6.8182   -1.8580    2.0527 H         1 <0>         0.0779
     69 H28         5.6109   -1.0089    1.0533 H         1 <0>         0.1008
     70 H29         3.2507    2.5422    3.1738 H         1 <0>         0.1304
     71 H30         2.8123    3.9545    5.1393 H         1 <0>         0.1320
     72 H31         4.1289    3.6525    7.1952 H         1 <0>         0.1306
     73 H32         5.8842    1.9322    7.3018 H         1 <0>         0.1322
     74 H33         6.3313    0.5021    5.3513 H         1 <0>         0.1330
     75 H34         7.2231   -4.1639    1.7997 H         1 <0>         0.1412
     76 H35         7.9611   -5.6806    0.0066 H         1 <0>         0.1481
     77 H36         3.5380   -3.5270   -0.2504 H         1 <0>         0.1410
     78 H37        -2.4204   -7.3353    3.3284 H         1 <0>         0.1191
     79 H38        -3.7569   -9.3292    3.8772 H         1 <0>         0.1268
     80 H39        -4.6040  -10.7779    2.0752 H         1 <0>         0.1269
     81 H40        -4.1213  -10.2282   -0.2759 H         1 <0>         0.1253
     82 H41        -2.7926   -8.2291   -0.8252 H         1 <0>         0.1286
     83 N3          0.2360   -4.4645    1.7037 N.4       1 <0>        -0.3924
     84 H42         0.3820   -4.8409    2.6477 H         1 <0>         0.4252
@<TRIPOS>BOND
     1    1    2 1
     2    1   42 1
     3    1   43 1
     4    1   44 1
     5    2    3 2
     6    2    4 am
     7    4    5 1
     8    4    6 1
     9    5   45 1
    10    5   46 1
    11    5   47 1
    12    6   10 1
    13    6    7 1
    14    6   36 1
    15    7    8 1
    16    7   48 1
    17    7   49 1
    18    8   50 1
    19    8   51 1
    20    8   83 1
    21    9   10 1
    22    9   52 1
    23    9   53 1
    24    9   83 1
    25   10   54 1
    26   10   55 1
    27   11   12 1
    28   11   56 1
    29   11   57 1
    30   11   83 1
    31   12   13 1
    32   12   58 1
    33   12   59 1
    34   13   14 1
    35   13   60 1
    36   13   61 1
    37   14   19 1
    38   14   15 1
    39   14   28 1
    40   15   16 1
    41   15   62 1
    42   15   63 1
    43   16   17 1
    44   16   64 1
    45   16   65 1
    46   17   18 1
    47   17   66 1
    48   17   67 1
    49   18   19 1
    50   18   20 am
    51   19   68 1
    52   19   69 1
    53   20   21 2
    54   20   22 1
    55   22   27 ar
    56   22   23 ar
    57   23   24 ar
    58   23   70 1
    59   24   25 ar
    60   24   71 1
    61   25   26 ar
    62   25   72 1
    63   26   27 ar
    64   26   73 1
    65   27   74 1
    66   28   33 ar
    67   28   29 ar
    68   29   30 ar
    69   29   75 1
    70   30   31 ar
    71   30   76 1
    72   31   32 ar
    73   31   35 1
    74   32   33 ar
    75   32   34 1
    76   33   77 1
    77   36   41 ar
    78   36   37 ar
    79   37   38 ar
    80   37   78 1
    81   38   39 ar
    82   38   79 1
    83   39   40 ar
    84   39   80 1
    85   40   41 ar
    86   40   81 1
    87   41   82 1
    88   83   84 1
@<TRIPOS>MOLECULE
ZINC38334038
   61    65     0     0     0
SMALL
USER_CHARGES

@<TRIPOS>ATOM
      1 C1          0.1805    1.2630   -1.1231 C.ar      1 <0>        -0.0870
      2 C2          1.3276    2.0189   -0.9692 C.ar      1 <0>        -0.1019
      3 C3          2.5281    1.4008   -0.6732 C.ar      1 <0>        -0.1071
      4 C4          2.5814    0.0269   -0.5307 C.ar      1 <0>        -0.1404
      5 C5          1.4342   -0.7290   -0.6837 C.ar      1 <0>        -0.1187
      6 C6          0.2339   -0.1110   -0.9811 C.ar      1 <0>        -0.1022
      7 C7          3.8904   -0.6470   -0.2090 C.3       1 <0>        -0.0269
      8 C8          3.8054   -1.2850    1.1537 C.ar      1 <0>        -0.1531
      9 C9          4.3718   -0.6574    2.2473 C.ar      1 <0>        -0.1268
     10 C10         4.2938   -1.2426    3.4972 C.ar      1 <0>        -0.0911
     11 C11         3.6490   -2.4552    3.6536 C.ar      1 <0>        -0.0802
     12 C12         3.0817   -3.0825    2.5602 C.ar      1 <0>        -0.0970
     13 C13         3.1560   -2.4952    1.3110 C.ar      1 <0>        -0.1128
     14 C14         4.1820   -1.7219   -1.2580 C.3       1 <0>         0.0143
     15 H1          3.4580   -2.5306   -1.1582 H         1 <0>         0.1752
     16 C15         5.5928   -2.2738   -1.0410 C.3       1 <0>         0.0217
     17 H2          5.5397   -3.3443   -0.8427 H         1 <0>         0.1772
     18 C16         6.4215   -2.0261   -2.3083 C.3       1 <0>        -0.1193
     19 C17         5.7241   -2.7197   -3.4859 C.3       1 <0>        -0.1317
     20 C18         4.3091   -2.1536   -3.6244 C.3       1 <0>        -0.0168
     21 N1          4.0753   -1.1364   -2.5965 N.4       1 <0>        -0.3707
     22 C19         5.0132   -0.0215   -2.7480 C.3       1 <0>        -0.0273
     23 C20         6.4471   -0.5166   -2.5825 C.3       1 <0>        -0.1547
     24 N2          6.2179   -1.5921    0.1002 N.4       1 <0>        -0.5171
     25 C21         7.5833   -2.1009    0.2866 C.3       1 <0>         0.0316
     26 C22         8.1772   -1.5004    1.5347 C.ar      1 <0>        -0.1657
     27 C23         9.0274   -0.4144    1.4423 C.ar      1 <0>        -0.0764
     28 C24         9.5722    0.1365    2.5870 C.ar      1 <0>        -0.1046
     29 C25         9.2671   -0.3983    3.8250 C.ar      1 <0>        -0.0616
     30 C26         8.4172   -1.4840    3.9186 C.ar      1 <0>        -0.0995
     31 C27         7.8671   -2.0324    2.7734 C.ar      1 <0>        -0.0201
     32 Cl1         6.7942   -3.3921    2.8907 Cl        1 <0>        -0.0524
     33 H3         -0.7583    1.7463   -1.3499 H         1 <0>         0.1396
     34 H4          1.2859    3.0923   -1.0805 H         1 <0>         0.1392
     35 H5          3.4244    1.9913   -0.5536 H         1 <0>         0.1282
     36 H6          1.4760   -1.8025   -0.5731 H         1 <0>         0.1255
     37 H7         -0.6623   -0.7016   -1.1011 H         1 <0>         0.1385
     38 H8          4.6909    0.0927   -0.2145 H         1 <0>         0.1011
     39 H9          4.8757    0.2901    2.1251 H         1 <0>         0.1324
     40 H10         4.7371   -0.7525    4.3515 H         1 <0>         0.1417
     41 H11         3.5886   -2.9128    4.6301 H         1 <0>         0.1426
     42 H12         2.5782   -4.0301    2.6823 H         1 <0>         0.1420
     43 H13         2.7095   -2.9834    0.4573 H         1 <0>         0.1290
     44 H14         7.4357   -2.4031   -2.1760 H         1 <0>         0.1465
     45 H15         6.2833   -2.5335   -4.4028 H         1 <0>         0.1264
     46 H16         5.6717   -3.7923   -3.2991 H         1 <0>         0.1165
     47 H17         4.1942   -1.7042   -4.6107 H         1 <0>         0.1491
     48 H18         3.5842   -2.9595   -3.5094 H         1 <0>         0.1426
     49 H19         4.8966    0.4172   -3.7389 H         1 <0>         0.1543
     50 H20         4.8011    0.7348   -1.9922 H         1 <0>         0.1347
     51 H21         6.9160   -0.0010   -1.7444 H         1 <0>         0.0937
     52 H22         7.0095   -0.3207   -3.4954 H         1 <0>         0.1358
     53 H23         6.2503   -0.5994   -0.0776 H         1 <0>         0.4190
     54 H24         7.5565   -3.1863    0.3828 H         1 <0>         0.1473
     55 H25         8.1936   -1.8274   -0.5741 H         1 <0>         0.1494
     56 H26         9.2663    0.0035    0.4756 H         1 <0>         0.1432
     57 H27        10.2367    0.9847    2.5143 H         1 <0>         0.1486
     58 H28         9.6933    0.0323    4.7190 H         1 <0>         0.1516
     59 H29         8.1793   -1.9019    4.8856 H         1 <0>         0.1512
     60 H30         3.1403   -0.7755   -2.7135 H         1 <0>         0.4403
     61 H31         5.6771   -1.7670    0.9339 H         1 <0>         0.4329
@<TRIPOS>BOND
     1    1    6 ar
     2    1    2 ar
     3    1   33 1
     4    2    3 ar
     5    2   34 1
     6    3    4 ar
     7    3   35 1
     8    4    5 ar
     9    4    7 1
    10    5    6 ar
    11    5   36 1
    12    6   37 1
    13    7    8 1
    14    7   14 1
    15    7   38 1
    16    8   13 ar
    17    8    9 ar
    18    9   10 ar
    19    9   39 1
    20   10   11 ar
    21   10   40 1
    22   11   12 ar
    23   11   41 1
    24   12   13 ar
    25   12   42 1
    26   13   43 1
    27   14   15 1
    28   14   21 1
    29   14   16 1
    30   16   17 1
    31   16   18 1
    32   16   24 1
    33   18   23 1
    34   18   19 1
    35   18   44 1
    36   19   20 1
    37   19   45 1
    38   19   46 1
    39   20   21 1
    40   20   47 1
    41   20   48 1
    42   21   22 1
    43   21   60 1
    44   22   23 1
    45   22   49 1
    46   22   50 1
    47   23   51 1
    48   23   52 1
    49   24   25 1
    50   24   53 1
    51   24   61 1
    52   25   26 1
    53   25   54 1
    54   25   55 1
    55   26   31 ar
    56   26   27 ar
    57   27   28 ar
    58   27   56 1
    59   28   29 ar
    60   28   57 1
    61   29   30 ar
    62   29   58 1
    63   30   31 ar
    64   30   59 1
    65   31   32 1
@<TRIPOS>MOLECULE
ZINC38334038
   60    64     0     0     0
SMALL
USER_CHARGES

@<TRIPOS>ATOM
      1 C1          0.1339    1.1908   -1.0569 C.ar      1 <0>        -0.1107
      2 C2          1.2685    1.9645   -0.8990 C.ar      1 <0>        -0.1122
      3 C3          2.4818    1.3634   -0.6206 C.ar      1 <0>        -0.1129
      4 C4          2.5604   -0.0114   -0.4995 C.ar      1 <0>        -0.0593
      5 C5          1.4256   -0.7850   -0.6565 C.ar      1 <0>        -0.0975
      6 C6          0.2126   -0.1840   -0.9364 C.ar      1 <0>        -0.1117
      7 C7          3.8832   -0.6667   -0.1969 C.3       1 <0>        -0.0151
      8 C8          3.8240   -1.3136    1.1629 C.ar      1 <0>        -0.1336
      9 C9          4.3987   -0.6862    2.2524 C.ar      1 <0>        -0.1367
     10 C10         4.3444   -1.2796    3.4997 C.ar      1 <0>        -0.0978
     11 C11         3.7148   -2.5001    3.6576 C.ar      1 <0>        -0.0965
     12 C12         3.1392   -3.1270    2.5683 C.ar      1 <0>        -0.1035
     13 C13         3.1899   -2.5316    1.3218 C.ar      1 <0>        -0.1089
     14 C14         4.1791   -1.7310   -1.2555 C.3       1 <0>         0.0797
     15 H1          3.4718   -2.5539   -1.1515 H         1 <0>         0.1252
     16 C15         5.6052   -2.2562   -1.0673 C.3       1 <0>        -0.0051
     17 H2          5.5772   -3.3291   -0.8769 H         1 <0>         0.1428
     18 C16         6.4066   -1.9819   -2.3461 C.3       1 <0>        -0.1042
     19 C17         5.7107   -2.6834   -3.5194 C.3       1 <0>        -0.1466
     20 C18         4.2820   -2.1457   -3.6401 C.3       1 <0>         0.0443
     21 N1          4.0498   -1.1400   -2.5942 N.3       1 <0>        -0.4982
     22 C19         4.9566    0.0050   -2.7557 C.3       1 <0>         0.0362
     23 C20         6.4056   -0.4708   -2.6093 C.3       1 <0>        -0.1682
     24 N2          6.2362   -1.5711    0.0687 N.4       1 <0>        -0.5108
     25 C21         7.6109   -2.0618    0.2343 C.3       1 <0>         0.0306
     26 C22         8.2132   -1.4588    1.4772 C.ar      1 <0>        -0.1549
     27 C23         9.0484   -0.3617    1.3784 C.ar      1 <0>        -0.0780
     28 C24         9.6008    0.1914    2.5183 C.ar      1 <0>        -0.1071
     29 C25         9.3185   -0.3521    3.7578 C.ar      1 <0>        -0.0708
     30 C26         8.4837   -1.4488    3.8578 C.ar      1 <0>        -0.1020
     31 C27         7.9258   -1.9996    2.7176 C.ar      1 <0>        -0.0201
     32 Cl1         6.8718   -3.3732    2.8430 Cl        1 <0>        -0.0512
     33 H3         -0.8148    1.6608   -1.2701 H         1 <0>         0.1248
     34 H4          1.2071    3.0386   -0.9936 H         1 <0>         0.1245
     35 H5          3.3683    1.9679   -0.4979 H         1 <0>         0.1152
     36 H6          1.4871   -1.8592   -0.5627 H         1 <0>         0.1152
     37 H7         -0.6739   -0.7885   -1.0594 H         1 <0>         0.1242
     38 H8          4.6721    0.0854   -0.2074 H         1 <0>         0.0783
     39 H9          4.8906    0.2673    2.1289 H         1 <0>         0.1267
     40 H10         4.7941   -0.7898    4.3507 H         1 <0>         0.1330
     41 H11         3.6730   -2.9640    4.6320 H         1 <0>         0.1336
     42 H12         2.6477   -4.0808    2.6917 H         1 <0>         0.1345
     43 H13         2.7369   -3.0196    0.4715 H         1 <0>         0.1315
     44 H14         7.4291   -2.3419   -2.2322 H         1 <0>         0.1050
     45 H15         6.2561   -2.4811   -4.4412 H         1 <0>         0.0912
     46 H16         5.6825   -3.7578   -3.3378 H         1 <0>         0.0812
     47 H17         4.1470   -1.6888   -4.6204 H         1 <0>         0.0955
     48 H18         3.5736   -2.9653   -3.5197 H         1 <0>         0.0893
     49 H19         4.8156    0.4441   -3.7433 H         1 <0>         0.0986
     50 H20         4.7400    0.7511   -1.9912 H         1 <0>         0.0856
     51 H21         6.8771    0.0458   -1.7733 H         1 <0>         0.0595
     52 H22         6.9537   -0.2596   -3.5275 H         1 <0>         0.0993
     53 H23         6.2525   -0.5772   -0.1049 H         1 <0>         0.4180
     54 H24         7.6004   -3.1479    0.3258 H         1 <0>         0.1393
     55 H25         8.2057   -1.7760   -0.6332 H         1 <0>         0.1434
     56 H26         9.2695    0.0630    0.4104 H         1 <0>         0.1423
     57 H27        10.2536    1.0483    2.4406 H         1 <0>         0.1449
     58 H28         9.7508    0.0804    4.6481 H         1 <0>         0.1473
     59 H29         8.2635   -1.8735    4.8261 H         1 <0>         0.1477
     60 H30         5.7091   -1.7572    0.9087 H         1 <0>         0.4255
@<TRIPOS>BOND
     1    1    6 ar
     2    1    2 ar
     3    1   33 1
     4    2    3 ar
     5    2   34 1
     6    3    4 ar
     7    3   35 1
     8    4    5 ar
     9    4    7 1
    10    5    6 ar
    11    5   36 1
    12    6   37 1
    13    7    8 1
    14    7   14 1
    15    7   38 1
    16    8   13 ar
    17    8    9 ar
    18    9   10 ar
    19    9   39 1
    20   10   11 ar
    21   10   40 1
    22   11   12 ar
    23   11   41 1
    24   12   13 ar
    25   12   42 1
    26   13   43 1
    27   14   15 1
    28   14   21 1
    29   14   16 1
    30   16   17 1
    31   16   18 1
    32   16   24 1
    33   18   23 1
    34   18   19 1
    35   18   44 1
    36   19   20 1
    37   19   45 1
    38   19   46 1
    39   20   21 1
    40   20   47 1
    41   20   48 1
    42   21   22 1
    43   22   23 1
    44   22   49 1
    45   22   50 1
    46   23   51 1
    47   23   52 1
    48   24   25 1
    49   24   53 1
    50   24   60 1
    51   25   26 1
    52   25   54 1
    53   25   55 1
    54   26   31 ar
    55   26   27 ar
    56   27   28 ar
    57   27   56 1
    58   28   29 ar
    59   28   57 1
    60   29   30 ar
    61   29   58 1
    62   30   31 ar
    63   30   59 1
    64   31   32 1
@<TRIPOS>MOLECULE
ZINC38334038
   60    64     0     0     0
SMALL
USER_CHARGES

@<TRIPOS>ATOM
      1 C1          1.3276    1.9721   -2.6983 C.ar      1 <0>        -0.1038
      2 C2          2.5630    2.5404   -2.4495 C.ar      1 <0>        -0.1091
      3 C3          3.5319    1.8204   -1.7760 C.ar      1 <0>        -0.1120
      4 C4          3.2653    0.5323   -1.3509 C.ar      1 <0>        -0.1260
      5 C5          2.0297   -0.0356   -1.5989 C.ar      1 <0>        -0.1180
      6 C6          1.0612    0.6839   -2.2737 C.ar      1 <0>        -0.1092
      7 C7          4.3220   -0.2530   -0.6175 C.3       1 <0>         0.0006
      8 C8          3.8645   -0.5141    0.7944 C.ar      1 <0>        -0.0328
      9 C9          4.3967    0.2172    1.8398 C.ar      1 <0>        -0.0807
     10 C10         3.9770   -0.0223    3.1350 C.ar      1 <0>        -0.1020
     11 C11         3.0247   -0.9927    3.3847 C.ar      1 <0>        -0.0996
     12 C12         2.4918   -1.7233    2.3392 C.ar      1 <0>        -0.1143
     13 C13         2.9084   -1.4809    1.0435 C.ar      1 <0>        -0.1193
     14 C14         4.5555   -1.5853   -1.3325 C.3       1 <0>         0.0381
     15 H1          3.6360   -2.1705   -1.3162 H         1 <0>         0.1420
     16 C15         5.6631   -2.3597   -0.6146 C.3       1 <0>         0.0891
     17 H2          5.2717   -3.3137   -0.2613 H         1 <0>         0.1199
     18 C16         6.8121   -2.6087   -1.6005 C.3       1 <0>        -0.1390
     19 C17         6.2617   -3.3978   -2.7958 C.3       1 <0>        -0.1317
     20 C18         5.1348   -2.5901   -3.4437 C.3       1 <0>        -0.0067
     21 N1          4.9445   -1.3299   -2.7215 N.4       1 <0>        -0.3736
     22 C19         6.1595   -0.5135   -2.7749 C.3       1 <0>        -0.0129
     23 C20         7.3167   -1.2515   -2.1081 C.3       1 <0>        -0.1388
     24 N2          6.1518   -1.5750    0.5271 N.3       1 <0>        -0.6531
     25 C21         7.1228   -2.3437    1.3171 C.3       1 <0>         0.0975
     26 C22         7.4800   -1.5730    2.5620 C.ar      1 <0>        -0.0860
     27 C23         8.6125   -0.7807    2.5834 C.ar      1 <0>        -0.1030
     28 C24         8.9402   -0.0738    3.7251 C.ar      1 <0>        -0.1167
     29 C25         8.1356   -0.1587    4.8462 C.ar      1 <0>        -0.0980
     30 C26         7.0031   -0.9504    4.8260 C.ar      1 <0>        -0.1142
     31 C27         6.6715   -1.6539    3.6815 C.ar      1 <0>        -0.0052
     32 Cl1         5.2454   -2.6435    3.6531 Cl        1 <0>        -0.0496
     33 H3          0.5690    2.5363   -3.2206 H         1 <0>         0.1302
     34 H4          2.7712    3.5467   -2.7816 H         1 <0>         0.1304
     35 H5          4.4973    2.2641   -1.5822 H         1 <0>         0.1247
     36 H6          1.8217   -1.0422   -1.2674 H         1 <0>         0.1243
     37 H7          0.0960    0.2400   -2.4678 H         1 <0>         0.1299
     38 H8          5.2509    0.3170   -0.5989 H         1 <0>         0.1006
     39 H9          5.1407    0.9754    1.6447 H         1 <0>         0.1086
     40 H10         4.3934    0.5486    3.9518 H         1 <0>         0.1150
     41 H11         2.6974   -1.1803    4.3966 H         1 <0>         0.1165
     42 H12         1.7481   -2.4818    2.5343 H         1 <0>         0.1151
     43 H13         2.4893   -2.0491    0.2263 H         1 <0>         0.1051
     44 H14         7.6194   -3.1524   -1.1100 H         1 <0>         0.1187
     45 H15         7.0574   -3.5625   -3.5223 H         1 <0>         0.1010
     46 H16         5.8732   -4.3567   -2.4527 H         1 <0>         0.1011
     47 H17         5.3928   -2.3771   -4.4811 H         1 <0>         0.1311
     48 H18         4.2117   -3.1689   -3.4138 H         1 <0>         0.1300
     49 H19         6.4139   -0.3113   -3.8153 H         1 <0>         0.1319
     50 H20         5.9845    0.4297   -2.2573 H         1 <0>         0.1288
     51 H21         7.6890   -0.6632   -1.2694 H         1 <0>         0.0939
     52 H22         8.1170   -1.4068   -2.8317 H         1 <0>         0.1045
     53 H23         6.6862   -3.3026    1.5962 H         1 <0>         0.0929
     54 H24         8.0215   -2.5125    0.7239 H         1 <0>         0.0481
     55 H25         9.2416   -0.7143    1.7081 H         1 <0>         0.1247
     56 H26         9.8253    0.5448    3.7415 H         1 <0>         0.1291
     57 H27         8.3923    0.3936    5.7381 H         1 <0>         0.1327
     58 H28         6.3749   -1.0169    5.7019 H         1 <0>         0.1331
     59 H29         4.2025   -0.8149   -3.1713 H         1 <0>         0.4242
     60 H30         6.5476   -0.6989    0.2207 H         1 <0>         0.3417
@<TRIPOS>BOND
     1    1    6 ar
     2    1    2 ar
     3    1   33 1
     4    2    3 ar
     5    2   34 1
     6    3    4 ar
     7    3   35 1
     8    4    5 ar
     9    4    7 1
    10    5    6 ar
    11    5   36 1
    12    6   37 1
    13    7    8 1
    14    7   14 1
    15    7   38 1
    16    8   13 ar
    17    8    9 ar
    18    9   10 ar
    19    9   39 1
    20   10   11 ar
    21   10   40 1
    22   11   12 ar
    23   11   41 1
    24   12   13 ar
    25   12   42 1
    26   13   43 1
    27   14   15 1
    28   14   21 1
    29   14   16 1
    30   16   17 1
    31   16   18 1
    32   16   24 1
    33   18   23 1
    34   18   19 1
    35   18   44 1
    36   19   20 1
    37   19   45 1
    38   19   46 1
    39   20   21 1
    40   20   47 1
    41   20   48 1
    42   21   22 1
    43   21   59 1
    44   22   23 1
    45   22   49 1
    46   22   50 1
    47   23   51 1
    48   23   52 1
    49   24   25 1
    50   24   60 1
    51   25   26 1
    52   25   53 1
    53   25   54 1
    54   26   31 ar
    55   26   27 ar
    56   27   28 ar
    57   27   55 1
    58   28   29 ar
    59   28   56 1
    60   29   30 ar
    61   29   57 1
    62   30   31 ar
    63   30   58 1
    64   31   32 1
@<TRIPOS>MOLECULE
ZINC00860566
   45    48     0     0     0
SMALL
USER_CHARGES
N-(3-chlorophenyl)-2-[[4-phenyl-5-(4-pyridyl)-1,2,4-triazol-3-yl]sulfanyl]acetamide
@<TRIPOS>ATOM
      1 C1          2.4194   -4.1169   -0.3440 C.ar      1 <0>        -0.0948
      2 C2          1.5802   -4.1938    0.7524 C.ar      1 <0>        -0.1024
      3 C3          0.3997   -3.4771    0.7719 C.ar      1 <0>        -0.0980
      4 C4          0.0561   -2.6785   -0.3106 C.ar      1 <0>         0.0919
      5 C5          0.8981   -2.6075   -1.4122 C.ar      1 <0>        -0.0945
      6 C6          2.0801   -3.3221   -1.4235 C.ar      1 <0>        -0.1038
      7 N1         -1.1412   -1.9499   -0.2937 N.pl3     1 <0>        -0.4079
      8 C7         -1.2824   -0.5802   -0.2353 C.2       1 <0>         0.2274
      9 N2         -2.5705   -0.3250   -0.2461 N.2       1 <0>        -0.2507
     10 N3         -3.2356   -1.4231   -0.3013 N.2       1 <0>        -0.2859
     11 C8         -2.4133   -2.4495   -0.3292 C.2       1 <0>         0.1547
     12 S1         -2.8667   -4.1505   -0.4053 S.3       1 <0>         0.1058
     13 C9         -4.6697   -3.9945   -0.4293 C.3       1 <0>        -0.1556
     14 C10        -5.2918   -5.3655   -0.4949 C.2       1 <0>         0.5355
     15 O1         -4.5856   -6.3512   -0.5227 O.2       1 <0>        -0.4986
     16 N4         -6.6329   -5.4964   -0.5228 N.am      1 <0>        -0.6641
     17 C11        -7.2126   -6.7693   -0.4820 C.ar      1 <0>         0.1568
     18 C12        -8.4050   -7.0126   -1.1515 C.ar      1 <0>        -0.1385
     19 C13        -8.9725   -8.2711   -1.1141 C.ar      1 <0>        -0.0853
     20 C14        -8.3607   -9.2864   -0.4019 C.ar      1 <0>        -0.1235
     21 C15        -7.1754   -9.0464    0.2707 C.ar      1 <0>        -0.0149
     22 C16        -6.6000   -7.7899    0.2325 C.ar      1 <0>        -0.1148
     23 Cl1        -6.4108  -10.3238    1.1636 Cl        1 <0>        -0.0610
     24 C17        -0.1907    0.4136   -0.1777 C.ar      1 <0>         0.0260
     25 C18         1.1058    0.0379    0.1958 C.ar      1 <0>        -0.1572
     26 C19         2.0945    0.9982    0.2356 C.ar      1 <0>         0.1076
     27 N5          1.8321    2.2544   -0.0720 N.ar      1 <0>        -0.4737
     28 C20         0.6250    2.6510   -0.4290 C.ar      1 <0>         0.1062
     29 C21        -0.4231    1.7576   -0.4957 C.ar      1 <0>        -0.1288
     30 H1          3.3418   -4.6785   -0.3572 H         1 <0>         0.1370
     31 H2          1.8481   -4.8152    1.5941 H         1 <0>         0.1399
     32 H3         -0.2553   -3.5375    1.6284 H         1 <0>         0.1340
     33 H4          0.6311   -1.9909   -2.2577 H         1 <0>         0.1304
     34 H5          2.7376   -3.2637   -2.2782 H         1 <0>         0.1389
     35 H6         -5.0027   -3.4874    0.4763 H         1 <0>         0.1348
     36 H7         -4.9727   -3.4159   -1.3020 H         1 <0>         0.1337
     37 H8         -7.1962   -4.7082   -0.5711 H         1 <0>         0.4189
     38 H9         -8.8862   -6.2191   -1.7040 H         1 <0>         0.1347
     39 H10        -9.8977   -8.4613   -1.6377 H         1 <0>         0.1394
     40 H11        -8.8090  -10.2684   -0.3703 H         1 <0>         0.1369
     41 H12        -5.6749   -7.6026    0.7574 H         1 <0>         0.1467
     42 H13         1.3268   -0.9875    0.4531 H         1 <0>         0.1378
     43 H14         3.0974    0.7184    0.5225 H         1 <0>         0.1628
     44 H15         0.4558    3.6896   -0.6719 H         1 <0>         0.1667
     45 H16        -1.4083    2.0891   -0.7889 H         1 <0>         0.1495
@<TRIPOS>BOND
     1    1    6 ar
     2    1    2 ar
     3    1   30 1
     4    2    3 ar
     5    2   31 1
     6    3    4 ar
     7    3   32 1
     8    4    5 ar
     9    4    7 1
    10    5    6 ar
    11    5   33 1
    12    6   34 1
    13    7   11 1
    14    7    8 1
    15    8    9 2
    16    8   24 1
    17    9   10 1
    18   10   11 2
    19   11   12 1
    20   12   13 1
    21   13   14 1
    22   13   35 1
    23   13   36 1
    24   14   15 2
    25   14   16 am
    26   16   17 1
    27   16   37 1
    28   17   22 ar
    29   17   18 ar
    30   18   19 ar
    31   18   38 1
    32   19   20 ar
    33   19   39 1
    34   20   21 ar
    35   20   40 1
    36   21   22 ar
    37   21   23 1
    38   22   41 1
    39   24   29 ar
    40   24   25 ar
    41   25   26 ar
    42   25   42 1
    43   26   27 ar
    44   26   43 1
    45   27   28 ar
    46   28   29 ar
    47   28   44 1
    48   29   45 1
@<TRIPOS>MOLECULE
ZINC20025323
   45    47     0     0     0
SMALL
USER_CHARGES
N-[3,5-bis(trifluoromethyl)phenyl]-2,2-diphenyl-acetamide
@<TRIPOS>ATOM
      1 C1          4.3504    8.3334   -1.3082 C.ar      1 <0>        -0.1124
      2 C2          4.8152    7.4284   -2.2441 C.ar      1 <0>        -0.1225
      3 C3          4.9814    6.1003   -1.8982 C.ar      1 <0>        -0.1066
      4 C4          4.6824    5.6772   -0.6166 C.ar      1 <0>        -0.0755
      5 C5          4.2121    6.5811    0.3176 C.ar      1 <0>        -0.0801
      6 C6          4.0513    7.9103   -0.0266 C.ar      1 <0>        -0.1219
      7 C7          4.8631    4.2294   -0.2397 C.3       1 <0>        -0.0201
      8 C8          5.9812    4.1073    0.7634 C.ar      1 <0>        -0.0871
      9 C9          5.8330    4.6374    2.0315 C.ar      1 <0>        -0.1079
     10 C10         6.8565    4.5207    2.9533 C.ar      1 <0>        -0.1135
     11 C11         8.0324    3.8835    2.6036 C.ar      1 <0>        -0.1121
     12 C12         8.1827    3.3584    1.3337 C.ar      1 <0>        -0.1153
     13 C13         7.1570    3.4701    0.4137 C.ar      1 <0>        -0.1077
     14 C14         3.5864    3.7045    0.3648 C.2       1 <0>         0.5272
     15 O1          2.6243    4.4343    0.4783 O.2       1 <0>        -0.5011
     16 N1          3.5136    2.4241    0.7792 N.am      1 <0>        -0.6790
     17 C15         2.3001    1.9082    1.2476 C.ar      1 <0>         0.1613
     18 C16         2.2949    0.8604    2.1590 C.ar      1 <0>        -0.0727
     19 C17         1.0955    0.3541    2.6200 C.ar      1 <0>        -0.1603
     20 C18        -0.0993    0.8891    2.1747 C.ar      1 <0>        -0.0438
     21 C19        -0.0976    1.9319    1.2665 C.ar      1 <0>        -0.1603
     22 C20         1.0984    2.4430    0.8020 C.ar      1 <0>        -0.0551
     23 C21        -1.4021    2.5116    0.7835 C.3       1 <0>         0.5131
     24 F1         -1.7891    3.5571    1.6287 F         1 <0>        -0.1698
     25 F2         -1.2424    2.9988   -0.5181 F         1 <0>        -0.1712
     26 F3         -2.3858    1.5169    0.7917 F         1 <0>        -0.1724
     27 C22         1.0890   -0.7785    3.6141 C.3       1 <0>         0.5136
     28 F4          1.0669   -1.9989    2.9305 F         1 <0>        -0.1709
     29 F5          2.2392   -0.7092    4.4075 F         1 <0>        -0.1727
     30 F6         -0.0450   -0.6788    4.4272 F         1 <0>        -0.1711
     31 H1          4.2212    9.3710   -1.5782 H         1 <0>         0.1224
     32 H2          5.0489    7.7589   -3.2453 H         1 <0>         0.1238
     33 H3          5.3446    5.3933   -2.6293 H         1 <0>         0.1219
     34 H4          3.9743    6.2497    1.3176 H         1 <0>         0.1201
     35 H5          3.6885    8.6174    0.7046 H         1 <0>         0.1225
     36 H6          5.1108    3.6449   -1.1380 H         1 <0>         0.1199
     37 H7          4.9160    5.1391    2.3033 H         1 <0>         0.1216
     38 H8          6.7389    4.9307    3.9455 H         1 <0>         0.1248
     39 H9          8.8334    3.7957    3.3226 H         1 <0>         0.1247
     40 H10         9.1013    2.8607    1.0605 H         1 <0>         0.1264
     41 H11         7.2745    3.0599   -0.5784 H         1 <0>         0.1266
     42 H12         4.4081    1.7846    0.7492 H         1 <0>         0.4447
     43 H13         3.2278    0.4424    2.5074 H         1 <0>         0.1506
     44 H14        -1.0359    0.4914    2.5367 H         1 <0>         0.1518
     45 H15         1.0991    3.2574    0.0927 H         1 <0>         0.1662
@<TRIPOS>BOND
     1    1    6 ar
     2    1    2 ar
     3    1   31 1
     4    2    3 ar
     5    2   32 1
     6    3    4 ar
     7    3   33 1
     8    4    5 ar
     9    4    7 1
    10    5    6 ar
    11    5   34 1
    12    6   35 1
    13    7    8 1
    14    7   14 1
    15    7   36 1
    16    8   13 ar
    17    8    9 ar
    18    9   10 ar
    19    9   37 1
    20   10   11 ar
    21   10   38 1
    22   11   12 ar
    23   11   39 1
    24   12   13 ar
    25   12   40 1
    26   13   41 1
    27   14   15 2
    28   14   16 am
    29   16   17 1
    30   16   42 1
    31   17   22 ar
    32   17   18 ar
    33   18   19 ar
    34   18   43 1
    35   19   20 ar
    36   19   27 1
    37   20   21 ar
    38   20   44 1
    39   21   22 ar
    40   21   23 1
    41   22   45 1
    42   23   24 1
    43   23   25 1
    44   23   26 1
    45   27   28 1
    46   27   29 1
    47   27   30 1
@<TRIPOS>MOLECULE
ZINC02556565
   55    57     0     0     0
SMALL
USER_CHARGES
benzyl 3-(1H-indol-3-yl)-2-tert-butoxycarbonylamino-propanoate
@<TRIPOS>ATOM
      1 C1          4.0411    5.4391   -0.2606 C.3       1 <0>        -0.1896
      2 C2          4.5589    5.4190    1.1790 C.3       1 <0>         0.1396
      3 C3          4.1167    6.6952    1.8979 C.3       1 <0>        -0.1420
      4 C4          6.0870    5.3420    1.1703 C.3       1 <0>        -0.1835
      5 O1          4.0199    4.2621    1.8712 O.3       1 <0>        -0.3639
      6 C5          4.3181    3.0517    1.3626 C.2       1 <0>         0.6614
      7 O2          5.0100    2.9645    0.3675 O.2       1 <0>        -0.5438
      8 N1          3.8494    1.9367    1.9572 N.am      1 <0>        -0.6984
      9 C6          4.1739    0.6197    1.4037 C.3       1 <0>         0.1917
     10 H1          3.7102   -0.1553    2.0141 H         1 <0>         0.1292
     11 C7          3.6459    0.5244   -0.0291 C.3       1 <0>        -0.0597
     12 C8          2.1404    0.5910   -0.0152 C.2       1 <0>        -0.1712
     13 C9          1.2950   -0.4517   -0.0127 C.2       1 <0>         0.0606
     14 N2          0.0021   -0.0041    0.0020 N.pl3     1 <0>        -0.5942
     15 H2         -0.7842   -0.5720    0.0062 H         1 <0>         0.4167
     16 C10        -0.0166    1.3727    0.0096 C.ar      1 <0>         0.0941
     17 C11         1.3221    1.8059   -0.0009 C.ar      1 <0>        -0.0939
     18 C12         1.6123    3.1713    0.0041 C.ar      1 <0>        -0.0759
     19 C13         0.5931    4.0815    0.0191 C.ar      1 <0>        -0.1440
     20 C14        -0.7290    3.6593    0.0295 C.ar      1 <0>        -0.0967
     21 C15        -1.0380    2.3165    0.0295 C.ar      1 <0>        -0.1315
     22 C16         5.6689    0.4301    1.4018 C.2       1 <0>         0.4431
     23 O3          6.3997    1.3902    1.4666 O.2       1 <0>        -0.4706
     24 O4          6.1888   -0.8052    1.3280 O.3       1 <0>        -0.3526
     25 C17         7.6368   -0.9124    1.3309 C.3       1 <0>         0.1117
     26 C18         8.0333   -2.3636    1.2429 C.ar      1 <0>        -0.0988
     27 C19         8.2128   -3.1023    2.3975 C.ar      1 <0>        -0.0954
     28 C20         8.5718   -4.4348    2.3166 C.ar      1 <0>        -0.1229
     29 C21         8.7611   -5.0259    1.0814 C.ar      1 <0>        -0.1086
     30 C22         8.5872   -4.2856   -0.0730 C.ar      1 <0>        -0.1226
     31 C23         8.2231   -2.9546    0.0077 C.ar      1 <0>        -0.0944
     32 H3          2.9525    5.4940   -0.2544 H         1 <0>         0.0633
     33 H4          4.4457    6.3076   -0.7802 H         1 <0>         0.0714
     34 H5          4.3561    4.5299   -0.7727 H         1 <0>         0.0883
     35 H6          4.4857    6.6809    2.9234 H         1 <0>         0.0661
     36 H7          4.5214    7.5637    1.3782 H         1 <0>         0.0805
     37 H8          3.0281    6.7501    1.9041 H         1 <0>         0.0668
     38 H9          6.4020    4.4328    0.6582 H         1 <0>         0.0921
     39 H10         6.4916    6.2105    0.6507 H         1 <0>         0.0678
     40 H11         6.4559    5.3277    2.1959 H         1 <0>         0.0576
     41 H12         3.2971    2.0063    2.7515 H         1 <0>         0.4129
     42 H13         3.9637   -0.4198   -0.4714 H         1 <0>         0.0917
     43 H14         4.0408    1.3525   -0.6177 H         1 <0>         0.1034
     44 H15         1.5915   -1.4902   -0.0208 H         1 <0>         0.1720
     45 H16         2.6388    3.5071   -0.0036 H         1 <0>         0.1250
     46 H17         0.8182    5.1378    0.0225 H         1 <0>         0.1193
     47 H18        -1.5236    4.3907    0.0413 H         1 <0>         0.1244
     48 H19        -2.0699    1.9980    0.0429 H         1 <0>         0.1189
     49 H20         8.0428   -0.3723    0.4756 H         1 <0>         0.0806
     50 H21         8.0310   -0.4832    2.2521 H         1 <0>         0.0785
     51 H22         8.0688   -2.6394    3.3626 H         1 <0>         0.1239
     52 H23         8.7080   -5.0130    3.2185 H         1 <0>         0.1258
     53 H24         9.0452   -6.0659    1.0183 H         1 <0>         0.1248
     54 H25         8.7355   -4.7473   -1.0380 H         1 <0>         0.1261
     55 H26         8.0872   -2.3762   -0.8942 H         1 <0>         0.1250
@<TRIPOS>BOND
     1    1    2 1
     2    1   32 1
     3    1   33 1
     4    1   34 1
     5    2    3 1
     6    2    4 1
     7    2    5 1
     8    3   35 1
     9    3   36 1
    10    3   37 1
    11    4   38 1
    12    4   39 1
    13    4   40 1
    14    5    6 1
    15    6    7 2
    16    6    8 am
    17    8    9 1
    18    8   41 1
    19    9   10 1
    20    9   11 1
    21    9   22 1
    22   11   12 1
    23   11   42 1
    24   11   43 1
    25   12   17 1
    26   12   13 2
    27   13   14 1
    28   13   44 1
    29   14   15 1
    30   14   16 1
    31   16   21 ar
    32   16   17 ar
    33   17   18 ar
    34   18   19 ar
    35   18   45 1
    36   19   20 ar
    37   19   46 1
    38   20   21 ar
    39   20   47 1
    40   21   48 1
    41   22   23 2
    42   22   24 1
    43   24   25 1
    44   25   26 1
    45   25   49 1
    46   25   50 1
    47   26   31 ar
    48   26   27 ar
    49   27   28 ar
    50   27   51 1
    51   28   29 ar
    52   28   52 1
    53   29   30 ar
    54   29   53 1
    55   30   31 ar
    56   30   54 1
    57   31   55 1
@<TRIPOS>MOLECULE
ZINC22448889
   61    64     0     0     0
SMALL
USER_CHARGES

@<TRIPOS>ATOM
      1 C1         -0.2744    1.4954   -0.1251 C.3       1 <0>        -0.1819
      2 C2          0.0021   -0.0041    0.0020 C.3       1 <0>         0.1269
      3 C3         -1.3041   -0.7423    0.1412 C.ar      1 <0>        -0.1613
      4 C4         -2.0895   -0.9227   -0.9875 C.ar      1 <0>        -0.0708
      5 C5         -3.2941   -1.5893   -0.8999 C.ar      1 <0>        -0.1331
      6 C6         -3.7231   -2.0820    0.3242 C.ar      1 <0>         0.1719
      7 C7         -2.9369   -1.9029    1.4510 C.ar      1 <0>        -0.2134
      8 C8         -1.7268   -1.2354    1.3583 C.ar      1 <0>        -0.0004
      9 C9         -0.8930   -1.0708    2.6035 C.3       1 <0>        -0.1257
     10 C10         0.1562    0.0202    2.3831 C.3       1 <0>         0.0578
     11 O1          0.8259   -0.2376    1.1438 O.3       1 <0>        -0.3489
     12 O2         -4.9101   -2.7371    0.4178 O.3       1 <0>        -0.2934
     13 C11        -5.2865   -3.2163    1.7104 C.3       1 <0>         0.0229
     14 C12        -4.1422   -1.7817   -2.1307 C.3       1 <0>         0.1197
     15 N1         -4.0399   -3.1756   -2.5829 N.3       1 <0>        -0.6777
     16 C13        -4.8556   -3.4007   -3.7837 C.3       1 <0>         0.0734
     17 H1         -5.7597   -2.7944   -3.7285 H         1 <0>         0.1251
     18 C14        -4.0529   -3.0097   -5.0279 C.3       1 <0>        -0.1685
     19 C15        -2.8256   -3.9190   -5.1381 C.3       1 <0>        -0.1496
     20 C16        -3.2813   -5.3792   -5.1772 C.3       1 <0>        -0.0072
     21 N2         -4.0197   -5.6981   -3.9494 N.4       1 <0>        -0.5051
     22 C17        -5.2370   -4.8799   -3.8724 C.3       1 <0>         0.0962
     23 H2         -5.8424   -5.0458   -4.7636 H         1 <0>         0.1439
     24 C18        -6.0280   -5.2683   -2.6499 C.ar      1 <0>        -0.1329
     25 C19        -5.3755   -5.5376   -1.4613 C.ar      1 <0>        -0.0754
     26 C20        -6.1010   -5.8938   -0.3399 C.ar      1 <0>        -0.1098
     27 C21        -7.4790   -5.9804   -0.4069 C.ar      1 <0>        -0.0931
     28 C22        -8.1316   -5.7102   -1.5953 C.ar      1 <0>        -0.1131
     29 C23        -7.4063   -5.3498   -2.7156 C.ar      1 <0>        -0.0905
     30 C24         0.7258   -0.4940   -1.2538 C.3       1 <0>         0.4723
     31 F1          1.9989    0.0831   -1.3134 F         1 <0>        -0.1657
     32 F2          0.8470   -1.8870   -1.2086 F         1 <0>        -0.1727
     33 F3         -0.0065   -0.1261   -2.3876 F         1 <0>        -0.1737
     34 H3          0.6683    2.0302   -0.2403 H         1 <0>         0.0857
     35 H4         -0.9036    1.6762   -0.9966 H         1 <0>         0.0833
     36 H5         -0.7850    1.8479    0.7711 H         1 <0>         0.0861
     37 H6         -1.7564   -0.5387   -1.9404 H         1 <0>         0.1459
     38 H7         -3.2689   -2.2850    2.4051 H         1 <0>         0.1354
     39 H8         -1.5375   -0.7908    3.4368 H         1 <0>         0.0966
     40 H9         -0.3942   -2.0124    2.8327 H         1 <0>         0.0966
     41 H10        -0.3314    0.9941    2.3402 H         1 <0>         0.0695
     42 H11         0.8781    0.0044    3.1996 H         1 <0>         0.1169
     43 H12        -6.2517   -3.7186    1.6448 H         1 <0>         0.1011
     44 H13        -4.5350   -3.9189    2.0704 H         1 <0>         0.0563
     45 H14        -5.3600   -2.3769    2.4018 H         1 <0>         0.0573
     46 H15        -5.1813   -1.5513   -1.8956 H         1 <0>         0.0932
     47 H16        -3.7924   -1.1169   -2.9205 H         1 <0>         0.0490
     48 H17        -3.0780   -3.4333   -2.7457 H         1 <0>         0.3351
     49 H18        -4.6750   -3.1280   -5.9151 H         1 <0>         0.0912
     50 H19        -3.7311   -1.9718   -4.9427 H         1 <0>         0.0953
     51 H20        -2.2790   -3.6836   -6.0513 H         1 <0>         0.1170
     52 H21        -2.1782   -3.7627   -4.2752 H         1 <0>         0.0858
     53 H22        -3.9283   -5.5344   -6.0405 H         1 <0>         0.1333
     54 H23        -2.4099   -6.0293   -5.2558 H         1 <0>         0.1355
     55 H24        -4.2723   -6.6750   -3.9542 H         1 <0>         0.4306
     56 H25        -4.2989   -5.4700   -1.4090 H         1 <0>         0.1180
     57 H26        -5.5912   -6.1049    0.5885 H         1 <0>         0.1260
     58 H27        -8.0458   -6.2594    0.4690 H         1 <0>         0.1291
     59 H28        -9.2081   -5.7781   -1.6477 H         1 <0>         0.1311
     60 H29        -7.9164   -5.1351   -3.6430 H         1 <0>         0.1274
     61 H30        -3.4366   -5.5076   -3.1483 H         1 <0>         0.4256
@<TRIPOS>BOND
     1    1    2 1
     2    1   34 1
     3    1   35 1
     4    1   36 1
     5    2   11 1
     6    2    3 1
     7    2   30 1
     8    3    8 ar
     9    3    4 ar
    10    4    5 ar
    11    4   37 1
    12    5    6 ar
    13    5   14 1
    14    6    7 ar
    15    6   12 1
    16    7    8 ar
    17    7   38 1
    18    8    9 1
    19    9   10 1
    20    9   39 1
    21    9   40 1
    22   10   11 1
    23   10   41 1
    24   10   42 1
    25   12   13 1
    26   13   43 1
    27   13   44 1
    28   13   45 1
    29   14   15 1
    30   14   46 1
    31   14   47 1
    32   15   16 1
    33   15   48 1
    34   16   17 1
    35   16   22 1
    36   16   18 1
    37   18   19 1
    38   18   49 1
    39   18   50 1
    40   19   20 1
    41   19   51 1
    42   19   52 1
    43   20   21 1
    44   20   53 1
    45   20   54 1
    46   21   22 1
    47   21   55 1
    48   21   61 1
    49   22   23 1
    50   22   24 1
    51   24   29 ar
    52   24   25 ar
    53   25   26 ar
    54   25   56 1
    55   26   27 ar
    56   26   57 1
    57   27   28 ar
    58   27   58 1
    59   28   29 ar
    60   28   59 1
    61   29   60 1
    62   30   31 1
    63   30   32 1
    64   30   33 1
@<TRIPOS>MOLECULE
ZINC22448889
   61    64     0     0     0
SMALL
USER_CHARGES

@<TRIPOS>ATOM
      1 C1         -0.2744    1.4954   -0.1251 C.3       1 <0>        -0.1834
      2 C2          0.0021   -0.0041    0.0020 C.3       1 <0>         0.1239
      3 C3         -1.3041   -0.7423    0.1412 C.ar      1 <0>        -0.1549
      4 C4         -2.0895   -0.9227   -0.9875 C.ar      1 <0>        -0.0483
      5 C5         -3.2941   -1.5893   -0.8999 C.ar      1 <0>        -0.1921
      6 C6         -3.7231   -2.0820    0.3242 C.ar      1 <0>         0.1654
      7 C7         -2.9369   -1.9029    1.4510 C.ar      1 <0>        -0.2032
      8 C8         -1.7268   -1.2354    1.3583 C.ar      1 <0>         0.0230
      9 C9         -0.8930   -1.0708    2.6035 C.3       1 <0>        -0.1318
     10 C10         0.1562    0.0202    2.3831 C.3       1 <0>         0.0560
     11 O1          0.8259   -0.2376    1.1438 O.3       1 <0>        -0.3446
     12 O2         -4.9101   -2.7371    0.4178 O.3       1 <0>        -0.3228
     13 C11        -5.2865   -3.2163    1.7104 C.3       1 <0>         0.0219
     14 C12        -4.1422   -1.7817   -2.1307 C.3       1 <0>         0.0503
     15 N1         -4.0399   -3.1756   -2.5829 N.4       1 <0>        -0.5019
     16 C13        -4.8666   -3.3631   -3.7827 C.3       1 <0>         0.0410
     17 H1         -5.8889   -3.0484   -3.5730 H         1 <0>         0.1430
     18 C14        -4.2988   -2.5242   -4.9309 C.3       1 <0>        -0.1467
     19 C15        -2.8847   -3.0119   -5.2582 C.3       1 <0>        -0.1348
     20 C16        -2.9334   -4.4990   -5.6163 C.3       1 <0>         0.0442
     21 N2         -3.4830   -5.2583   -4.4858 N.3       1 <0>        -0.6966
     22 C17        -4.8586   -4.8402   -4.1830 C.3       1 <0>         0.1125
     23 H2         -5.4832   -4.9808   -5.0651 H         1 <0>         0.0944
     24 C18        -5.3989   -5.6710   -3.0477 C.ar      1 <0>        -0.1241
     25 C19        -4.5864   -5.9873   -1.9750 C.ar      1 <0>        -0.1274
     26 C20        -5.0820   -6.7494   -0.9336 C.ar      1 <0>        -0.1082
     27 C21        -6.3903   -7.1948   -0.9648 C.ar      1 <0>        -0.1013
     28 C22        -7.2030   -6.8777   -2.0370 C.ar      1 <0>        -0.1056
     29 C23        -6.7087   -6.1120   -3.0763 C.ar      1 <0>        -0.0994
     30 C24         0.7258   -0.4940   -1.2538 C.3       1 <0>         0.4716
     31 F1          1.9989    0.0831   -1.3134 F         1 <0>        -0.1612
     32 F2          0.8470   -1.8870   -1.2086 F         1 <0>        -0.1705
     33 F3         -0.0065   -0.1261   -2.3876 F         1 <0>        -0.1739
     34 H3          0.6683    2.0302   -0.2403 H         1 <0>         0.0902
     35 H4         -0.9036    1.6762   -0.9966 H         1 <0>         0.0848
     36 H5         -0.7850    1.8479    0.7711 H         1 <0>         0.0878
     37 H6         -1.7564   -0.5387   -1.9404 H         1 <0>         0.1579
     38 H7         -3.2689   -2.2850    2.4051 H         1 <0>         0.1468
     39 H8         -1.5375   -0.7908    3.4368 H         1 <0>         0.1034
     40 H9         -0.3942   -2.0124    2.8327 H         1 <0>         0.1047
     41 H10        -0.3314    0.9941    2.3402 H         1 <0>         0.0722
     42 H11         0.8781    0.0044    3.1996 H         1 <0>         0.1216
     43 H12        -4.5350   -3.9189    2.0704 H         1 <0>         0.0660
     44 H13        -5.3600   -2.3769    2.4018 H         1 <0>         0.0674
     45 H14        -6.2517   -3.7186    1.6448 H         1 <0>         0.1120
     46 H15        -5.1813   -1.5513   -1.8956 H         1 <0>         0.1399
     47 H16        -3.7924   -1.1169   -2.9205 H         1 <0>         0.1381
     48 H17        -3.0780   -3.3889   -2.8006 H         1 <0>         0.4276
     49 H18        -4.9341   -2.6326   -5.8100 H         1 <0>         0.1116
     50 H19        -4.2629   -1.4762   -4.6333 H         1 <0>         0.0943
     51 H20        -2.4913   -2.4468   -6.1032 H         1 <0>         0.0989
     52 H21        -2.2401   -2.8673   -4.3912 H         1 <0>         0.0673
     53 H22        -3.5671   -4.6412   -6.4917 H         1 <0>         0.0520
     54 H23        -1.9261   -4.8528   -5.8359 H         1 <0>         0.0963
     55 H24        -3.5643   -5.6393   -1.9507 H         1 <0>         0.1249
     56 H25        -4.4470   -6.9972   -0.0959 H         1 <0>         0.1297
     57 H26        -6.7773   -7.7908   -0.1515 H         1 <0>         0.1314
     58 H27        -8.2251   -7.2260   -2.0615 H         1 <0>         0.1327
     59 H28        -7.3448   -5.8611   -3.9123 H         1 <0>         0.1291
     60 H29        -3.4372   -6.2510   -4.6606 H         1 <0>         0.3712
     61 H30        -4.3637   -3.7910   -1.8518 H         1 <0>         0.4262
@<TRIPOS>BOND
     1    1    2 1
     2    1   34 1
     3    1   35 1
     4    1   36 1
     5    2   11 1
     6    2    3 1
     7    2   30 1
     8    3    8 ar
     9    3    4 ar
    10    4    5 ar
    11    4   37 1
    12    5    6 ar
    13    5   14 1
    14    6    7 ar
    15    6   12 1
    16    7    8 ar
    17    7   38 1
    18    8    9 1
    19    9   10 1
    20    9   39 1
    21    9   40 1
    22   10   11 1
    23   10   41 1
    24   10   42 1
    25   12   13 1
    26   13   43 1
    27   13   44 1
    28   13   45 1
    29   14   15 1
    30   14   46 1
    31   14   47 1
    32   15   16 1
    33   15   48 1
    34   15   61 1
    35   16   17 1
    36   16   22 1
    37   16   18 1
    38   18   19 1
    39   18   49 1
    40   18   50 1
    41   19   20 1
    42   19   51 1
    43   19   52 1
    44   20   21 1
    45   20   53 1
    46   20   54 1
    47   21   22 1
    48   21   60 1
    49   22   23 1
    50   22   24 1
    51   24   29 ar
    52   24   25 ar
    53   25   26 ar
    54   25   55 1
    55   26   27 ar
    56   26   56 1
    57   27   28 ar
    58   27   57 1
    59   28   29 ar
    60   28   58 1
    61   29   59 1
    62   30   31 1
    63   30   32 1
    64   30   33 1
@<TRIPOS>MOLECULE
ZINC27215486
   86    95     0     0     0
SMALL
USER_CHARGES

@<TRIPOS>ATOM
      1 C1          0.0505    1.9639    0.3600 C.ar      1 <0>        -0.1178
      2 C2          1.3063    2.5033    0.1524 C.ar      1 <0>        -0.1129
      3 C3          2.4177    1.6815    0.1382 C.ar      1 <0>        -0.1217
      4 C4          2.2735    0.3204    0.3320 C.ar      1 <0>        -0.0920
      5 C5          1.0178   -0.2188    0.5405 C.ar      1 <0>        -0.1112
      6 C6         -0.0938    0.6028    0.5533 C.ar      1 <0>        -0.1144
      7 C7          3.4850   -0.5757    0.3155 C.3       1 <0>        -0.0761
      8 C8          4.0518   -0.6931    1.7318 C.3       1 <0>         0.1294
      9 H1          3.2680   -1.0334    2.4084 H         1 <0>         0.1099
     10 C9          5.1883   -1.6912    1.7370 C.2       1 <0>         0.5395
     11 O1          5.2313   -2.6017    0.9369 O.2       1 <0>        -0.5021
     12 N1          6.1525   -1.5289    2.6677 N.am      1 <0>        -0.6210
     13 C10         6.0819   -0.5109    3.7281 C.3       1 <0>         0.1158
     14 H2          5.4714   -0.8748    4.5545 H         1 <0>         0.1173
     15 C11         7.5129   -0.2511    4.2086 C.3       1 <0>        -0.1194
     16 C12         8.4039   -1.2375    3.4388 C.3       1 <0>        -0.0032
     17 C13         7.4171   -2.2566    2.7995 C.3       1 <0>         0.3727
     18 H3          7.3201   -3.1782    3.3734 H         1 <0>         0.1229
     19 N2          7.9814   -2.4565    1.4467 N.pl3     1 <0>        -0.7278
     20 C14         8.7247   -1.3331    1.1143 C.ar      1 <0>         0.2095
     21 C15         9.0407   -0.5819    2.2515 C.ar      1 <0>        -0.1503
     22 C16         9.8140    0.5611    2.1781 C.ar      1 <0>        -0.0487
     23 C17        10.2483    0.9528    0.9173 C.ar      1 <0>        -0.1666
     24 C18         9.9210    0.2328   -0.2131 C.ar      1 <0>        -0.0727
     25 C19         9.1564   -0.9215   -0.1486 C.ar      1 <0>        -0.1706
     26 C20         9.4395   -1.9008    4.3489 C.3       1 <0>        -0.0006
     27 C21         8.7832   -2.7804    5.4388 C.3       1 <0>        -0.1110
     28 C22         8.8208   -1.8643    6.6807 C.3       1 <0>         0.0797
     29 H4          8.0198   -1.1311    6.5863 H         1 <0>         0.1179
     30 C23         8.5487   -2.7091    7.8941 C.2       1 <0>         0.5321
     31 O2          7.6151   -3.4832    7.9041 O.2       1 <0>        -0.5122
     32 N3          9.3532   -2.5977    8.9728 N.am      1 <0>        -0.7110
     33 C24        10.4910   -1.6741    8.9456 C.3       1 <0>         0.1250
     34 H5         10.2999   -0.9016    9.6905 H         1 <0>         0.1112
     35 C25        10.8652   -0.9765    7.6605 C.2       1 <0>         0.5548
     36 O3         11.8322   -0.2456    7.6210 O.2       1 <0>        -0.5052
     37 N4         10.1131   -1.1609    6.5543 N.am      1 <0>        -0.6156
     38 C26        10.2895   -0.8670    5.1262 C.3       1 <0>         0.3925
     39 H6          9.9869    0.1547    4.8964 H         1 <0>         0.1094
     40 N5         11.6715   -1.1367    4.7211 N.pl3     1 <0>        -0.7296
     41 C27        11.7151   -2.2123    3.8333 C.ar      1 <0>         0.2050
     42 C28        10.4487   -2.7116    3.5712 C.ar      1 <0>        -0.1500
     43 C29        10.2826   -3.7830    2.7144 C.ar      1 <0>        -0.0428
     44 C30        11.3804   -4.3650    2.1082 C.ar      1 <0>        -0.1677
     45 C31        12.6473   -3.8723    2.3607 C.ar      1 <0>        -0.0682
     46 C32        12.8186   -2.8042    3.2153 C.ar      1 <0>        -0.1735
     47 C33        11.7214   -2.4528    9.4151 C.3       1 <0>        -0.0880
     48 C34        11.5397   -2.8588   10.8550 C.ar      1 <0>        -0.0921
     49 C35        11.9638   -2.0197   11.8684 C.ar      1 <0>        -0.1109
     50 C36        11.7972   -2.3921   13.1892 C.ar      1 <0>        -0.1144
     51 C37        11.2060   -3.6032   13.4965 C.ar      1 <0>        -0.1174
     52 C38        10.7810   -4.4418   12.4831 C.ar      1 <0>        -0.1142
     53 C39        10.9438   -4.0676   11.1624 C.ar      1 <0>        -0.1215
     54 C40         5.4600    0.7278    3.1339 C.2       1 <0>         0.5170
     55 O4          5.8117    1.8283    3.5029 O.2       1 <0>        -0.5195
     56 N6          4.5385    0.6153    2.1706 N.am      1 <0>        -0.7115
     57 H7         -0.8173    2.6066    0.3756 H         1 <0>         0.1236
     58 H8          1.4190    3.5666    0.0011 H         1 <0>         0.1247
     59 H9          3.3988    2.1027   -0.0246 H         1 <0>         0.1210
     60 H10         0.9050   -1.2823    0.6911 H         1 <0>         0.1250
     61 H11        -1.0748    0.1815    0.7158 H         1 <0>         0.1246
     62 H12         3.2010   -1.5642   -0.0453 H         1 <0>         0.1070
     63 H13         4.2417   -0.1516   -0.3446 H         1 <0>         0.0866
     64 H14         7.8047    0.7742    3.9816 H         1 <0>         0.1094
     65 H15         7.5882   -0.4350    5.2803 H         1 <0>         0.0944
     66 H16         7.8533   -3.2388    0.8877 H         1 <0>         0.4207
     67 H17        10.0696    1.1259    3.0625 H         1 <0>         0.1208
     68 H18        10.8552    1.8409    0.8202 H         1 <0>         0.1166
     69 H19        10.2702    0.5782   -1.1749 H         1 <0>         0.1174
     70 H20         8.9051   -1.4799   -1.0383 H         1 <0>         0.1239
     71 H21         7.7557   -3.0260    5.1704 H         1 <0>         0.1013
     72 H22         9.3665   -3.6855    5.6082 H         1 <0>         0.0949
     73 H23         9.1781   -3.1285    9.7656 H         1 <0>         0.4170
     74 H24        12.4457   -0.6383    5.0261 H         1 <0>         0.4195
     75 H25         9.2924   -4.1670    2.5181 H         1 <0>         0.1160
     76 H26        11.2487   -5.2027    1.4393 H         1 <0>         0.1207
     77 H27        13.5055   -4.3258    1.8871 H         1 <0>         0.1223
     78 H28        13.8108   -2.4237    3.4080 H         1 <0>         0.1173
     79 H29        11.8444   -3.3437    8.7992 H         1 <0>         0.0844
     80 H30        12.6065   -1.8232    9.3240 H         1 <0>         0.1025
     81 H31        12.4257   -1.0735   11.6283 H         1 <0>         0.1257
     82 H32        12.1292   -1.7369   13.9810 H         1 <0>         0.1249
     83 H33        11.0764   -3.8944   14.5284 H         1 <0>         0.1238
     84 H34        10.3195   -5.3883   12.7232 H         1 <0>         0.1248
     85 H35        10.6084   -4.7211   10.3706 H         1 <0>         0.1223
     86 H36         4.1742    1.4167    1.7634 H         1 <0>         0.4104
@<TRIPOS>BOND
     1    1    6 ar
     2    1    2 ar
     3    1   57 1
     4    2    3 ar
     5    2   58 1
     6    3    4 ar
     7    3   59 1
     8    4    5 ar
     9    4    7 1
    10    5    6 ar
    11    5   60 1
    12    6   61 1
    13    7    8 1
    14    7   62 1
    15    7   63 1
    16    8    9 1
    17    8   56 1
    18    8   10 1
    19   10   11 2
    20   10   12 am
    21   12   17 1
    22   12   13 1
    23   13   14 1
    24   13   15 1
    25   13   54 1
    26   15   16 1
    27   15   64 1
    28   15   65 1
    29   16   21 1
    30   16   17 1
    31   16   26 1
    32   17   18 1
    33   17   19 1
    34   19   20 1
    35   19   66 1
    36   20   25 ar
    37   20   21 ar
    38   21   22 ar
    39   22   23 ar
    40   22   67 1
    41   23   24 ar
    42   23   68 1
    43   24   25 ar
    44   24   69 1
    45   25   70 1
    46   26   38 1
    47   26   42 1
    48   26   27 1
    49   27   28 1
    50   27   71 1
    51   27   72 1
    52   28   29 1
    53   28   37 1
    54   28   30 1
    55   30   31 2
    56   30   32 am
    57   32   33 1
    58   32   73 1
    59   33   34 1
    60   33   35 1
    61   33   47 1
    62   35   36 2
    63   35   37 am
    64   37   38 1
    65   38   39 1
    66   38   40 1
    67   40   41 1
    68   40   74 1
    69   41   46 ar
    70   41   42 ar
    71   42   43 ar
    72   43   44 ar
    73   43   75 1
    74   44   45 ar
    75   44   76 1
    76   45   46 ar
    77   45   77 1
    78   46   78 1
    79   47   48 1
    80   47   79 1
    81   47   80 1
    82   48   53 ar
    83   48   49 ar
    84   49   50 ar
    85   49   81 1
    86   50   51 ar
    87   50   82 1
    88   51   52 ar
    89   51   83 1
    90   52   53 ar
    91   52   84 1
    92   53   85 1
    93   54   55 2
    94   54   56 am
    95   56   86 1
@<TRIPOS>MOLECULE
ZINC27440858
   69    72     0     0     0
SMALL
USER_CHARGES
1-[5-[[(2R,3S)-2-[(1R)-1-[3,5-bis(trifluoromethyl)phenyl]ethoxy]-3-(4-fluorophenyl)morpholin-4-yl]methyl]-2H-triazol-4-yl]-N,N-dimethyl-methanamine
@<TRIPOS>ATOM
      1 C1          0.8349   -4.5901    0.6479 C.3       1 <0>        -0.1749
      2 C2          1.7905   -3.8460   -0.2870 C.3       1 <0>         0.1348
      3 H1          1.6708   -4.1686   -1.3317 H         1 <0>         0.0791
      4 C3          3.2102   -4.0612    0.1707 C.ar      1 <0>        -0.0851
      5 C4          3.7189   -3.3166    1.2186 C.ar      1 <0>        -0.0103
      6 C5          5.0195   -3.5175    1.6415 C.ar      1 <0>        -0.1880
      7 C6          5.8146   -4.4557    1.0102 C.ar      1 <0>        -0.0206
      8 C7          5.3077   -5.1961   -0.0412 C.ar      1 <0>        -0.1779
      9 C8          4.0053   -4.9991   -0.4608 C.ar      1 <0>        -0.0277
     10 C9          6.1745   -6.2186   -0.7298 C.3       1 <0>         0.5106
     11 F1          6.8556   -5.6135   -1.7915 F         1 <0>        -0.1704
     12 F2          7.0997   -6.7363    0.1831 F         1 <0>        -0.1708
     13 F3          5.3731   -7.2551   -1.2202 F         1 <0>        -0.1711
     14 C10         5.5724   -2.7098    2.7875 C.3       1 <0>         0.5142
     15 F4          6.8988   -3.0854    3.0256 F         1 <0>        -0.1702
     16 F5          5.5236   -1.3492    2.4654 F         1 <0>        -0.1781
     17 F6          4.8078   -2.9450    3.9352 F         1 <0>        -0.1719
     18 O1          1.4889   -2.4494   -0.2631 O.3       1 <0>        -0.3755
     19 C11         0.5281   -2.0455   -1.2407 C.3       1 <0>         0.2601
     20 H2          0.8186   -2.5044   -2.1973 H         1 <0>         0.1122
     21 C12         0.4661   -0.5167   -1.2956 C.3       1 <0>         0.1181
     22 H3         -0.2415   -0.1764   -2.0659 H         1 <0>         0.0835
     23 N1          0.0019   -0.0035    0.0015 N.3       1 <0>        -0.5151
     24 C13        -1.3216   -0.5501    0.3345 C.3       1 <0>         0.0212
     25 C14        -1.2417   -2.0784    0.3730 C.3       1 <0>         0.0589
     26 O2         -0.7592   -2.5574   -0.8853 O.3       1 <0>        -0.3850
     27 C15        -0.0177    1.4654    0.0099 C.3       1 <0>         0.1293
     28 C16        -0.7231    1.9512    1.2499 C.2       1 <0>         0.0320
     29 C17        -0.1475    2.2265    2.4923 C.2       1 <0>        -0.0576
     30 N2         -1.1341    2.6148    3.2680 N.2       1 <0>        -0.2504
     31 N3         -2.2258    2.5946    2.5886 N.pl3     1 <0>        -0.2284
     32 N4         -2.0057    2.2026    1.3837 N.2       1 <0>        -0.2486
     33 C18         1.3072    2.1034    2.8664 C.3       1 <0>         0.0940
     34 N5          1.9910    3.3757    2.5987 N.4       1 <0>        -0.4015
     35 C19         1.4916    4.4378    3.4823 C.3       1 <0>        -0.0458
     36 C20         3.4470    3.2274    2.7246 C.3       1 <0>        -0.0488
     37 C21         1.8374    0.0330   -1.5927 C.ar      1 <0>        -0.1017
     38 C22         2.7715    0.1439   -0.5796 C.ar      1 <0>        -0.0544
     39 C23         4.0309    0.6434   -0.8519 C.ar      1 <0>        -0.1676
     40 C24         4.3536    1.0428   -2.1378 C.ar      1 <0>         0.1102
     41 C25         3.4155    0.9362   -3.1506 C.ar      1 <0>        -0.1517
     42 C26         2.1585    0.4314   -2.8770 C.ar      1 <0>        -0.0768
     43 F7          5.5829    1.5357   -2.4041 F         1 <0>        -0.1353
     44 H4         -0.2013   -4.4331    0.3138 H         1 <0>         0.0798
     45 H5          0.9519   -4.2072    1.6724 H         1 <0>         0.0658
     46 H6          1.0671   -5.6652    0.6296 H         1 <0>         0.0711
     47 H7          3.0990   -2.5807    1.7091 H         1 <0>         0.1462
     48 H8          6.8319   -4.6098    1.3382 H         1 <0>         0.1542
     49 H9          3.6092   -5.5775   -1.2823 H         1 <0>         0.1487
     50 H10        -1.6372   -0.1726    1.3184 H         1 <0>         0.0844
     51 H11        -2.0498   -0.2381   -0.4287 H         1 <0>         0.0533
     52 H12        -0.5548   -2.3896    1.1738 H         1 <0>         0.0734
     53 H13        -2.2420   -2.4931    0.5662 H         1 <0>         0.1017
     54 H14         1.0144    1.8459    0.0023 H         1 <0>         0.0972
     55 H15        -0.5495    1.8301   -0.8812 H         1 <0>         0.0694
     56 H16         1.3914    1.8597    3.9357 H         1 <0>         0.1441
     57 H17         1.7726    1.3045    2.2705 H         1 <0>         0.1545
     58 H18         2.0194    5.3772    3.2610 H         1 <0>         0.1255
     59 H19         1.6686    4.1559    4.5308 H         1 <0>         0.1230
     60 H20         0.4129    4.5755    3.3168 H         1 <0>         0.1172
     61 H21         3.9329    4.1927    2.5195 H         1 <0>         0.1286
     62 H22         3.8029    2.4771    2.0032 H         1 <0>         0.1272
     63 H23         3.6954    2.9014    3.7454 H         1 <0>         0.1239
     64 H24         2.5183   -0.1639    0.4242 H         1 <0>         0.1411
     65 H25         4.7619    0.7261   -0.0611 H         1 <0>         0.1342
     66 H26         3.6662    1.2471   -4.1540 H         1 <0>         0.1392
     67 H27         1.4266    0.3479   -3.6669 H         1 <0>         0.1343
     68 H28         1.7694    3.6668    1.5614 H         1 <0>         0.4435
     69 H29        -3.1736    2.8908    3.0617 H         1 <0>         0.5211
@<TRIPOS>BOND
     1    1    2 1
     2    1   44 1
     3    1   45 1
     4    1   46 1
     5    2    3 1
     6    2    4 1
     7    2   18 1
     8    4    9 ar
     9    4    5 ar
    10    5    6 ar
    11    5   47 1
    12    6    7 ar
    13    6   14 1
    14    7    8 ar
    15    7   48 1
    16    8    9 ar
    17    8   10 1
    18    9   49 1
    19   10   11 1
    20   10   12 1
    21   10   13 1
    22   14   15 1
    23   14   16 1
    24   14   17 1
    25   18   19 1
    26   19   20 1
    27   19   26 1
    28   19   21 1
    29   21   22 1
    30   21   23 1
    31   21   37 1
    32   23   24 1
    33   23   27 1
    34   24   25 1
    35   24   50 1
    36   24   51 1
    37   25   26 1
    38   25   52 1
    39   25   53 1
    40   27   28 1
    41   27   54 1
    42   27   55 1
    43   28   29 1
    44   28   32 2
    45   29   33 1
    46   29   30 2
    47   30   31 1
    48   31   69 1
    49   31   32 1
    50   33   34 1
    51   33   56 1
    52   33   57 1
    53   34   35 1
    54   34   36 1
    55   34   68 1
    56   35   58 1
    57   35   59 1
    58   35   60 1
    59   36   61 1
    60   36   62 1
    61   36   63 1
    62   37   42 ar
    63   37   38 ar
    64   38   39 ar
    65   38   64 1
    66   39   40 ar
    67   39   65 1
    68   40   41 ar
    69   40   43 1
    70   41   42 ar
    71   41   66 1
    72   42   67 1
@<TRIPOS>MOLECULE
ZINC27440858
   68    71     0     0     0
SMALL
USER_CHARGES
1-[5-[[(2R,3S)-2-[(1R)-1-[3,5-bis(trifluoromethyl)phenyl]ethoxy]-3-(4-fluorophenyl)morpholin-4-yl]methyl]-2H-triazol-4-yl]-N,N-dimethyl-methanamine
@<TRIPOS>ATOM
      1 C1          0.8349   -4.5901    0.6479 C.3       1 <0>        -0.1746
      2 C2          1.7905   -3.8460   -0.2870 C.3       1 <0>         0.1326
      3 H1          1.6706   -4.1685   -1.3318 H         1 <0>         0.0765
      4 C3          3.2102   -4.0612    0.1707 C.ar      1 <0>        -0.0808
      5 C4          3.7189   -3.3166    1.2186 C.ar      1 <0>        -0.0078
      6 C5          5.0195   -3.5175    1.6415 C.ar      1 <0>        -0.1873
      7 C6          5.8146   -4.4557    1.0102 C.ar      1 <0>        -0.0232
      8 C7          5.3077   -5.1961   -0.0412 C.ar      1 <0>        -0.1822
      9 C8          4.0053   -4.9991   -0.4608 C.ar      1 <0>        -0.0294
     10 C9          6.1745   -6.2186   -0.7298 C.3       1 <0>         0.5118
     11 F1          6.8556   -5.6135   -1.7915 F         1 <0>        -0.1716
     12 F2          7.0997   -6.7363    0.1831 F         1 <0>        -0.1725
     13 F3          5.3731   -7.2551   -1.2202 F         1 <0>        -0.1722
     14 C10         5.5724   -2.7098    2.7875 C.3       1 <0>         0.5136
     15 F4          6.8988   -3.0854    3.0256 F         1 <0>        -0.1731
     16 F5          5.5236   -1.3492    2.4654 F         1 <0>        -0.1753
     17 F6          4.8078   -2.9450    3.9352 F         1 <0>        -0.1711
     18 O1          1.4889   -2.4494   -0.2631 O.3       1 <0>        -0.3732
     19 C11         0.5281   -2.0455   -1.2407 C.3       1 <0>         0.2632
     20 H2          0.8189   -2.5043   -2.1972 H         1 <0>         0.1041
     21 C12         0.4661   -0.5167   -1.2956 C.3       1 <0>         0.1107
     22 H3         -0.2416   -0.1765   -2.0659 H         1 <0>         0.0755
     23 N1          0.0019   -0.0035    0.0015 N.3       1 <0>        -0.5130
     24 C13        -1.3216   -0.5501    0.3345 C.3       1 <0>         0.0289
     25 C14        -1.2417   -2.0784    0.3730 C.3       1 <0>         0.0598
     26 O2         -0.7592   -2.5574   -0.8853 O.3       1 <0>        -0.3913
     27 C15        -0.0177    1.4654    0.0099 C.3       1 <0>         0.1489
     28 C16        -0.7231    1.9512    1.2499 C.2       1 <0>        -0.0628
     29 C17        -0.1475    2.2265    2.4923 C.2       1 <0>        -0.1633
     30 N2         -1.1341    2.6148    3.2680 N.2       1 <0>        -0.3313
     31 N3         -2.2258    2.5946    2.5886 N.2       1 <0>        -0.1726
     32 N4         -2.0057    2.2026    1.3837 N.2       1 <0>        -0.3405
     33 C18         1.3072    2.1034    2.8664 C.3       1 <0>         0.1086
     34 N5          1.9910    3.3757    2.5987 N.4       1 <0>        -0.3988
     35 C19         1.4916    4.4378    3.4823 C.3       1 <0>        -0.0370
     36 C20         3.4470    3.2274    2.7246 C.3       1 <0>        -0.0451
     37 C21         1.8374    0.0330   -1.5927 C.ar      1 <0>        -0.0876
     38 C22         2.7715    0.1439   -0.5796 C.ar      1 <0>        -0.0475
     39 C23         4.0309    0.6434   -0.8519 C.ar      1 <0>        -0.1677
     40 C24         4.3536    1.0428   -2.1378 C.ar      1 <0>         0.1013
     41 C25         3.4155    0.9362   -3.1506 C.ar      1 <0>        -0.1551
     42 C26         2.1585    0.4314   -2.8770 C.ar      1 <0>        -0.0815
     43 F7          5.5829    1.5357   -2.4041 F         1 <0>        -0.1407
     44 H4         -0.2013   -4.4330    0.3138 H         1 <0>         0.0814
     45 H5          0.9519   -4.2071    1.6724 H         1 <0>         0.0666
     46 H6          1.0671   -5.6652    0.6296 H         1 <0>         0.0669
     47 H7          3.0990   -2.5807    1.7091 H         1 <0>         0.1494
     48 H8          6.8319   -4.6098    1.3382 H         1 <0>         0.1522
     49 H9          3.6092   -5.5775   -1.2823 H         1 <0>         0.1474
     50 H10        -1.6372   -0.1726    1.3183 H         1 <0>         0.0998
     51 H11        -2.0498   -0.2382   -0.4287 H         1 <0>         0.0444
     52 H12        -0.5548   -2.3896    1.1738 H         1 <0>         0.0691
     53 H13        -2.2420   -2.4931    0.5663 H         1 <0>         0.0970
     54 H14         1.0144    1.8459    0.0023 H         1 <0>         0.0671
     55 H15        -0.5495    1.8301   -0.8812 H         1 <0>         0.0405
     56 H16         1.3914    1.8598    3.9358 H         1 <0>         0.1159
     57 H17         1.7727    1.3045    2.2706 H         1 <0>         0.1239
     58 H18         2.0194    5.3772    3.2610 H         1 <0>         0.1086
     59 H19         1.6687    4.1560    4.5307 H         1 <0>         0.1119
     60 H20         0.4129    4.5754    3.3167 H         1 <0>         0.1276
     61 H21         3.9330    4.1927    2.5195 H         1 <0>         0.1157
     62 H22         3.8029    2.4771    2.0032 H         1 <0>         0.1176
     63 H23         3.6954    2.9014    3.7454 H         1 <0>         0.1145
     64 H24         2.5183   -0.1639    0.4242 H         1 <0>         0.1423
     65 H25         4.7619    0.7261   -0.0611 H         1 <0>         0.1312
     66 H26         3.6662    1.2471   -4.1540 H         1 <0>         0.1350
     67 H27         1.4266    0.3479   -3.6669 H         1 <0>         0.1317
     68 H28         1.7694    3.6669    1.5613 H         1 <0>         0.4371
@<TRIPOS>BOND
     1    1    2 1
     2    1   44 1
     3    1   45 1
     4    1   46 1
     5    2    3 1
     6    2    4 1
     7    2   18 1
     8    4    9 ar
     9    4    5 ar
    10    5    6 ar
    11    5   47 1
    12    6    7 ar
    13    6   14 1
    14    7    8 ar
    15    7   48 1
    16    8    9 ar
    17    8   10 1
    18    9   49 1
    19   10   11 1
    20   10   12 1
    21   10   13 1
    22   14   15 1
    23   14   16 1
    24   14   17 1
    25   18   19 1
    26   19   20 1
    27   19   26 1
    28   19   21 1
    29   21   22 1
    30   21   23 1
    31   21   37 1
    32   23   24 1
    33   23   27 1
    34   24   25 1
    35   24   50 1
    36   24   51 1
    37   25   26 1
    38   25   52 1
    39   25   53 1
    40   27   28 1
    41   27   54 1
    42   27   55 1
    43   28   29 1
    44   28   32 2
    45   29   33 1
    46   29   30 2
    47   30   31 1
    48   31   32 1
    49   33   34 1
    50   33   56 1
    51   33   57 1
    52   34   35 1
    53   34   36 1
    54   34   68 1
    55   35   58 1
    56   35   59 1
    57   35   60 1
    58   36   61 1
    59   36   62 1
    60   36   63 1
    61   37   42 ar
    62   37   38 ar
    63   38   39 ar
    64   38   64 1
    65   39   40 ar
    66   39   65 1
    67   40   41 ar
    68   40   43 1
    69   41   42 ar
    70   41   66 1
    71   42   67 1
@<TRIPOS>MOLECULE
ZINC27440858
   69    72     0     0     0
SMALL
USER_CHARGES

@<TRIPOS>ATOM
      1 C1         -1.2303    2.3682    1.4347 C.3       1 <0>        -0.1758
      2 C2         -1.0054    1.0238    0.7399 C.3       1 <0>         0.1346
      3 H1         -0.6448    1.1948   -0.2744 H         1 <0>         0.0807
      4 C3         -2.3042    0.2610    0.6894 C.ar      1 <0>        -0.0860
      5 C4         -2.7478   -0.4232    1.8057 C.ar      1 <0>        -0.0147
      6 C5         -3.9391   -1.1228    1.7593 C.ar      1 <0>        -0.1883
      7 C6         -4.6870   -1.1380    0.5969 C.ar      1 <0>        -0.0198
      8 C7         -4.2438   -0.4531   -0.5191 C.ar      1 <0>        -0.1764
      9 C8         -3.0546    0.2501   -0.4714 C.ar      1 <0>        -0.0258
     10 C9         -5.0589   -0.4700   -1.7865 C.3       1 <0>         0.5104
     11 F1         -6.2113   -1.2383   -1.5896 F         1 <0>        -0.1711
     12 F2         -5.4226    0.8380   -2.1245 F         1 <0>        -0.1694
     13 F3         -4.2995   -1.0252   -2.8220 F         1 <0>        -0.1706
     14 C10        -4.4222   -1.8695    2.9759 C.3       1 <0>         0.5149
     15 F4         -5.2193   -1.0246    3.7556 F         1 <0>        -0.1681
     16 F5         -5.1732   -2.9794    2.5742 F         1 <0>        -0.1699
     17 F6         -3.3226   -2.2977    3.7274 F         1 <0>        -0.1831
     18 O1         -0.0367    0.2671    1.4687 O.3       1 <0>        -0.3706
     19 C11         1.3108    0.4894    1.0480 C.3       1 <0>         0.2587
     20 H2          1.3752    0.3883   -0.0354 H         1 <0>         0.1140
     21 C12         2.2301   -0.5385    1.7129 C.3       1 <0>         0.1125
     22 H3          3.2493   -0.4032    1.3510 H         1 <0>         0.0857
     23 N1          2.1973   -0.3473    3.1702 N.3       1 <0>        -0.5144
     24 C13         2.6222    1.0141    3.5267 C.3       1 <0>         0.0137
     25 C14         1.6990    2.0265    2.8436 C.3       1 <0>         0.0620
     26 O2          1.7193    1.8057    1.4299 O.3       1 <0>        -0.3807
     27 C15         3.0240   -1.3523    3.8517 C.3       1 <0>         0.1035
     28 C16         2.8536   -1.2157    5.3428 C.2       1 <0>         0.0367
     29 C17         1.8262   -1.6831    6.0898 C.2       1 <0>        -0.0702
     30 N2          2.0881   -1.3367    7.3551 N.2       1 <0>        -0.2357
     31 N3          3.2037   -0.6972    7.3893 N.2       1 <0>        -0.0355
     32 N4          3.6997   -0.6061    6.2050 N.pl3     1 <0>        -0.3763
     33 C18         0.6235   -2.4436    5.5936 C.3       1 <0>         0.0863
     34 N5          0.8533   -3.8851    5.7590 N.4       1 <0>        -0.3851
     35 C19        -0.3630   -4.6206    5.3877 C.3       1 <0>        -0.0514
     36 C20         1.9634   -4.3063    4.8941 C.3       1 <0>        -0.0579
     37 C21         1.7569   -1.9291    1.3761 C.ar      1 <0>        -0.1054
     38 C22         0.6243   -2.4391    1.9828 C.ar      1 <0>        -0.0620
     39 C23         0.1891   -3.7140    1.6744 C.ar      1 <0>        -0.1768
     40 C24         0.8881   -4.4806    0.7573 C.ar      1 <0>         0.1152
     41 C25         2.0224   -3.9687    0.1503 C.ar      1 <0>        -0.1501
     42 C26         2.4526   -2.6915    0.4564 C.ar      1 <0>        -0.0728
     43 F7          0.4639   -5.7272    0.4554 F         1 <0>        -0.1317
     44 H4         -0.2910    2.9199    1.4713 H         1 <0>         0.0791
     45 H5         -1.9692    2.9454    0.8789 H         1 <0>         0.0713
     46 H6         -1.5909    2.1972    2.4490 H         1 <0>         0.0649
     47 H7         -2.1635   -0.4113    2.7139 H         1 <0>         0.1476
     48 H8         -5.6174   -1.6852    0.5604 H         1 <0>         0.1549
     49 H9         -2.7102    0.7883   -1.3422 H         1 <0>         0.1472
     50 H10         2.5658    1.1417    4.6078 H         1 <0>         0.0849
     51 H11         3.6477    1.1742    3.1938 H         1 <0>         0.0544
     52 H12         0.6825    1.9016    3.2167 H         1 <0>         0.0765
     53 H13         2.0447    3.0375    3.0589 H         1 <0>         0.1053
     54 H14         2.7137   -2.3498    3.5405 H         1 <0>         0.1100
     55 H15         4.0711   -1.1994    3.5902 H         1 <0>         0.0683
     56 H16        -0.2553   -2.1477    6.1666 H         1 <0>         0.1515
     57 H17         0.4619   -2.2200    4.5391 H         1 <0>         0.1486
     58 H18        -0.6122   -4.4093    4.3479 H         1 <0>         0.1222
     59 H19        -0.1925   -5.6901    5.5104 H         1 <0>         0.1301
     60 H20        -1.1867   -4.3080    6.0295 H         1 <0>         0.1304
     61 H21         1.7142   -4.0951    3.8542 H         1 <0>         0.1219
     62 H22         2.8659   -3.7606    5.1695 H         1 <0>         0.1160
     63 H23         2.1339   -5.3759    5.0167 H         1 <0>         0.1314
     64 H24         0.0794   -1.8411    2.6983 H         1 <0>         0.1444
     65 H25        -0.6956   -4.1124    2.1487 H         1 <0>         0.1355
     66 H26         2.5685   -4.5658   -0.5649 H         1 <0>         0.1425
     67 H27         3.3348   -2.2904   -0.0202 H         1 <0>         0.1372
     68 H28         1.0840   -4.0807    6.7216 H         1 <0>         0.4316
     69 H29         4.5353   -0.1728    5.9706 H         1 <0>         0.4591
@<TRIPOS>BOND
     1    1    2 1
     2    1   44 1
     3    1   45 1
     4    1   46 1
     5    2    3 1
     6    2    4 1
     7    2   18 1
     8    4    9 ar
     9    4    5 ar
    10    5    6 ar
    11    5   47 1
    12    6    7 ar
    13    6   14 1
    14    7    8 ar
    15    7   48 1
    16    8    9 ar
    17    8   10 1
    18    9   49 1
    19   10   11 1
    20   10   12 1
    21   10   13 1
    22   14   15 1
    23   14   16 1
    24   14   17 1
    25   18   19 1
    26   19   20 1
    27   19   26 1
    28   19   21 1
    29   21   22 1
    30   21   23 1
    31   21   37 1
    32   23   24 1
    33   23   27 1
    34   24   25 1
    35   24   50 1
    36   24   51 1
    37   25   26 1
    38   25   52 1
    39   25   53 1
    40   27   54 1
    41   27   55 1
    42   27   28 1
    43   28   29 2
    44   28   32 1
    45   29   30 1
    46   29   33 1
    47   30   31 2
    48   31   32 1
    49   32   69 1
    50   33   34 1
    51   33   56 1
    52   33   57 1
    53   34   35 1
    54   34   36 1
    55   34   68 1
    56   35   58 1
    57   35   59 1
    58   35   60 1
    59   36   61 1
    60   36   62 1
    61   36   63 1
    62   37   42 ar
    63   37   38 ar
    64   38   39 ar
    65   38   64 1
    66   39   40 ar
    67   39   65 1
    68   40   41 ar
    69   40   43 1
    70   41   42 ar
    71   41   66 1
    72   42   67 1
@<TRIPOS>MOLECULE
ZINC06475812
   48    50     0     0     0
SMALL
USER_CHARGES

@<TRIPOS>ATOM
      1 C1         -0.0167    1.3781    0.0096 C.ar      1 <0>        -0.0882
      2 C2          1.1709    2.0855    0.0021 C.ar      1 <0>        -0.1089
      3 C3          2.3773    1.4107   -0.0130 C.ar      1 <0>        -0.0887
      4 C4          2.3960    0.0285   -0.0201 C.ar      1 <0>        -0.1486
      5 C5          1.2084   -0.6789   -0.0117 C.ar      1 <0>        -0.1019
      6 C6          0.0021   -0.0041    0.0020 C.ar      1 <0>        -0.1088
      7 C7          3.7112   -0.7071   -0.0376 C.3       1 <0>         0.0920
      8 H1          4.5030   -0.0431    0.3090 H         1 <0>         0.1543
      9 C8          4.0193   -1.1661   -1.4644 C.3       1 <0>         0.0756
     10 H2          4.0809   -0.2979   -2.1207 H         1 <0>         0.1095
     11 C9          5.3563   -1.9126   -1.4772 C.3       1 <0>        -0.1581
     12 C10         5.2850   -3.0841   -0.4934 C.3       1 <0>        -0.1433
     13 C11         4.9300   -2.5541    0.8975 C.3       1 <0>        -0.0072
     14 N1          3.6298   -1.8746    0.8483 N.4       1 <0>        -0.5024
     15 O1          2.9815   -2.0362   -1.9204 O.3       1 <0>        -0.3813
     16 C12         2.7648   -1.9926   -3.3322 C.3       1 <0>         0.1116
     17 C13         1.6551   -2.9437   -3.6997 C.ar      1 <0>        -0.1022
     18 C14         1.9467   -4.2581   -4.0129 C.ar      1 <0>        -0.0164
     19 C15         0.9288   -5.1305   -4.3500 C.ar      1 <0>        -0.1816
     20 C16        -0.3808   -4.6885   -4.3735 C.ar      1 <0>        -0.0098
     21 C17        -0.6725   -3.3743   -4.0595 C.ar      1 <0>        -0.1817
     22 C18         0.3450   -2.5030   -3.7182 C.ar      1 <0>        -0.0139
     23 C19        -2.1001   -2.8924   -4.0856 C.3       1 <0>         0.5112
     24 F1         -2.9419   -3.9477   -4.4529 F         1 <0>        -0.1690
     25 F2         -2.4594   -2.4297   -2.8152 F         1 <0>        -0.1725
     26 F3         -2.2243   -1.8524   -5.0131 F         1 <0>        -0.1690
     27 C20         1.2469   -6.5632   -4.6923 C.3       1 <0>         0.5111
     28 F4          1.2105   -7.3397   -3.5292 F         1 <0>        -0.1707
     29 F5          0.3022   -7.0454   -5.6047 F         1 <0>        -0.1682
     30 F6          2.5231   -6.6346   -5.2609 F         1 <0>        -0.1714
     31 H3         -0.9591    1.9053    0.0259 H         1 <0>         0.1350
     32 H4          1.1563    3.1654    0.0076 H         1 <0>         0.1361
     33 H5          3.3051    1.9634   -0.0196 H         1 <0>         0.1322
     34 H6          1.2231   -1.7588   -0.0176 H         1 <0>         0.1219
     35 H7         -0.9258   -0.5567    0.0082 H         1 <0>         0.1343
     36 H8          5.5532   -2.2906   -2.4804 H         1 <0>         0.0983
     37 H9          6.1555   -1.2341   -1.1788 H         1 <0>         0.0944
     38 H10         4.5201   -3.7883   -0.8207 H         1 <0>         0.0946
     39 H11         6.2514   -3.5869   -0.4556 H         1 <0>         0.1135
     40 H12         4.8787   -3.3855    1.6004 H         1 <0>         0.1361
     41 H13         5.6957   -1.8502    1.2239 H         1 <0>         0.1316
     42 H14         3.3738   -1.5739    1.7768 H         1 <0>         0.4311
     43 H15         2.4879   -0.9802   -3.6261 H         1 <0>         0.0772
     44 H16         3.6791   -2.2838   -3.8493 H         1 <0>         0.0776
     45 H17         2.9699   -4.6034   -3.9944 H         1 <0>         0.1490
     46 H18        -1.1760   -5.3700   -4.6376 H         1 <0>         0.1585
     47 H19         0.1167   -1.4772   -3.4693 H         1 <0>         0.1460
     48 H20         2.9306   -2.5126    0.4989 H         1 <0>         0.4309
@<TRIPOS>BOND
     1    1    6 ar
     2    1    2 ar
     3    1   31 1
     4    2    3 ar
     5    2   32 1
     6    3    4 ar
     7    3   33 1
     8    4    5 ar
     9    4    7 1
    10    5    6 ar
    11    5   34 1
    12    6   35 1
    13    7    8 1
    14    7   14 1
    15    7    9 1
    16    9   10 1
    17    9   11 1
    18    9   15 1
    19   11   12 1
    20   11   36 1
    21   11   37 1
    22   12   13 1
    23   12   38 1
    24   12   39 1
    25   13   14 1
    26   13   40 1
    27   13   41 1
    28   14   42 1
    29   14   48 1
    30   15   16 1
    31   16   17 1
    32   16   43 1
    33   16   44 1
    34   17   22 ar
    35   17   18 ar
    36   18   19 ar
    37   18   45 1
    38   19   20 ar
    39   19   27 1
    40   20   21 ar
    41   20   46 1
    42   21   22 ar
    43   21   23 1
    44   22   47 1
    45   23   24 1
    46   23   25 1
    47   23   26 1
    48   27   28 1
    49   27   29 1
    50   27   30 1
@<TRIPOS>MOLECULE
ZINC13818508
   46    49     0     0     0
SMALL
USER_CHARGES
(2S,5R,6S)-2,6-diphenyl-4-oxa-7-azaspiro[4.5]decane
@<TRIPOS>ATOM
      1 C1         -2.3060    2.6026   -3.2612 C.ar      1 <0>        -0.1122
      2 C2         -2.1757    1.2381   -3.0825 C.ar      1 <0>        -0.1130
      3 C3         -1.4338    0.7472   -2.0245 C.ar      1 <0>        -0.1094
      4 C4         -0.8216    1.6209   -1.1454 C.ar      1 <0>        -0.0876
      5 C5         -0.9562    2.9855   -1.3210 C.ar      1 <0>        -0.1155
      6 C6         -1.6950    3.4763   -2.3813 C.ar      1 <0>        -0.1155
      7 C7         -0.0127    1.0858    0.0080 C.3       1 <0>        -0.0725
      8 H1          0.0021   -0.0041    0.0020 H         1 <0>         0.1000
      9 C8         -0.5403    1.6311    1.3636 C.3       1 <0>        -0.1406
     10 C9          0.7292    1.6128    2.2383 C.3       1 <0>         0.0993
     11 C10         0.7318    0.3539    3.1062 C.3       1 <0>        -0.1346
     12 C11         1.9617    0.3758    4.0190 C.3       1 <0>        -0.1438
     13 C12         1.9419    1.6530    4.8617 C.3       1 <0>        -0.0031
     14 C13         0.7558    2.8572    3.1251 C.3       1 <0>         0.0831
     15 H2         -0.1366    2.8765    3.7507 H         1 <0>         0.1494
     16 C14         0.7888    4.0902    2.2593 C.ar      1 <0>        -0.1428
     17 C15         1.9814    4.5111    1.7011 C.ar      1 <0>        -0.1061
     18 C16         2.0108    5.6394    0.9030 C.ar      1 <0>        -0.1070
     19 C17         0.8495    6.3525    0.6712 C.ar      1 <0>        -0.0899
     20 C18        -0.3421    5.9348    1.2340 C.ar      1 <0>        -0.1075
     21 C19        -0.3724    4.8035    2.0279 C.ar      1 <0>        -0.0914
     22 O1          1.8621    1.6081    1.3652 O.3       1 <0>        -0.3675
     23 C20         1.4251    1.6638   -0.0026 C.3       1 <0>         0.0600
     24 H3         -2.8854    2.9861   -4.0880 H         1 <0>         0.1265
     25 H4         -2.6534    0.5555   -3.7698 H         1 <0>         0.1274
     26 H5         -1.3320   -0.3189   -1.8849 H         1 <0>         0.1237
     27 H6         -0.4816    3.6680   -0.6316 H         1 <0>         0.1171
     28 H7         -1.7971    4.5424   -2.5206 H         1 <0>         0.1238
     29 H8         -0.9202    2.6466    1.2521 H         1 <0>         0.0964
     30 H9         -1.3050    0.9725    1.7756 H         1 <0>         0.0982
     31 H10        -0.1726    0.3286    3.7140 H         1 <0>         0.0921
     32 H11         0.7677   -0.5287    2.4677 H         1 <0>         0.1007
     33 H12         2.8663    0.3545    3.4114 H         1 <0>         0.0952
     34 H13         1.9438   -0.4940    4.6758 H         1 <0>         0.1133
     35 H14         2.8211    1.6766    5.5056 H         1 <0>         0.1346
     36 H15         1.0416    1.6683    5.4759 H         1 <0>         0.1299
     37 H16         2.8895    3.9563    1.8856 H         1 <0>         0.1226
     38 H17         2.9417    5.9659    0.4636 H         1 <0>         0.1346
     39 H18         0.8731    7.2361    0.0507 H         1 <0>         0.1350
     40 H19        -1.2493    6.4921    1.0532 H         1 <0>         0.1362
     41 H20        -1.3033    4.4772    2.4676 H         1 <0>         0.1321
     42 H21         2.0733    1.0541   -0.6320 H         1 <0>         0.0987
     43 H22         1.4158    2.6947   -0.3567 H         1 <0>         0.0742
     44 N1          1.9599    2.8342    3.9781 N.4       1 <0>        -0.5117
     45 H23         2.7956    2.7986    3.3827 H         1 <0>         0.4338
     46 H24         1.9844    3.6854    4.5517 H         1 <0>         0.4340
@<TRIPOS>BOND
     1    1    6 ar
     2    1    2 ar
     3    1   24 1
     4    2    3 ar
     5    2   25 1
     6    3    4 ar
     7    3   26 1
     8    4    5 ar
     9    4    7 1
    10    5    6 ar
    11    5   27 1
    12    6   28 1
    13    7    8 1
    14    7   23 1
    15    7    9 1
    16    9   10 1
    17    9   29 1
    18    9   30 1
    19   10   14 1
    20   10   11 1
    21   10   22 1
    22   11   12 1
    23   11   31 1
    24   11   32 1
    25   12   13 1
    26   12   33 1
    27   12   34 1
    28   13   35 1
    29   13   36 1
    30   13   44 1
    31   14   15 1
    32   14   16 1
    33   14   44 1
    34   16   21 ar
    35   16   17 ar
    36   17   18 ar
    37   17   37 1
    38   18   19 ar
    39   18   38 1
    40   19   20 ar
    41   19   39 1
    42   20   21 ar
    43   20   40 1
    44   21   41 1
    45   22   23 1
    46   23   42 1
    47   23   43 1
    48   44   45 1
    49   44   46 1
