@<TRIPOS>MOLECULE
ZINC02105298
   50    53     0     0     0
SMALL
USER_CHARGES
2-phenyl-N-(1-phenylpropyl)quinoline-4-carboxamide
@<TRIPOS>ATOM
      1 C1         -4.4343    1.0496    2.0764 C.3       1 <0>        -0.1473
      2 C2         -5.3944    0.0711    1.3971 C.3       1 <0>        -0.1286
      3 C3         -4.9543   -0.1529   -0.0511 C.3       1 <0>         0.1873
      4 H1         -4.8800    0.8077   -0.5609 H         1 <0>         0.1021
      5 C4         -5.9668   -1.0185   -0.7556 C.ar      1 <0>        -0.0955
      6 C5         -5.9462   -2.3894   -0.5793 C.ar      1 <0>        -0.1164
      7 C6         -6.8777   -3.1831   -1.2222 C.ar      1 <0>        -0.1141
      8 C7         -7.8242   -2.6067   -2.0485 C.ar      1 <0>        -0.1165
      9 C8         -7.8416   -1.2363   -2.2290 C.ar      1 <0>        -0.1137
     10 C9         -6.9127   -0.4422   -1.5827 C.ar      1 <0>        -0.1056
     11 N1         -3.6485   -0.8167   -0.0675 N.am      1 <0>        -0.7143
     12 C10        -2.5198   -0.0861    0.0265 C.2       1 <0>         0.5663
     13 O1         -2.5854    1.1235    0.1249 O.2       1 <0>        -0.5131
     14 C11        -1.2014   -0.7564    0.0099 C.ar      1 <0>        -0.0687
     15 C12        -1.1022   -2.1389    0.0203 C.ar      1 <0>        -0.1280
     16 C13         0.1657   -2.7407    0.0044 C.ar      1 <0>         0.1953
     17 N2          1.2710   -2.0233   -0.0207 N.ar      1 <0>        -0.4486
     18 C14         1.2424   -0.6893   -0.0314 C.ar      1 <0>         0.1341
     19 C15         0.0018   -0.0041   -0.0167 C.ar      1 <0>        -0.0668
     20 C16        -0.0174    1.3963   -0.0281 C.ar      1 <0>        -0.1030
     21 C17         1.1571    2.0871   -0.0532 C.ar      1 <0>        -0.1139
     22 C18         2.3792    1.4179   -0.0687 C.ar      1 <0>        -0.0938
     23 C19         2.4349    0.0584   -0.0579 C.ar      1 <0>        -0.0976
     24 C20         0.2640   -4.2203    0.0157 C.ar      1 <0>        -0.0569
     25 C21        -0.8924   -4.9981    0.0475 C.ar      1 <0>        -0.0995
     26 C22        -0.7949   -6.3747    0.0520 C.ar      1 <0>        -0.1223
     27 C23         0.4476   -6.9828    0.0371 C.ar      1 <0>        -0.1042
     28 C24         1.5986   -6.2159    0.0108 C.ar      1 <0>        -0.1241
     29 C25         1.5132   -4.8386    0.0003 C.ar      1 <0>        -0.0749
     30 H2         -4.7478    1.2092    3.1080 H         1 <0>         0.0502
     31 H3         -3.4254    0.6372    2.0629 H         1 <0>         0.0548
     32 H4         -4.4456    1.9997    1.5421 H         1 <0>         0.0626
     33 H5         -6.4033    0.4835    1.4106 H         1 <0>         0.0761
     34 H6         -5.3831   -0.8790    1.9313 H         1 <0>         0.0658
     35 H7         -5.2043   -2.8401    0.0633 H         1 <0>         0.1183
     36 H8         -6.8643   -4.2538   -1.0809 H         1 <0>         0.1251
     37 H9         -8.5503   -3.2270   -2.5529 H         1 <0>         0.1243
     38 H10        -8.5810   -0.7860   -2.8746 H         1 <0>         0.1259
     39 H11        -6.9263    0.6284   -1.7237 H         1 <0>         0.1257
     40 H12        -3.5961   -1.7821   -0.1461 H         1 <0>         0.3995
     41 H13        -1.9936   -2.7483    0.0408 H         1 <0>         0.1405
     42 H14        -0.9585    1.9261   -0.0214 H         1 <0>         0.1697
     43 H15         1.1404    3.1669   -0.0620 H         1 <0>         0.1308
     44 H16         3.2967    1.9873   -0.0894 H         1 <0>         0.1328
     45 H17         3.3902   -0.4450   -0.0691 H         1 <0>         0.1386
     46 H18        -1.8628   -4.5244    0.0644 H         1 <0>         0.1242
     47 H19        -1.6902   -6.9784    0.0722 H         1 <0>         0.1279
     48 H20         0.5192   -8.0604    0.0456 H         1 <0>         0.1258
     49 H21         2.5659   -6.6961   -0.0011 H         1 <0>         0.1277
     50 H22         2.4125   -4.2409   -0.0203 H         1 <0>         0.1362
@<TRIPOS>BOND
     1    1    2 1
     2    1   30 1
     3    1   31 1
     4    1   32 1
     5    2    3 1
     6    2   33 1
     7    2   34 1
     8    3    4 1
     9    3    5 1
    10    3   11 1
    11    5   10 ar
    12    5    6 ar
    13    6    7 ar
    14    6   35 1
    15    7    8 ar
    16    7   36 1
    17    8    9 ar
    18    8   37 1
    19    9   10 ar
    20    9   38 1
    21   10   39 1
    22   11   12 am
    23   11   40 1
    24   12   13 2
    25   12   14 1
    26   14   19 ar
    27   14   15 ar
    28   15   16 ar
    29   15   41 1
    30   16   17 ar
    31   16   24 1
    32   17   18 ar
    33   18   23 ar
    34   18   19 ar
    35   19   20 ar
    36   20   21 ar
    37   20   42 1
    38   21   22 ar
    39   21   43 1
    40   22   23 ar
    41   22   44 1
    42   23   45 1
    43   24   29 ar
    44   24   25 ar
    45   25   26 ar
    46   25   46 1
    47   26   27 ar
    48   26   47 1
    49   27   28 ar
    50   27   48 1
    51   28   29 ar
    52   28   49 1
    53   29   50 1
@<TRIPOS>MOLECULE
ZINC01543566
   51    54     0     0     0
SMALL
USER_CHARGES
3-hydroxy-2-phenyl-N-(1-phenylpropyl)quinoline-4-carboxamide
@<TRIPOS>ATOM
      1 C1          1.6797    2.1494   -5.4302 C.3       1 <0>        -0.1505
      2 C2          1.6218    0.6235   -5.5259 C.3       1 <0>        -0.1293
      3 C3          0.7549    0.0738   -4.3914 C.3       1 <0>         0.1865
      4 H1         -0.2258    0.5486   -4.4207 H         1 <0>         0.1009
      5 C4          0.5970   -1.4158   -4.5564 C.ar      1 <0>        -0.0945
      6 C5          1.6099   -2.2668   -4.1555 C.ar      1 <0>        -0.1156
      7 C6          1.4632   -3.6335   -4.3029 C.ar      1 <0>        -0.1149
      8 C7          0.3074   -4.1486   -4.8594 C.ar      1 <0>        -0.1165
      9 C8         -0.7033   -3.2972   -5.2651 C.ar      1 <0>        -0.1138
     10 C9         -0.5584   -1.9308   -5.1138 C.ar      1 <0>        -0.1055
     11 N1          1.3965    0.3573   -3.1052 N.am      1 <0>        -0.7155
     12 C10         1.2025    1.5475   -2.5033 C.2       1 <0>         0.5767
     13 O1          0.4949    2.3859   -3.0277 O.2       1 <0>        -0.5050
     14 C11         1.8482    1.8329   -1.2088 C.ar      1 <0>        -0.1037
     15 C12         3.1761    2.4457   -1.1381 C.ar      1 <0>        -0.0609
     16 C13         3.8856    2.7840   -2.2951 C.ar      1 <0>        -0.1058
     17 C14         5.1200    3.3537   -2.1862 C.ar      1 <0>        -0.0985
     18 C15         5.6831    3.6018   -0.9368 C.ar      1 <0>        -0.1016
     19 C16         5.0194    3.2843    0.2085 C.ar      1 <0>        -0.0816
     20 C17         3.7435    2.6957    0.1358 C.ar      1 <0>         0.1232
     21 N2          3.0716    2.3742    1.2436 N.ar      1 <0>        -0.4401
     22 C18         1.8763    1.8287    1.2111 C.ar      1 <0>         0.1917
     23 C19         1.2190    1.5307   -0.0014 C.ar      1 <0>         0.1103
     24 O2         -0.0110    0.9628    0.0073 O.3       1 <0>        -0.4734
     25 C20         1.1990    1.5104    2.4903 C.ar      1 <0>        -0.0632
     26 C21        -0.1852    1.6380    2.6000 C.ar      1 <0>        -0.0803
     27 C22        -0.8109    1.3342    3.7918 C.ar      1 <0>        -0.1272
     28 C23        -0.0664    0.9152    4.8799 C.ar      1 <0>        -0.1020
     29 C24         1.3078    0.7926    4.7789 C.ar      1 <0>        -0.1291
     30 C25         1.9441    1.0876    3.5905 C.ar      1 <0>        -0.0750
     31 H2          0.6721    2.5571   -5.5125 H         1 <0>         0.0633
     32 H3          2.1108    2.4372   -4.4713 H         1 <0>         0.0544
     33 H4          2.2973    2.5410   -6.2385 H         1 <0>         0.0521
     34 H5          2.6294    0.2158   -5.4436 H         1 <0>         0.0664
     35 H6          1.1907    0.3357   -6.4848 H         1 <0>         0.0767
     36 H7          2.5144   -1.8642   -3.7242 H         1 <0>         0.1188
     37 H8          2.2527   -4.2986   -3.9856 H         1 <0>         0.1243
     38 H9          0.1939   -5.2161   -4.9770 H         1 <0>         0.1241
     39 H10        -1.6063   -3.6996   -5.6999 H         1 <0>         0.1258
     40 H11        -1.3481   -1.2657   -5.4307 H         1 <0>         0.1256
     41 H12         1.9609   -0.3115   -2.6869 H         1 <0>         0.4007
     42 H13         3.4584    2.5956   -3.2689 H         1 <0>         0.1306
     43 H14         5.6676    3.6152   -3.0796 H         1 <0>         0.1334
     44 H15         6.6623    4.0532   -0.8756 H         1 <0>         0.1361
     45 H16         5.4703    3.4839    1.1694 H         1 <0>         0.1417
     46 H17         0.0021   -0.0041    0.0020 H         1 <0>         0.3956
     47 H18        -0.7669    1.9694    1.7526 H         1 <0>         0.1378
     48 H19        -1.8835    1.4281    3.8766 H         1 <0>         0.1271
     49 H20        -0.5601    0.6825    5.8119 H         1 <0>         0.1247
     50 H21         1.8839    0.4650    5.6317 H         1 <0>         0.1266
     51 H22         3.0169    0.9909    3.5125 H         1 <0>         0.1288
@<TRIPOS>BOND
     1    1    2 1
     2    1   31 1
     3    1   32 1
     4    1   33 1
     5    2    3 1
     6    2   34 1
     7    2   35 1
     8    3    4 1
     9    3    5 1
    10    3   11 1
    11    5   10 ar
    12    5    6 ar
    13    6    7 ar
    14    6   36 1
    15    7    8 ar
    16    7   37 1
    17    8    9 ar
    18    8   38 1
    19    9   10 ar
    20    9   39 1
    21   10   40 1
    22   11   12 am
    23   11   41 1
    24   12   13 2
    25   12   14 1
    26   14   23 ar
    27   14   15 ar
    28   15   20 ar
    29   15   16 ar
    30   16   17 ar
    31   16   42 1
    32   17   18 ar
    33   17   43 1
    34   18   19 ar
    35   18   44 1
    36   19   20 ar
    37   19   45 1
    38   20   21 ar
    39   21   22 ar
    40   22   23 ar
    41   22   25 1
    42   23   24 1
    43   24   46 1
    44   25   30 ar
    45   25   26 ar
    46   26   27 ar
    47   26   47 1
    48   27   28 ar
    49   27   48 1
    50   28   29 ar
    51   28   49 1
    52   29   30 ar
    53   29   50 1
    54   30   51 1
@<TRIPOS>MOLECULE
ZINC01543563
   53    56     0     0     0
SMALL
USER_CHARGES

@<TRIPOS>ATOM
      1 C1         -0.3657    1.3647   -0.3063 C.3       1 <0>        -0.1519
      2 C2         -0.3773   -0.1651   -0.2848 C.3       1 <0>        -0.1288
      3 C3         -1.8172   -0.6622   -0.1415 C.3       1 <0>         0.1860
      4 H1         -2.4301   -0.2341   -0.9347 H         1 <0>         0.1002
      5 C4         -1.8421   -2.1656   -0.2434 C.ar      1 <0>        -0.0949
      6 C5         -1.5083   -2.9383    0.8531 C.ar      1 <0>        -0.1145
      7 C6         -1.5311   -4.3173    0.7596 C.ar      1 <0>        -0.1145
      8 C7         -1.8881   -4.9236   -0.4303 C.ar      1 <0>        -0.1165
      9 C8         -2.2228   -4.1508   -1.5266 C.ar      1 <0>        -0.1142
     10 C9         -2.2041   -2.7719   -1.4318 C.ar      1 <0>        -0.1062
     11 N1         -2.3480   -0.2523    1.1610 N.am      1 <0>        -0.7149
     12 C10        -2.8923    0.9715    1.3119 C.2       1 <0>         0.5721
     13 O1         -2.9427    1.7349    0.3675 O.2       1 <0>        -0.5107
     14 C11        -3.4282    1.3854    2.6269 C.ar      1 <0>        -0.0732
     15 C12        -2.6247    2.0272    3.5564 C.ar      1 <0>        -0.0832
     16 C13        -3.1671    2.4057    4.7943 C.ar      1 <0>         0.2013
     17 N2         -4.4268    2.1662    5.0992 N.ar      1 <0>        -0.4482
     18 C14        -5.2509    1.5523    4.2481 C.ar      1 <0>         0.1292
     19 C15        -4.7828    1.1431    2.9744 C.ar      1 <0>        -0.0693
     20 C16        -5.6576    0.5049    2.0861 C.ar      1 <0>        -0.1018
     21 C17        -6.9522    0.2883    2.4528 C.ar      1 <0>        -0.1023
     22 C18        -7.4185    0.6938    3.7016 C.ar      1 <0>        -0.1002
     23 C19        -6.5931    1.3057    4.5937 C.ar      1 <0>        -0.0859
     24 C20        -2.3013    3.0915    5.7838 C.ar      1 <0>        -0.0520
     25 C21        -1.4526    4.1198    5.3770 C.ar      1 <0>        -0.0963
     26 C22        -0.6491    4.7544    6.3023 C.ar      1 <0>        -0.1224
     27 C23        -0.6845    4.3715    7.6312 C.ar      1 <0>        -0.1054
     28 C24        -1.5245    3.3515    8.0405 C.ar      1 <0>        -0.1232
     29 C25        -2.3373    2.7142    7.1253 C.ar      1 <0>        -0.0783
     30 C26        -1.1798    2.3160    3.2403 C.3       1 <0>        -0.1262
     31 H2          0.6600    1.7189   -0.4084 H         1 <0>         0.0511
     32 H3         -0.9586    1.7207   -1.1489 H         1 <0>         0.0619
     33 H4         -0.7904    1.7444    0.6230 H         1 <0>         0.0580
     34 H5          0.0473   -0.5448   -1.2141 H         1 <0>         0.0759
     35 H6          0.2155   -0.5211    0.5578 H         1 <0>         0.0663
     36 H7         -1.2294   -2.4646    1.7828 H         1 <0>         0.1190
     37 H8         -1.2697   -4.9210    1.6161 H         1 <0>         0.1244
     38 H9         -1.9053   -6.0009   -0.5036 H         1 <0>         0.1240
     39 H10        -2.5014   -4.6245   -2.4563 H         1 <0>         0.1256
     40 H11        -2.4691   -2.1682   -2.2872 H         1 <0>         0.1252
     41 H12        -2.3078   -0.8615    1.9147 H         1 <0>         0.4024
     42 H13        -5.3080    0.1863    1.1152 H         1 <0>         0.1268
     43 H14        -7.6255   -0.2037    1.7664 H         1 <0>         0.1316
     44 H15        -8.4488    0.5113    3.9692 H         1 <0>         0.1348
     45 H16        -6.9700    1.6139    5.5578 H         1 <0>         0.1401
     46 H17        -1.4236    4.4190    4.3397 H         1 <0>         0.1280
     47 H18         0.0089    5.5511    5.9883 H         1 <0>         0.1280
     48 H19        -0.0537    4.8708    8.3517 H         1 <0>         0.1255
     49 H20        -1.5477    3.0565    9.0792 H         1 <0>         0.1271
     50 H21        -2.9962    1.9212    7.4468 H         1 <0>         0.1272
     51 H22        -1.1082    3.2575    2.6958 H         1 <0>         0.0846
     52 H23        -0.6124    2.3887    4.1681 H         1 <0>         0.0865
     53 H24        -0.7738    1.5105    2.6282 H         1 <0>         0.0722
@<TRIPOS>BOND
     1    1    2 1
     2    1   31 1
     3    1   32 1
     4    1   33 1
     5    2    3 1
     6    2   34 1
     7    2   35 1
     8    3    4 1
     9    3    5 1
    10    3   11 1
    11    5   10 ar
    12    5    6 ar
    13    6    7 ar
    14    6   36 1
    15    7    8 ar
    16    7   37 1
    17    8    9 ar
    18    8   38 1
    19    9   10 ar
    20    9   39 1
    21   10   40 1
    22   11   12 am
    23   11   41 1
    24   12   13 2
    25   12   14 1
    26   14   19 ar
    27   14   15 ar
    28   15   16 ar
    29   15   30 1
    30   16   17 ar
    31   16   24 1
    32   17   18 ar
    33   18   23 ar
    34   18   19 ar
    35   19   20 ar
    36   20   21 ar
    37   20   42 1
    38   21   22 ar
    39   21   43 1
    40   22   23 ar
    41   22   44 1
    42   23   45 1
    43   24   29 ar
    44   24   25 ar
    45   25   26 ar
    46   25   46 1
    47   26   27 ar
    48   26   47 1
    49   27   28 ar
    50   27   48 1
    51   28   29 ar
    52   28   49 1
    53   29   50 1
    54   30   51 1
    55   30   52 1
    56   30   53 1
@<TRIPOS>MOLECULE
ZINC02022527
   54    55     0     0     0
SMALL
USER_CHARGES

@<TRIPOS>ATOM
      1 C1         -3.0730    2.2881   -4.2693 C.3       1 <0>        -0.1569
      2 C2         -2.3049    1.5870   -3.1471 C.3       1 <0>        -0.1270
      3 C3         -2.8110    2.0874   -1.7927 C.3       1 <0>        -0.1231
      4 C4         -2.0429    1.3862   -0.6705 C.3       1 <0>        -0.1174
      5 C5         -2.5490    1.8867    0.6839 C.3       1 <0>        -0.1006
      6 C6         -2.2117    3.3722    0.8391 C.3       1 <0>        -0.1451
      7 C7         -2.6658    3.8518    2.2196 C.3       1 <0>        -0.0114
      8 C8         -2.3347    1.6429    3.1595 C.3       1 <0>        -0.0001
      9 C9         -1.8707    1.0973    1.8070 C.3       1 <0>        -0.1442
     10 C10        -2.2939    3.5901    4.5974 C.3       1 <0>        -0.0052
     11 C11        -2.1583    5.1140    4.5919 C.3       1 <0>        -0.1459
     12 C12        -2.4764    5.6593    5.9856 C.3       1 <0>        -0.1543
     13 C13        -2.3428    7.1604    5.9803 C.2       1 <0>         0.3987
     14 O1         -2.0245    7.7371    4.9623 O.2       1 <0>        -0.4456
     15 C14        -2.5986    7.9263    7.2106 C.ar      1 <0>        -0.1885
     16 C15        -3.0878    7.2813    8.3513 C.ar      1 <0>        -0.0705
     17 C16        -3.3195    8.0047    9.5018 C.ar      1 <0>        -0.1389
     18 C17        -3.0801    9.3679    9.5265 C.ar      1 <0>        -0.0729
     19 C18        -2.6016   10.0143    8.4004 C.ar      1 <0>        -0.1345
     20 C19        -2.3594    9.3036    7.2436 C.ar      1 <0>        -0.0178
     21 C20        -1.8387   10.0095    6.0182 C.3       1 <0>        -0.1264
     22 H1         -4.1363    2.0676   -4.1746 H         1 <0>         0.0549
     23 H2         -2.9175    3.3647   -4.1985 H         1 <0>         0.0540
     24 H3         -2.7125    1.9316   -5.2342 H         1 <0>         0.0581
     25 H4         -1.2417    1.8075   -3.2417 H         1 <0>         0.0621
     26 H5         -2.4605    0.5104   -3.2179 H         1 <0>         0.0631
     27 H6         -3.8743    1.8669   -1.6981 H         1 <0>         0.0644
     28 H7         -2.6555    3.1639   -1.7219 H         1 <0>         0.0632
     29 H8         -2.1984    0.3097   -0.7413 H         1 <0>         0.0733
     30 H9         -0.9796    1.6067   -0.7651 H         1 <0>         0.0688
     31 H10        -3.6287    1.7492    0.7427 H         1 <0>         0.0884
     32 H11        -1.1354    3.5132    0.7407 H         1 <0>         0.0881
     33 H12        -2.7264    3.9447    0.0675 H         1 <0>         0.1133
     34 H13        -3.7442    3.7233    2.3122 H         1 <0>         0.1295
     35 H14        -2.4142    4.9057    2.3388 H         1 <0>         0.1342
     36 H15        -3.4146    1.5248    3.2476 H         1 <0>         0.1293
     37 H16        -1.8426    1.0924    3.9613 H         1 <0>         0.1282
     38 H17        -2.1418    0.0446    1.7270 H         1 <0>         0.1118
     39 H18        -0.7890    1.2025    1.7239 H         1 <0>         0.0880
     40 H19        -3.3133    3.3170    4.8704 H         1 <0>         0.1315
     41 H20        -1.5979    3.1659    5.3211 H         1 <0>         0.1302
     42 H21        -1.1389    5.3871    4.3190 H         1 <0>         0.0944
     43 H22        -2.8542    5.5382    3.8682 H         1 <0>         0.0968
     44 H23        -3.4115    5.4088    6.2361 H         1 <0>         0.0981
     45 H24        -1.7805    5.2352    6.7093 H         1 <0>         0.1100
     46 H25        -3.2793    6.2186    8.3321 H         1 <0>         0.1290
     47 H26        -3.6933    7.5074   10.3846 H         1 <0>         0.1322
     48 H27        -3.2682    9.9300   10.4293 H         1 <0>         0.1326
     49 H28        -2.4176   11.0782    8.4274 H         1 <0>         0.1332
     50 H29        -2.6709   10.2515    5.3572 H         1 <0>         0.0784
     51 H30        -1.3321   10.9277    6.3156 H         1 <0>         0.0652
     52 H31        -1.1365    9.3600    5.4956 H         1 <0>         0.0893
     53 N1         -1.9588    3.0696    3.2558 N.4       1 <0>        -0.3931
     54 H32        -0.9467    3.1581    3.1071 H         1 <0>         0.4272
@<TRIPOS>BOND
     1    1    2 1
     2    1   22 1
     3    1   23 1
     4    1   24 1
     5    2    3 1
     6    2   25 1
     7    2   26 1
     8    3    4 1
     9    3   27 1
    10    3   28 1
    11    4    5 1
    12    4   29 1
    13    4   30 1
    14    5    9 1
    15    5    6 1
    16    5   31 1
    17    6    7 1
    18    6   32 1
    19    6   33 1
    20    7   34 1
    21    7   35 1
    22    7   53 1
    23    8    9 1
    24    8   36 1
    25    8   37 1
    26    8   53 1
    27    9   38 1
    28    9   39 1
    29   10   11 1
    30   10   40 1
    31   10   41 1
    32   10   53 1
    33   11   12 1
    34   11   42 1
    35   11   43 1
    36   12   13 1
    37   12   44 1
    38   12   45 1
    39   13   14 2
    40   13   15 1
    41   15   20 ar
    42   15   16 ar
    43   16   17 ar
    44   16   46 1
    45   17   18 ar
    46   17   47 1
    47   18   19 ar
    48   18   48 1
    49   19   20 ar
    50   19   49 1
    51   20   21 1
    52   21   50 1
    53   21   51 1
    54   21   52 1
    55   53   54 1
@<TRIPOS>MOLECULE
ZINC07999073
   57    60     0     0     0
SMALL
USER_CHARGES

@<TRIPOS>ATOM
      1 C1          0.7412   -0.6660   -0.5565 C.3       1 <0>         0.0250
      2 O1         -0.2343   -0.0740    0.3038 O.3       1 <0>        -0.3680
      3 C2         -1.5713   -0.5130    0.0553 C.3       1 <0>         0.1302
      4 C3         -2.5085    0.0752    1.1140 C.3       1 <0>        -0.1435
      5 C4         -2.1090   -0.4556    2.4925 C.3       1 <0>        -0.0043
      6 N1         -2.2113   -1.9198    2.5055 N.4       1 <0>        -0.3824
      7 C5         -1.2633   -2.4939    1.5431 C.3       1 <0>        -0.0090
      8 C6         -1.6302   -2.0415    0.1281 C.3       1 <0>        -0.1707
      9 C7         -1.9022   -2.4188    3.8521 C.3       1 <0>        -0.0080
     10 C8         -2.1291   -3.9311    3.9001 C.3       1 <0>        -0.0596
     11 C9         -1.8121   -4.4431    5.2816 C.2       1 <0>        -0.2033
     12 C10        -0.6430   -4.9587    5.6931 C.2       1 <0>         0.0938
     13 N2         -0.7286   -5.3155    7.0112 N.pl3     1 <0>        -0.5848
     14 H1         -0.0099   -5.7101    7.5295 H         1 <0>         0.4256
     15 C11        -1.9881   -5.0305    7.4926 C.ar      1 <0>         0.0845
     16 C12        -2.7193   -4.4664    6.4315 C.ar      1 <0>        -0.0739
     17 C13        -4.0433   -4.0697    6.6302 C.ar      1 <0>        -0.1219
     18 C14        -4.6244   -4.2315    7.8695 C.ar      1 <0>         0.0887
     19 C15        -3.8994   -4.7856    8.9179 C.ar      1 <0>        -0.1277
     20 C16        -2.5951   -5.1889    8.7336 C.ar      1 <0>        -0.0883
     21 F1         -5.9052   -3.8492    8.0663 F         1 <0>        -0.1355
     22 C17        -2.0120   -0.0496   -1.3347 C.3       1 <0>        -0.5034
     23 S1         -2.0517    1.7633   -1.3833 S.o       1 <0>         1.3395
     24 O2         -0.7234    2.2648   -1.4415 O.2       1 <0>        -0.8248
     25 C18        -2.7169    2.1326   -2.9725 C.ar      1 <0>        -0.4754
     26 C19        -1.8730    2.2839   -4.0569 C.ar      1 <0>        -0.0540
     27 C20        -2.3949    2.5736   -5.3037 C.ar      1 <0>        -0.1327
     28 C21        -3.7607    2.7117   -5.4662 C.ar      1 <0>        -0.0764
     29 C22        -4.6047    2.5596   -4.3820 C.ar      1 <0>        -0.1347
     30 C23        -4.0831    2.2656   -3.1361 C.ar      1 <0>        -0.0449
     31 H2          1.7138   -0.2104   -0.3707 H         1 <0>         0.0989
     32 H3          0.7978   -1.7365   -0.3591 H         1 <0>         0.0462
     33 H4          0.4560   -0.5028   -1.5958 H         1 <0>         0.0499
     34 H5         -2.4302    1.1623    1.1059 H         1 <0>         0.1208
     35 H6         -3.5351   -0.2181    0.8946 H         1 <0>         0.1168
     36 H7         -1.0824   -0.1616    2.7110 H         1 <0>         0.1383
     37 H8         -2.7741   -0.0386    3.2486 H         1 <0>         0.1382
     38 H9         -0.2547   -2.1564    1.7818 H         1 <0>         0.1330
     39 H10        -1.3041   -3.5817    1.5983 H         1 <0>         0.1344
     40 H11        -2.6386   -2.3787   -0.1118 H         1 <0>         0.1035
     41 H12        -0.9242   -2.4674   -0.5848 H         1 <0>         0.1147
     42 H13        -0.8615   -2.1998    4.0908 H         1 <0>         0.1302
     43 H14        -2.5520   -1.9307    4.5785 H         1 <0>         0.1335
     44 H15        -3.1699   -4.1501    3.6614 H         1 <0>         0.0928
     45 H16        -1.4793   -4.4193    3.1738 H         1 <0>         0.0914
     46 H17         0.2350   -5.0751    5.0751 H         1 <0>         0.1757
     47 H18        -4.6087   -3.6383    5.8174 H         1 <0>         0.1327
     48 H19        -4.3650   -4.9068    9.8848 H         1 <0>         0.1451
     49 H20        -2.0407   -5.6172    9.5556 H         1 <0>         0.1368
     50 H21        -1.3076   -0.4177   -2.0806 H         1 <0>         0.1017
     51 H22        -3.0064   -0.4407   -1.5497 H         1 <0>         0.1300
     52 H23        -0.8060    2.1760   -3.9299 H         1 <0>         0.1254
     53 H24        -1.7355    2.6925   -6.1508 H         1 <0>         0.1285
     54 H25        -4.1684    2.9388   -6.4402 H         1 <0>         0.1308
     55 H26        -5.6717    2.6678   -4.5090 H         1 <0>         0.1332
     56 H27        -4.7428    2.1431   -2.2897 H         1 <0>         0.1360
     57 H28        -3.1498   -2.1926    2.2551 H         1 <0>         0.4214
@<TRIPOS>BOND
     1    1    2 1
     2    1   31 1
     3    1   32 1
     4    1   33 1
     5    2    3 1
     6    3    8 1
     7    3    4 1
     8    3   22 1
     9    4    5 1
    10    4   34 1
    11    4   35 1
    12    5    6 1
    13    5   36 1
    14    5   37 1
    15    6    7 1
    16    6    9 1
    17    6   57 1
    18    7    8 1
    19    7   38 1
    20    7   39 1
    21    8   40 1
    22    8   41 1
    23    9   10 1
    24    9   42 1
    25    9   43 1
    26   10   11 1
    27   10   44 1
    28   10   45 1
    29   11   16 1
    30   11   12 2
    31   12   13 1
    32   12   46 1
    33   13   14 1
    34   13   15 1
    35   15   20 ar
    36   15   16 ar
    37   16   17 ar
    38   17   18 ar
    39   17   47 1
    40   18   19 ar
    41   18   21 1
    42   19   20 ar
    43   19   48 1
    44   20   49 1
    45   22   23 1
    46   22   50 1
    47   22   51 1
    48   23   24 2
    49   23   25 1
    50   25   30 ar
    51   25   26 ar
    52   26   27 ar
    53   26   52 1
    54   27   28 ar
    55   27   53 1
    56   28   29 ar
    57   28   54 1
    58   29   30 ar
    59   29   55 1
    60   30   56 1
@<TRIPOS>MOLECULE
ZINC07999076
   57    60     0     0     0
SMALL
USER_CHARGES

@<TRIPOS>ATOM
      1 C1          0.8093   -0.5783   -1.1152 C.3       1 <0>         0.0112
      2 O1          0.0258   -0.0696   -0.0338 O.3       1 <0>        -0.3719
      3 C2         -1.3334   -0.5104   -0.0431 C.3       1 <0>         0.1352
      4 C3         -2.0710    0.0783    1.1630 C.3       1 <0>        -0.1513
      5 C4         -1.4349   -0.4500    2.4506 C.3       1 <0>        -0.0014
      6 N1         -1.5313   -1.9142    2.4832 N.4       1 <0>        -0.3841
      7 C5         -0.7663   -2.4887    1.3700 C.3       1 <0>        -0.0078
      8 C6         -1.3766   -2.0389    0.0409 C.3       1 <0>        -0.1696
      9 C7         -0.9899   -2.4109    3.7553 C.3       1 <0>        -0.0078
     10 C8         -1.2028   -3.9234    3.8443 C.3       1 <0>        -0.0596
     11 C9         -0.6475   -4.4329    5.1493 C.2       1 <0>        -0.2030
     12 C10         0.5764   -4.9467    5.3498 C.2       1 <0>         0.0939
     13 N2          0.7241   -5.3015    6.6629 N.pl3     1 <0>        -0.5847
     14 H1          1.5231   -5.6946    7.0475 H         1 <0>         0.4256
     15 C11        -0.4317   -5.0172    7.3576 C.ar      1 <0>         0.0847
     16 C12        -1.3386   -4.4555    6.4408 C.ar      1 <0>        -0.0742
     17 C13        -2.6077   -4.0600    6.8683 C.ar      1 <0>        -0.1222
     18 C14        -2.9620   -4.2206    8.1906 C.ar      1 <0>         0.0887
     19 C15        -2.0633   -4.7723    9.0961 C.ar      1 <0>        -0.1275
     20 C16        -0.8111   -5.1744    8.6862 C.ar      1 <0>        -0.0883
     21 F1         -4.1888   -3.8394    8.6087 F         1 <0>        -0.1356
     22 C17        -2.0120   -0.0496   -1.3347 C.3       1 <0>        -0.5018
     23 S1         -2.0517    1.7633   -1.3833 S.o       1 <0>         1.3495
     24 O2         -2.9547    2.2439   -0.3969 O.2       1 <0>        -0.8426
     25 C18        -2.8520    2.1314   -2.9093 C.ar      1 <0>        -0.4726
     26 C19        -2.1054    2.2786   -4.0633 C.ar      1 <0>        -0.0434
     27 C20        -2.7333    2.5674   -5.2605 C.ar      1 <0>        -0.1336
     28 C21        -4.1077    2.7085   -5.3038 C.ar      1 <0>        -0.0754
     29 C22        -4.8544    2.5604   -4.1499 C.ar      1 <0>        -0.1331
     30 C23        -4.2269    2.2673   -2.9535 C.ar      1 <0>        -0.0544
     31 H2          1.8244   -0.1877   -1.0437 H         1 <0>         0.1042
     32 H3          0.8344   -1.6669   -1.0650 H         1 <0>         0.0491
     33 H4          0.3666   -0.2684   -2.0619 H         1 <0>         0.0587
     34 H5         -1.9968    1.1655    1.1398 H         1 <0>         0.1345
     35 H6         -3.1198   -0.2164    1.1276 H         1 <0>         0.1034
     36 H7         -0.3863   -0.1545    2.4850 H         1 <0>         0.1395
     37 H8         -1.9575   -0.0326    3.3112 H         1 <0>         0.1336
     38 H9          0.2681   -2.1498    1.4275 H         1 <0>         0.1355
     39 H10        -0.7952   -3.5765    1.4330 H         1 <0>         0.1336
     40 H11        -2.4110   -2.3776   -0.0178 H         1 <0>         0.0982
     41 H12        -0.8061   -2.4650   -0.7844 H         1 <0>         0.1185
     42 H13         0.0762   -2.1904    3.8072 H         1 <0>         0.1312
     43 H14        -1.5028   -1.9224    4.5838 H         1 <0>         0.1318
     44 H15        -2.2690   -4.1439    3.7924 H         1 <0>         0.0916
     45 H16        -0.6900   -4.4119    3.0158 H         1 <0>         0.0920
     46 H17         1.3324   -5.0630    4.5874 H         1 <0>         0.1763
     47 H18        -3.3076   -3.6304    6.1669 H         1 <0>         0.1320
     48 H19        -2.3518   -4.8926   10.1298 H         1 <0>         0.1453
     49 H20        -0.1204   -5.6009    9.3986 H         1 <0>         0.1371
     50 H21        -1.4529   -0.4239   -2.1923 H         1 <0>         0.1297
     51 H22        -3.0305   -0.4364   -1.3680 H         1 <0>         0.1047
     52 H23        -1.0316    2.1683   -4.0296 H         1 <0>         0.1367
     53 H24        -2.1499    2.6831   -6.1620 H         1 <0>         0.1339
     54 H25        -4.5982    2.9348   -6.2390 H         1 <0>         0.1313
     55 H26        -5.9282    2.6709   -4.1836 H         1 <0>         0.1288
     56 H27        -4.8106    2.1480   -2.0527 H         1 <0>         0.1259
     57 H28        -2.4989   -2.1885    2.4019 H         1 <0>         0.4202
@<TRIPOS>BOND
     1    1    2 1
     2    1   31 1
     3    1   32 1
     4    1   33 1
     5    2    3 1
     6    3    8 1
     7    3    4 1
     8    3   22 1
     9    4    5 1
    10    4   34 1
    11    4   35 1
    12    5    6 1
    13    5   36 1
    14    5   37 1
    15    6    7 1
    16    6    9 1
    17    6   57 1
    18    7    8 1
    19    7   38 1
    20    7   39 1
    21    8   40 1
    22    8   41 1
    23    9   10 1
    24    9   42 1
    25    9   43 1
    26   10   11 1
    27   10   44 1
    28   10   45 1
    29   11   16 1
    30   11   12 2
    31   12   13 1
    32   12   46 1
    33   13   14 1
    34   13   15 1
    35   15   20 ar
    36   15   16 ar
    37   16   17 ar
    38   17   18 ar
    39   17   47 1
    40   18   19 ar
    41   18   21 1
    42   19   20 ar
    43   19   48 1
    44   20   49 1
    45   22   23 1
    46   22   50 1
    47   22   51 1
    48   23   24 2
    49   23   25 1
    50   25   30 ar
    51   25   26 ar
    52   26   27 ar
    53   26   52 1
    54   27   28 ar
    55   27   53 1
    56   28   29 ar
    57   28   54 1
    58   29   30 ar
    59   29   55 1
    60   30   56 1
@<TRIPOS>MOLECULE
ZINC71296558
   52    55     0     0     0
SMALL
USER_CHARGES

@<TRIPOS>ATOM
      1 C1          0.7045   -3.1874   -1.4727 C.3       1 <0>         0.0892
      2 N1          0.2902   -2.0466   -0.6522 N.pl3     1 <0>        -0.2489
      3 C2          0.0747   -0.7805   -1.1195 C.2       1 <0>        -0.0277
      4 C3         -0.2982   -0.0188   -0.0286 C.2       1 <0>        -0.1848
      5 C4         -0.2835   -0.9040    1.0647 C.2       1 <0>         0.0614
      6 N2          0.0700   -2.0886    0.6123 N.2       1 <0>        -0.2582
      7 C5         -0.6122   -0.5650    2.4721 C.ar      1 <0>         0.0000
      8 C6         -0.9835    0.7347    2.8094 C.ar      1 <0>        -0.0895
      9 C7         -1.2886    1.0449    4.1190 C.ar      1 <0>        -0.1072
     10 C8         -1.2257    0.0672    5.0970 C.ar      1 <0>        -0.0319
     11 C9         -0.8573   -1.2257    4.7667 C.ar      1 <0>        -0.1082
     12 C10        -0.5559   -1.5469    3.4588 C.ar      1 <0>        -0.0831
     13 Cl1        -1.6095    0.4637    6.7429 Cl        1 <0>        -0.0677
     14 C11         0.2135   -0.3191   -2.5104 C.2       1 <0>         0.5909
     15 O1          0.1756   -1.1212   -3.4238 O.2       1 <0>        -0.5374
     16 N3          0.3825    0.9923   -2.7716 N.am      1 <0>        -0.5875
     17 C12         0.5757    1.9541   -1.6774 C.3       1 <0>         0.0600
     18 C13         1.8774    2.7258   -1.9275 C.3       1 <0>         0.1353
     19 N4          1.8722    3.2194   -3.3117 N.pl3     1 <0>        -0.6654
     20 C14         1.6789    2.2575   -4.4059 C.3       1 <0>         0.1356
     21 C15         0.3828    1.4851   -4.1562 C.3       1 <0>         0.0999
     22 C16         2.0477    4.5812   -3.5831 C.ar      1 <0>         0.1345
     23 C17         3.3216    5.0912   -3.7871 C.ar      1 <0>        -0.0856
     24 C18         3.4923    6.4363   -4.0554 C.ar      1 <0>        -0.1510
     25 C19         2.3959    7.2761   -4.1211 C.ar      1 <0>        -0.0818
     26 C20         1.1232    6.7748   -3.9188 C.ar      1 <0>        -0.2059
     27 C21         0.9431    5.4272   -3.6547 C.ar      1 <0>         0.1202
     28 O2         -0.3087    4.9318   -3.4606 O.3       1 <0>        -0.3052
     29 C22        -1.3936    5.8576   -3.5489 C.3       1 <0>         0.0248
     30 H1         -0.1728   -3.6403   -1.9346 H         1 <0>         0.0916
     31 H2          1.3890   -2.8466   -2.2495 H         1 <0>         0.1009
     32 H3          1.2054   -3.9239   -0.8444 H         1 <0>         0.0989
     33 H4         -0.5477    1.0319   -0.0176 H         1 <0>         0.1757
     34 H5         -1.0321    1.4983    2.0472 H         1 <0>         0.1353
     35 H6         -1.5765    2.0522    4.3815 H         1 <0>         0.1382
     36 H7         -0.8093   -1.9851    5.5331 H         1 <0>         0.1370
     37 H8         -0.2730   -2.5569    3.2013 H         1 <0>         0.1388
     38 H9         -0.2626    2.6501   -1.6498 H         1 <0>         0.0807
     39 H10         0.6430    1.4208   -0.7292 H         1 <0>         0.1149
     40 H11         1.9412    3.5683   -1.2389 H         1 <0>         0.0820
     41 H12         2.7299    2.0631   -1.7786 H         1 <0>         0.0553
     42 H13         1.6116    2.7908   -5.3542 H         1 <0>         0.0818
     43 H14         2.5173    1.5615   -4.4335 H         1 <0>         0.0557
     44 H15         0.3228    0.6421   -4.8446 H         1 <0>         0.0981
     45 H16        -0.4696    2.1469   -4.3092 H         1 <0>         0.0774
     46 H17         4.1797    4.4374   -3.7360 H         1 <0>         0.1283
     47 H18         4.4845    6.8324   -4.2137 H         1 <0>         0.1248
     48 H19         2.5340    8.3266   -4.3306 H         1 <0>         0.1248
     49 H20         0.2689    7.4336   -3.9708 H         1 <0>         0.1277
     50 H21        -1.2677    6.6376   -2.7980 H         1 <0>         0.0545
     51 H22        -1.4074    6.3076   -4.5415 H         1 <0>         0.0541
     52 H23        -2.3334    5.3337   -3.3744 H         1 <0>         0.0987
@<TRIPOS>BOND
     1    1    2 1
     2    1   30 1
     3    1   31 1
     4    1   32 1
     5    2    6 1
     6    2    3 1
     7    3    4 2
     8    3   14 1
     9    4    5 1
    10    4   33 1
    11    5    6 2
    12    5    7 1
    13    7   12 ar
    14    7    8 ar
    15    8    9 ar
    16    8   34 1
    17    9   10 ar
    18    9   35 1
    19   10   11 ar
    20   10   13 1
    21   11   12 ar
    22   11   36 1
    23   12   37 1
    24   14   15 2
    25   14   16 am
    26   16   21 1
    27   16   17 1
    28   17   18 1
    29   17   38 1
    30   17   39 1
    31   18   19 1
    32   18   40 1
    33   18   41 1
    34   19   20 1
    35   19   22 1
    36   20   21 1
    37   20   42 1
    38   20   43 1
    39   21   44 1
    40   21   45 1
    41   22   27 ar
    42   22   23 ar
    43   23   24 ar
    44   23   46 1
    45   24   25 ar
    46   24   47 1
    47   25   26 ar
    48   25   48 1
    49   26   27 ar
    50   26   49 1
    51   27   28 1
    52   28   29 1
    53   29   50 1
    54   29   51 1
    55   29   52 1
@<TRIPOS>MOLECULE
ZINC14049704
   49    52     0     0     0
SMALL
USER_CHARGES

@<TRIPOS>ATOM
      1 C1          1.3541    1.7301    0.6487 C.3       1 <0>         0.0253
      2 O1          1.1131    0.3321    0.4768 O.3       1 <0>        -0.3052
      3 C2         -0.1803   -0.0562    0.3149 C.ar      1 <0>         0.1196
      4 C3         -1.1938    0.8878    0.3157 C.ar      1 <0>        -0.2065
      5 C4         -2.5084    0.4915    0.1515 C.ar      1 <0>        -0.0828
      6 C5         -2.8156   -0.8462   -0.0144 C.ar      1 <0>        -0.1518
      7 C6         -1.8099   -1.7945   -0.0169 C.ar      1 <0>        -0.0862
      8 C7         -0.4883   -1.4039    0.1421 C.ar      1 <0>         0.1367
      9 N1          0.5323   -2.3616    0.1341 N.pl3     1 <0>        -0.6659
     10 C8          0.9575   -3.0119    1.3816 C.3       1 <0>         0.1360
     11 C9          0.8502   -4.5314    1.2033 C.3       1 <0>         0.0962
     12 N2          1.5156   -4.9051   -0.0527 N.am      1 <0>        -0.5949
     13 C10         1.0904   -4.2547   -1.3002 C.3       1 <0>         0.0708
     14 C11         1.1938   -2.7393   -1.1227 C.3       1 <0>         0.1361
     15 C12         2.4984   -5.8273   -0.0603 C.2       1 <0>         0.6029
     16 O2          2.9287   -6.2657    0.9887 O.2       1 <0>        -0.5300
     17 C13         3.0527   -6.3055   -1.3436 C.2       1 <0>        -0.0035
     18 C14         4.1695   -7.1533   -1.5083 C.2       1 <0>        -0.1513
     19 C15         4.3041   -7.3200   -2.8582 C.2       1 <0>         0.0582
     20 N3          3.3071   -6.5988   -3.4460 N.pl3     1 <0>        -0.3782
     21 H1          3.1574   -6.5326   -4.4021 H         1 <0>         0.4465
     22 N4          2.5925   -6.0240   -2.5466 N.2       1 <0>        -0.2453
     23 C16         5.3343   -8.1274   -3.5492 C.ar      1 <0>        -0.0191
     24 C17         6.2937   -8.8192   -2.8098 C.ar      1 <0>        -0.0807
     25 C18         7.2517   -9.5702   -3.4592 C.ar      1 <0>        -0.1013
     26 C19         7.2619   -9.6379   -4.8421 C.ar      1 <0>        -0.0297
     27 C20         6.3123   -8.9528   -5.5810 C.ar      1 <0>        -0.1021
     28 C21         5.3459   -8.2038   -4.9420 C.ar      1 <0>        -0.1025
     29 Cl1         8.4703  -10.5848   -5.6526 Cl        1 <0>        -0.0613
     30 H2          2.4239    1.9026    0.7668 H         1 <0>         0.0988
     31 H3          0.9931    2.2713   -0.2259 H         1 <0>         0.0538
     32 H4          0.8291    2.0828    1.5365 H         1 <0>         0.0542
     33 H5         -0.9573    1.9336    0.4450 H         1 <0>         0.1274
     34 H6         -3.2974    1.2290    0.1531 H         1 <0>         0.1244
     35 H7         -3.8438   -1.1511   -0.1420 H         1 <0>         0.1244
     36 H8         -2.0527   -2.8389   -0.1462 H         1 <0>         0.1276
     37 H9          1.9902   -2.7414    1.6016 H         1 <0>         0.0570
     38 H10         0.3111   -2.6929    2.1992 H         1 <0>         0.0800
     39 H11         1.3380   -5.0331    2.0390 H         1 <0>         0.0995
     40 H12        -0.1996   -4.8216    1.1616 H         1 <0>         0.0713
     41 H13         1.7368   -4.5737   -2.1178 H         1 <0>         0.1303
     42 H14         0.0576   -4.5252   -1.5201 H         1 <0>         0.0682
     43 H15         0.7034   -2.2403   -1.9586 H         1 <0>         0.0781
     44 H16         2.2438   -2.4489   -1.0851 H         1 <0>         0.0531
     45 H17         4.7870   -7.5800   -0.7317 H         1 <0>         0.1687
     46 H18         6.2868   -8.7668   -1.7311 H         1 <0>         0.1424
     47 H19         7.9952  -10.1060   -2.8878 H         1 <0>         0.1422
     48 H20         6.3252   -9.0088   -6.6595 H         1 <0>         0.1398
     49 H21         4.6027   -7.6737   -5.5192 H         1 <0>         0.1287
@<TRIPOS>BOND
     1    1    2 1
     2    1   30 1
     3    1   31 1
     4    1   32 1
     5    2    3 1
     6    3    8 ar
     7    3    4 ar
     8    4    5 ar
     9    4   33 1
    10    5    6 ar
    11    5   34 1
    12    6    7 ar
    13    6   35 1
    14    7    8 ar
    15    7   36 1
    16    8    9 1
    17    9   14 1
    18    9   10 1
    19   10   11 1
    20   10   37 1
    21   10   38 1
    22   11   12 1
    23   11   39 1
    24   11   40 1
    25   12   13 1
    26   12   15 am
    27   13   14 1
    28   13   41 1
    29   13   42 1
    30   14   43 1
    31   14   44 1
    32   15   16 2
    33   15   17 1
    34   17   22 2
    35   17   18 1
    36   18   19 2
    37   18   45 1
    38   19   20 1
    39   19   23 1
    40   20   21 1
    41   20   22 1
    42   23   28 ar
    43   23   24 ar
    44   24   25 ar
    45   24   46 1
    46   25   26 ar
    47   25   47 1
    48   26   27 ar
    49   26   29 1
    50   27   28 ar
    51   27   48 1
    52   28   49 1
@<TRIPOS>MOLECULE
ZINC09804746
   60    63     0     0     0
SMALL
USER_CHARGES
benzyl [2-(1H-indol-3-yl)-1-(phenethylcarbamoyl)ethyl]aminoformate
@<TRIPOS>ATOM
      1 C1         -6.1671    2.7561    0.0463 C.ar      1 <0>        -0.1200
      2 C2         -5.5696    2.4251   -1.1555 C.ar      1 <0>        -0.1180
      3 C3         -4.3630    1.7507   -1.1649 C.ar      1 <0>        -0.1137
      4 C4         -3.7541    1.4067    0.0275 C.ar      1 <0>        -0.0857
      5 C5         -4.3544    1.7327    1.2293 C.ar      1 <0>        -0.1134
      6 C6         -5.5584    2.4118    1.2387 C.ar      1 <0>        -0.1180
      7 C7         -2.4389    0.6711    0.0173 C.3       1 <0>        -0.0914
      8 C8         -1.2896    1.6810    0.0173 C.3       1 <0>         0.1244
      9 N1         -0.0111    0.9658    0.0074 N.am      1 <0>        -0.7252
     10 C9          1.1468    1.6555   -0.0000 C.2       1 <0>         0.5118
     11 O1          1.1304    2.8682    0.0067 O.2       1 <0>        -0.5268
     12 C10         2.4620    0.9199   -0.0165 C.3       1 <0>         0.1554
     13 H1          2.5197    0.2988   -0.9104 H         1 <0>         0.1181
     14 C11         2.5669    0.0347    1.2271 C.3       1 <0>        -0.0516
     15 C12         3.8242   -0.7925    1.1502 C.2       1 <0>        -0.1637
     16 C13         3.9272   -2.0472    0.6845 C.2       1 <0>         0.0690
     17 N2          5.2251   -2.4719    0.7708 N.pl3     1 <0>        -0.5913
     18 H2          5.5453   -3.3451    0.4952 H         1 <0>         0.4140
     19 C14         6.0089   -1.4754    1.3080 C.ar      1 <0>         0.1049
     20 C15         5.1668   -0.3775    1.5638 C.ar      1 <0>        -0.0788
     21 C16         5.6952    0.7927    2.1114 C.ar      1 <0>        -0.0770
     22 C17         7.0303    0.8673    2.3935 C.ar      1 <0>        -0.1443
     23 C18         7.8657   -0.2116    2.1399 C.ar      1 <0>        -0.1056
     24 C19         7.3639   -1.3789    1.6066 C.ar      1 <0>        -0.1297
     25 N3          3.5624    1.8869   -0.0218 N.am      1 <0>        -0.6956
     26 C20         4.7621    1.5398   -0.5285 C.2       1 <0>         0.6573
     27 O2          4.9310    0.4248   -0.9808 O.2       1 <0>        -0.5545
     28 O3          5.7735    2.4286   -0.5333 O.3       1 <0>        -0.3609
     29 C21         7.0373    1.9859   -1.0946 C.3       1 <0>         0.1356
     30 C22         8.0422    3.1061   -1.0147 C.ar      1 <0>        -0.0975
     31 C23         8.1628    4.0023   -2.0602 C.ar      1 <0>        -0.0948
     32 C24         9.0812    5.0327   -1.9848 C.ar      1 <0>        -0.1239
     33 C25         9.8861    5.1609   -0.8683 C.ar      1 <0>        -0.1085
     34 C26         9.7695    4.2612    0.1747 C.ar      1 <0>        -0.1243
     35 C27         8.8475    3.2340    0.1016 C.ar      1 <0>        -0.0911
     36 H3         -7.1096    3.2833    0.0536 H         1 <0>         0.1223
     37 H4         -6.0453    2.6938   -2.0872 H         1 <0>         0.1230
     38 H5         -3.8962    1.4921   -2.1039 H         1 <0>         0.1222
     39 H6         -3.8809    1.4601    2.1609 H         1 <0>         0.1226
     40 H7         -6.0254    2.6700    2.1777 H         1 <0>         0.1231
     41 H8         -2.3769    0.0501   -0.8764 H         1 <0>         0.0809
     42 H9         -2.3685    0.0404    0.9035 H         1 <0>         0.0815
     43 H10        -1.3516    2.3020    0.9110 H         1 <0>         0.0733
     44 H11        -1.3601    2.3116   -0.8689 H         1 <0>         0.0721
     45 H12         0.0021   -0.0041    0.0020 H         1 <0>         0.4035
     46 H13         2.5985    0.6620    2.1179 H         1 <0>         0.0809
     47 H14         1.7005   -0.6248    1.2777 H         1 <0>         0.0851
     48 H15         3.1071   -2.6347    0.2990 H         1 <0>         0.1647
     49 H16         5.0512    1.6364    2.3111 H         1 <0>         0.1134
     50 H17         7.4385    1.7728    2.8175 H         1 <0>         0.1181
     51 H18         8.9187   -0.1376    2.3682 H         1 <0>         0.1217
     52 H19         8.0224   -2.2123    1.4112 H         1 <0>         0.1160
     53 H20         3.4276    2.7771    0.3393 H         1 <0>         0.4133
     54 H21         7.4042    1.1278   -0.5315 H         1 <0>         0.0805
     55 H22         6.8923    1.7015   -2.1368 H         1 <0>         0.0736
     56 H23         7.5368    3.8998   -2.9343 H         1 <0>         0.1230
     57 H24         9.1725    5.7354   -2.7999 H         1 <0>         0.1249
     58 H25        10.6063    5.9637   -0.8111 H         1 <0>         0.1239
     59 H26        10.3986    4.3612    1.0469 H         1 <0>         0.1251
     60 H27         8.7564    2.5311    0.9165 H         1 <0>         0.1260
@<TRIPOS>BOND
     1    1    6 ar
     2    1    2 ar
     3    1   36 1
     4    2    3 ar
     5    2   37 1
     6    3    4 ar
     7    3   38 1
     8    4    5 ar
     9    4    7 1
    10    5    6 ar
    11    5   39 1
    12    6   40 1
    13    7    8 1
    14    7   41 1
    15    7   42 1
    16    8    9 1
    17    8   43 1
    18    8   44 1
    19    9   10 am
    20    9   45 1
    21   10   11 2
    22   10   12 1
    23   12   13 1
    24   12   14 1
    25   12   25 1
    26   14   15 1
    27   14   46 1
    28   14   47 1
    29   15   20 1
    30   15   16 2
    31   16   17 1
    32   16   48 1
    33   17   18 1
    34   17   19 1
    35   19   24 ar
    36   19   20 ar
    37   20   21 ar
    38   21   22 ar
    39   21   49 1
    40   22   23 ar
    41   22   50 1
    42   23   24 ar
    43   23   51 1
    44   24   52 1
    45   25   26 am
    46   25   53 1
    47   26   27 2
    48   26   28 1
    49   28   29 1
    50   29   30 1
    51   29   54 1
    52   29   55 1
    53   30   35 ar
    54   30   31 ar
    55   31   32 ar
    56   31   56 1
    57   32   33 ar
    58   32   57 1
    59   33   34 ar
    60   33   58 1
    61   34   35 ar
    62   34   59 1
    63   35   60 1
@<TRIPOS>MOLECULE
ZINC19861699
   64    67     0     0     0
SMALL
USER_CHARGES
benzyl N-[(1S)-2-[[(1S)-2-amino-1-benzyl-2-oxo-ethyl]amino]-1-(1H-indol-3-ylmethyl)-2-oxo-ethyl]carbamate
@<TRIPOS>ATOM
      1 C1          1.6882   -1.3858   -3.6715 C.ar      1 <0>        -0.1193
      2 C2          2.5051   -1.1499   -2.5816 C.ar      1 <0>        -0.1155
      3 C3          1.9595   -0.7027   -1.3929 C.ar      1 <0>        -0.1114
      4 C4          0.5970   -0.4913   -1.2941 C.ar      1 <0>        -0.0856
      5 C5         -0.2206   -0.7322   -2.3824 C.ar      1 <0>        -0.1141
      6 C6          0.3257   -1.1744   -3.5727 C.ar      1 <0>        -0.1159
      7 C7          0.0021   -0.0041    0.0020 C.3       1 <0>        -0.0815
      8 C8         -0.0187    1.5258    0.0104 C.3       1 <0>         0.1375
      9 H1         -0.5240    1.9190   -0.8840 H         1 <0>         0.1167
     10 C9         -0.7240    2.0118    1.2503 C.2       1 <0>         0.5074
     11 O1         -0.1366    2.7127    2.0468 O.2       1 <0>        -0.5355
     12 N1         -2.0078    1.6675    1.4740 N.am      1 <0>        -0.8766
     13 N2          1.3557    2.0329    0.0000 N.am      1 <0>        -0.7123
     14 C10         1.6171    3.2612   -0.4892 C.2       1 <0>         0.5260
     15 O2          0.7146    3.9467   -0.9208 O.2       1 <0>        -0.5333
     16 C11         3.0309    3.7828   -0.4999 C.3       1 <0>         0.1635
     17 H2          3.6599    3.1412   -1.1345 H         1 <0>         0.1144
     18 C12         3.5666    3.8337    0.9324 C.3       1 <0>        -0.0482
     19 C13         5.0183    4.2377    0.9117 C.2       1 <0>        -0.1634
     20 C14         6.0770    3.4125    0.9236 C.2       1 <0>         0.0594
     21 N3          7.2358    4.1398    0.8968 N.pl3     1 <0>        -0.6036
     22 H3          8.2082    3.6255    0.9017 H         1 <0>         0.4379
     23 C15         6.9436    5.4850    0.8663 C.ar      1 <0>         0.1173
     24 C16         5.5417    5.6052    0.8684 C.ar      1 <0>        -0.0796
     25 C17         4.9510    6.8696    0.8353 C.ar      1 <0>        -0.0743
     26 C18         5.7389    7.9857    0.7976 C.ar      1 <0>        -0.1479
     27 C19         7.1221    7.8723    0.7920 C.ar      1 <0>        -0.1071
     28 C20         7.7260    6.6344    0.8318 C.ar      1 <0>        -0.1323
     29 N4          3.0503    5.1294   -1.0766 N.am      1 <0>        -0.7100
     30 C21         4.1747    5.6002   -1.6514 C.2       1 <0>         0.6584
     31 O3          5.1725    4.9078   -1.6913 O.2       1 <0>        -0.5596
     32 O4          4.1925    6.8377   -2.1814 O.3       1 <0>        -0.3622
     33 C22         5.4377    7.2789   -2.7840 C.3       1 <0>         0.1341
     34 C23         5.2687    8.6773   -3.3197 C.ar      1 <0>        -0.0958
     35 C24         4.8449    8.8724   -4.6210 C.ar      1 <0>        -0.0953
     36 C25         4.6852   10.1551   -5.1109 C.ar      1 <0>        -0.1242
     37 C26         4.9591   11.2427   -4.3028 C.ar      1 <0>        -0.1093
     38 C27         5.3884   11.0476   -3.0033 C.ar      1 <0>        -0.1243
     39 C28         5.5430    9.7649   -2.5118 C.ar      1 <0>        -0.0912
     40 H4          2.1145   -1.7356   -4.6002 H         1 <0>         0.1215
     41 H5          3.5696   -1.3154   -2.6587 H         1 <0>         0.1227
     42 H6          2.5976   -0.5187   -0.5412 H         1 <0>         0.1197
     43 H7         -1.2856   -0.5712   -2.3039 H         1 <0>         0.1223
     44 H8         -0.3125   -1.3591   -4.4242 H         1 <0>         0.1226
     45 H9         -1.0251   -0.3853    0.1002 H         1 <0>         0.0948
     46 H10         0.6099   -0.3672    0.8438 H         1 <0>         0.0883
     47 H11        -2.5227    2.0222    2.3790 H         1 <0>         0.4241
     48 H12        -2.5406    1.0318    0.7515 H         1 <0>         0.4184
     49 H13         2.1743    1.4111    0.3915 H         1 <0>         0.4239
     50 H14         2.9898    4.5682    1.5137 H         1 <0>         0.0813
     51 H15         3.4688    2.8409    1.3960 H         1 <0>         0.0825
     52 H16         6.0224    2.3343    0.9506 H         1 <0>         0.1616
     53 H17         3.8753    6.9655    0.8390 H         1 <0>         0.1127
     54 H18         5.2814    8.9637    0.7724 H         1 <0>         0.1164
     55 H19         7.7314    8.7636    0.7621 H         1 <0>         0.1200
     56 H20         8.8032    6.5565    0.8253 H         1 <0>         0.1143
     57 H21         2.1471    5.7563   -1.0405 H         1 <0>         0.4351
     58 H22         6.2350    7.2704   -2.0262 H         1 <0>         0.0806
     59 H23         5.7071    6.6009   -3.6073 H         1 <0>         0.0728
     60 H24         4.6349    8.0227   -5.2536 H         1 <0>         0.1225
     61 H25         4.3502   10.3076   -6.1262 H         1 <0>         0.1244
     62 H26         4.8379   12.2449   -4.6867 H         1 <0>         0.1236
     63 H27         5.6027   11.8973   -2.3721 H         1 <0>         0.1248
     64 H28         5.8785    9.6124   -1.4965 H         1 <0>         0.1260
@<TRIPOS>BOND
     1    1    6 ar
     2    1    2 ar
     3    1   40 1
     4    2    3 ar
     5    2   41 1
     6    3    4 ar
     7    3   42 1
     8    4    5 ar
     9    4    7 1
    10    5    6 ar
    11    5   43 1
    12    6   44 1
    13    7    8 1
    14    7   45 1
    15    7   46 1
    16    8    9 1
    17    8   10 1
    18    8   13 1
    19   10   11 2
    20   10   12 am
    21   12   47 1
    22   12   48 1
    23   13   14 am
    24   13   49 1
    25   14   15 2
    26   14   16 1
    27   16   17 1
    28   16   18 1
    29   16   29 1
    30   18   19 1
    31   18   50 1
    32   18   51 1
    33   19   24 1
    34   19   20 2
    35   20   21 1
    36   20   52 1
    37   21   22 1
    38   21   23 1
    39   23   28 ar
    40   23   24 ar
    41   24   25 ar
    42   25   26 ar
    43   25   53 1
    44   26   27 ar
    45   26   54 1
    46   27   28 ar
    47   27   55 1
    48   28   56 1
    49   29   30 am
    50   29   57 1
    51   30   31 2
    52   30   32 1
    53   32   33 1
    54   33   34 1
    55   33   58 1
    56   33   59 1
    57   34   39 ar
    58   34   35 ar
    59   35   36 ar
    60   35   60 1
    61   36   37 ar
    62   36   61 1
    63   37   38 ar
    64   37   62 1
    65   38   39 ar
    66   38   63 1
    67   39   64 1
@<TRIPOS>MOLECULE
ZINC03935475
   84    88     0     0     0
SMALL
USER_CHARGES
N-[1-[3-[1-benzoyl-3-(3,4-dichlorophenyl)-3-piperidyl]propyl]-4-phenyl-4-piperidyl]-N-methyl-acetamide
@<TRIPOS>ATOM
      1 C1         -1.7697   -6.2079   -2.9380 C.3       1 <0>        -0.1803
      2 C2         -1.5505   -6.7090   -1.5338 C.2       1 <0>         0.5117
      3 O1         -0.9517   -7.7470   -1.3470 O.2       1 <0>        -0.5158
      4 N1         -2.0200   -6.0038   -0.4856 N.am      1 <0>        -0.6196
      5 C3         -2.8344   -4.8075   -0.7134 C.3       1 <0>         0.0598
      6 C4         -1.7158   -6.4334    0.8815 C.3       1 <0>         0.2218
      7 C5         -2.0581   -5.3066    1.8601 C.3       1 <0>        -0.1522
      8 C6         -1.1856   -4.0876    1.5522 C.3       1 <0>        -0.0143
      9 C7          0.5945   -5.5017    0.7132 C.3       1 <0>        -0.0015
     10 C8         -0.2249   -6.7629    0.9960 C.3       1 <0>        -0.1633
     11 C9          1.0949   -3.2759    1.5231 C.3       1 <0>        -0.0069
     12 C10         2.5309   -3.6438    1.9020 C.3       1 <0>        -0.1650
     13 C11         3.4307   -2.4167    1.7428 C.3       1 <0>        -0.1087
     14 C12         4.8879   -2.8187    1.9788 C.3       1 <0>        -0.0228
     15 C13         5.0117   -3.5224    3.3322 C.3       1 <0>        -0.1128
     16 C14         4.5262   -2.5868    4.4417 C.3       1 <0>        -0.1363
     17 C15         5.4048   -1.3321    4.4670 C.3       1 <0>         0.0868
     18 N2          5.4068   -0.7292    3.1271 N.am      1 <0>        -0.6076
     19 C16         5.7706   -1.5667    1.9761 C.3       1 <0>         0.1233
     20 C17         5.0816    0.5677    2.9572 C.2       1 <0>         0.5642
     21 O2          5.0056    1.0335    1.8371 O.2       1 <0>        -0.5271
     22 C18         4.8172    1.4237    4.1333 C.ar      1 <0>        -0.1380
     23 C19         3.8267    2.4055    4.0772 C.ar      1 <0>        -0.0658
     24 C20         3.5814    3.1974    5.1799 C.ar      1 <0>        -0.1235
     25 C21         4.3223    3.0274    6.3360 C.ar      1 <0>        -0.0910
     26 C22         5.3095    2.0599    6.3964 C.ar      1 <0>        -0.1242
     27 C23         5.5609    1.2575    5.3027 C.ar      1 <0>        -0.0943
     28 C24         5.3358   -3.7522    0.8837 C.ar      1 <0>        -0.0612
     29 C25         6.5760   -4.3590    0.9573 C.ar      1 <0>        -0.0938
     30 C26         6.9904   -5.2105   -0.0493 C.ar      1 <0>        -0.0875
     31 C27         6.1595   -5.4650   -1.1258 C.ar      1 <0>        -0.0308
     32 C28         4.9176   -4.8575   -1.1994 C.ar      1 <0>        -0.0305
     33 C29         4.5067   -4.0010   -0.1937 C.ar      1 <0>        -0.1108
     34 Cl1         3.8765   -5.1707   -2.5528 Cl        1 <0>        -0.0437
     35 Cl2         6.6766   -6.5401   -2.3869 Cl        1 <0>        -0.0352
     36 C30        -2.5292   -7.6567    1.2177 C.ar      1 <0>        -0.1097
     37 C31        -2.7954   -7.9685    2.5378 C.ar      1 <0>        -0.1154
     38 C32        -3.5455   -9.0879    2.8460 C.ar      1 <0>        -0.1181
     39 C33        -4.0210   -9.9012    1.8343 C.ar      1 <0>        -0.1054
     40 C34        -3.7501   -9.5926    0.5144 C.ar      1 <0>        -0.1172
     41 C35        -3.0043   -8.4702    0.2060 C.ar      1 <0>        -0.0910
     42 H1         -1.3055   -5.2281   -3.0508 H         1 <0>         0.0906
     43 H2         -1.3229   -6.9053   -3.6466 H         1 <0>         0.0999
     44 H3         -2.8392   -6.1277   -3.1324 H         1 <0>         0.0950
     45 H4         -2.1822   -3.9477   -0.8667 H         1 <0>         0.0612
     46 H5         -3.4560   -4.9540   -1.5967 H         1 <0>         0.0865
     47 H6         -3.4709   -4.6308    0.1536 H         1 <0>         0.0853
     48 H7         -1.8694   -5.6408    2.8803 H         1 <0>         0.1081
     49 H8         -3.1091   -5.0381    1.7536 H         1 <0>         0.1241
     50 H9         -1.4168   -3.2883    2.2563 H         1 <0>         0.1344
     51 H10        -1.3849   -3.7455    0.5366 H         1 <0>         0.1377
     52 H11         0.3868   -5.1530   -0.2985 H         1 <0>         0.1261
     53 H12         1.6562   -5.7295    0.8079 H         1 <0>         0.1313
     54 H13        -0.0074   -7.1200    2.0026 H         1 <0>         0.0973
     55 H14         0.0339   -7.5350    0.2715 H         1 <0>         0.1491
     56 H15         0.7400   -2.4781    2.1755 H         1 <0>         0.1314
     57 H16         1.0678   -2.9374    0.4874 H         1 <0>         0.1297
     58 H17         2.8857   -4.4416    1.2496 H         1 <0>         0.0949
     59 H18         2.5580   -3.9823    2.9377 H         1 <0>         0.0941
     60 H19         3.1412   -1.6572    2.4691 H         1 <0>         0.0867
     61 H20         3.3231   -2.0155    0.7351 H         1 <0>         0.0808
     62 H21         4.4036   -4.4270    3.3281 H         1 <0>         0.0715
     63 H22         6.0541   -3.7866    3.5101 H         1 <0>         0.0770
     64 H23         4.5927   -3.0969    5.4027 H         1 <0>         0.0839
     65 H24         3.4913   -2.3024    4.2516 H         1 <0>         0.0685
     66 H25         6.4225   -1.6043    4.7467 H         1 <0>         0.0764
     67 H26         5.0037   -0.6196    5.1877 H         1 <0>         0.1053
     68 H27         6.8182   -1.8580    2.0527 H         1 <0>         0.0779
     69 H28         5.6109   -1.0089    1.0533 H         1 <0>         0.1008
     70 H29         3.2507    2.5422    3.1738 H         1 <0>         0.1304
     71 H30         2.8123    3.9545    5.1393 H         1 <0>         0.1320
     72 H31         4.1289    3.6525    7.1952 H         1 <0>         0.1306
     73 H32         5.8842    1.9322    7.3018 H         1 <0>         0.1322
     74 H33         6.3313    0.5021    5.3513 H         1 <0>         0.1330
     75 H34         7.2231   -4.1639    1.7997 H         1 <0>         0.1412
     76 H35         7.9611   -5.6806    0.0066 H         1 <0>         0.1481
     77 H36         3.5380   -3.5270   -0.2504 H         1 <0>         0.1410
     78 H37        -2.4204   -7.3353    3.3284 H         1 <0>         0.1191
     79 H38        -3.7569   -9.3292    3.8772 H         1 <0>         0.1268
     80 H39        -4.6040  -10.7779    2.0752 H         1 <0>         0.1269
     81 H40        -4.1213  -10.2282   -0.2759 H         1 <0>         0.1253
     82 H41        -2.7926   -8.2291   -0.8252 H         1 <0>         0.1286
     83 N3          0.2360   -4.4645    1.7037 N.4       1 <0>        -0.3924
     84 H42         0.3820   -4.8409    2.6477 H         1 <0>         0.4252
@<TRIPOS>BOND
     1    1    2 1
     2    1   42 1
     3    1   43 1
     4    1   44 1
     5    2    3 2
     6    2    4 am
     7    4    5 1
     8    4    6 1
     9    5   45 1
    10    5   46 1
    11    5   47 1
    12    6   10 1
    13    6    7 1
    14    6   36 1
    15    7    8 1
    16    7   48 1
    17    7   49 1
    18    8   50 1
    19    8   51 1
    20    8   83 1
    21    9   10 1
    22    9   52 1
    23    9   53 1
    24    9   83 1
    25   10   54 1
    26   10   55 1
    27   11   12 1
    28   11   56 1
    29   11   57 1
    30   11   83 1
    31   12   13 1
    32   12   58 1
    33   12   59 1
    34   13   14 1
    35   13   60 1
    36   13   61 1
    37   14   19 1
    38   14   15 1
    39   14   28 1
    40   15   16 1
    41   15   62 1
    42   15   63 1
    43   16   17 1
    44   16   64 1
    45   16   65 1
    46   17   18 1
    47   17   66 1
    48   17   67 1
    49   18   19 1
    50   18   20 am
    51   19   68 1
    52   19   69 1
    53   20   21 2
    54   20   22 1
    55   22   27 ar
    56   22   23 ar
    57   23   24 ar
    58   23   70 1
    59   24   25 ar
    60   24   71 1
    61   25   26 ar
    62   25   72 1
    63   26   27 ar
    64   26   73 1
    65   27   74 1
    66   28   33 ar
    67   28   29 ar
    68   29   30 ar
    69   29   75 1
    70   30   31 ar
    71   30   76 1
    72   31   32 ar
    73   31   35 1
    74   32   33 ar
    75   32   34 1
    76   33   77 1
    77   36   41 ar
    78   36   37 ar
    79   37   38 ar
    80   37   78 1
    81   38   39 ar
    82   38   79 1
    83   39   40 ar
    84   39   80 1
    85   40   41 ar
    86   40   81 1
    87   41   82 1
    88   83   84 1
@<TRIPOS>MOLECULE
ZINC00601874
   50    53     0     0     0
SMALL
USER_CHARGES

@<TRIPOS>ATOM
      1 C1         -0.0662    1.4462    0.0463 C.3       1 <0>         0.0332
      2 O1         -0.0227    0.0180    0.0243 O.3       1 <0>        -0.3453
      3 C2          0.5977   -0.5886    1.0484 C.2       1 <0>         0.4532
      4 O2          1.0876    0.0711    1.9343 O.2       1 <0>        -0.4900
      5 C3          0.6833   -2.0925    1.0934 C.3       1 <0>         0.2045
      6 H1         -0.3220   -2.5134    1.1080 H         1 <0>         0.1403
      7 C4          1.4187   -2.5904   -0.1242 C.ar      1 <0>        -0.1039
      8 C5          2.8001   -2.5527   -0.1608 C.ar      1 <0>        -0.1111
      9 C6          3.4746   -3.0094   -1.2776 C.ar      1 <0>        -0.1132
     10 C7          2.7678   -3.5042   -2.3576 C.ar      1 <0>        -0.1055
     11 C8          1.3865   -3.5428   -2.3207 C.ar      1 <0>        -0.1132
     12 C9          0.7121   -3.0901   -1.2021 C.ar      1 <0>        -0.0863
     13 N1          1.4029   -2.5048    2.3010 N.am      1 <0>        -0.7017
     14 C10         0.7413   -2.6366    3.4678 C.2       1 <0>         0.5763
     15 O3         -0.4524   -2.4134    3.5180 O.2       1 <0>        -0.5130
     16 C11         1.4678   -3.0529    4.6871 C.ar      1 <0>        -0.0668
     17 C12         2.8006   -3.4295    4.6314 C.ar      1 <0>        -0.1237
     18 C13         3.4584   -3.8188    5.8086 C.ar      1 <0>         0.1954
     19 N2          2.8399   -3.8362    6.9724 N.ar      1 <0>        -0.4462
     20 C14         1.5582   -3.4851    7.0919 C.ar      1 <0>         0.1347
     21 C15         0.8237   -3.0736    5.9516 C.ar      1 <0>        -0.0649
     22 C16        -0.5194   -2.7014    6.0889 C.ar      1 <0>        -0.1039
     23 C17        -1.1062   -2.7332    7.3186 C.ar      1 <0>        -0.1118
     24 C18        -0.3868   -3.1317    8.4433 C.ar      1 <0>        -0.0937
     25 C19         0.9163   -3.5112    8.3445 C.ar      1 <0>        -0.0962
     26 C20         4.8841   -4.2209    5.7412 C.ar      1 <0>        -0.0568
     27 C21         5.5587   -4.2047    4.5214 C.ar      1 <0>        -0.0993
     28 C22         6.8855   -4.5800    4.4648 C.ar      1 <0>        -0.1220
     29 C23         7.5459   -4.9721    5.6153 C.ar      1 <0>        -0.1040
     30 C24         6.8814   -4.9906    6.8285 C.ar      1 <0>        -0.1241
     31 C25         5.5564   -4.6110    6.8983 C.ar      1 <0>        -0.0744
     32 H2          0.9498    1.8407    0.0484 H         1 <0>         0.0612
     33 H3         -0.5944    1.8072   -0.8361 H         1 <0>         0.1058
     34 H4         -0.5874    1.7800    0.9436 H         1 <0>         0.0623
     35 H5          3.3523   -2.1660    0.6830 H         1 <0>         0.1207
     36 H6          4.5538   -2.9792   -1.3065 H         1 <0>         0.1289
     37 H7          3.2948   -3.8604   -3.2305 H         1 <0>         0.1280
     38 H8          0.8343   -3.9292   -3.1646 H         1 <0>         0.1306
     39 H9         -0.3669   -3.1237   -1.1717 H         1 <0>         0.1320
     40 H10         2.3556   -2.6830    2.2609 H         1 <0>         0.4081
     41 H11         3.3288   -3.4238    3.6894 H         1 <0>         0.1412
     42 H12        -1.0874   -2.3904    5.2246 H         1 <0>         0.1676
     43 H13        -2.1420   -2.4456    7.4226 H         1 <0>         0.1314
     44 H14        -0.8736   -3.1484    9.4073 H         1 <0>         0.1336
     45 H15         1.4600   -3.8175    9.2259 H         1 <0>         0.1396
     46 H16         5.0439   -3.8994    3.6224 H         1 <0>         0.1244
     47 H17         7.4092   -4.5679    3.5203 H         1 <0>         0.1280
     48 H18         8.5842   -5.2653    5.5662 H         1 <0>         0.1258
     49 H19         7.4019   -5.2979    7.7234 H         1 <0>         0.1278
     50 H20         5.0400   -4.6211    7.8468 H         1 <0>         0.1364
@<TRIPOS>BOND
     1    1    2 1
     2    1   32 1
     3    1   33 1
     4    1   34 1
     5    2    3 1
     6    3    4 2
     7    3    5 1
     8    5    6 1
     9    5    7 1
    10    5   13 1
    11    7   12 ar
    12    7    8 ar
    13    8    9 ar
    14    8   35 1
    15    9   10 ar
    16    9   36 1
    17   10   11 ar
    18   10   37 1
    19   11   12 ar
    20   11   38 1
    21   12   39 1
    22   13   14 am
    23   13   40 1
    24   14   15 2
    25   14   16 1
    26   16   21 ar
    27   16   17 ar
    28   17   18 ar
    29   17   41 1
    30   18   19 ar
    31   18   26 1
    32   19   20 ar
    33   20   25 ar
    34   20   21 ar
    35   21   22 ar
    36   22   23 ar
    37   22   42 1
    38   23   24 ar
    39   23   43 1
    40   24   25 ar
    41   24   44 1
    42   25   45 1
    43   26   31 ar
    44   26   27 ar
    45   27   28 ar
    46   27   46 1
    47   28   29 ar
    48   28   47 1
    49   29   30 ar
    50   29   48 1
    51   30   31 ar
    52   30   49 1
    53   31   50 1
@<TRIPOS>MOLECULE
ZINC06734987
   50    53     0     0     0
SMALL
USER_CHARGES

@<TRIPOS>ATOM
      1 C1         -0.0721    1.4005    0.0342 C.3       1 <0>         0.0332
      2 O1         -0.0285   -0.0277    0.0122 O.3       1 <0>        -0.3453
      3 C2          0.5919   -0.6343    1.0363 C.2       1 <0>         0.4532
      4 O2          1.0817    0.0254    1.9221 O.2       1 <0>        -0.4901
      5 C3          0.6775   -2.1382    1.0812 C.3       1 <0>         0.2046
      6 H1          1.2094   -2.4983    0.2006 H         1 <0>         0.1402
      7 C4         -0.7125   -2.7201    1.1014 C.ar      1 <0>        -0.1040
      8 C5         -1.4301   -2.7548    2.2824 C.ar      1 <0>        -0.1108
      9 C6         -2.7051   -3.2886    2.3009 C.ar      1 <0>        -0.1132
     10 C7         -3.2627   -3.7872    1.1384 C.ar      1 <0>        -0.1055
     11 C8         -2.5454   -3.7516   -0.0427 C.ar      1 <0>        -0.1133
     12 C9         -1.2720   -3.2140   -0.0622 C.ar      1 <0>        -0.0862
     13 N1          1.3971   -2.5505    2.2889 N.am      1 <0>        -0.7016
     14 C10         2.7438   -2.6029    2.2860 C.2       1 <0>         0.5764
     15 O3          3.3613   -2.3081    1.2815 O.2       1 <0>        -0.5130
     16 C11         3.4704   -3.0192    3.5053 C.ar      1 <0>        -0.0672
     17 C12         2.7980   -3.2431    4.6966 C.ar      1 <0>        -0.1228
     18 C13         3.5199   -3.6372    5.8339 C.ar      1 <0>         0.1955
     19 N2          4.8272   -3.8012    5.8001 N.ar      1 <0>        -0.4462
     20 C14         5.5316   -3.6014    4.6846 C.ar      1 <0>         0.1346
     21 C15         4.8770   -3.2076    3.4907 C.ar      1 <0>        -0.0652
     22 C16         5.6248   -3.0063    2.3237 C.ar      1 <0>        -0.1044
     23 C17         6.9742   -3.1964    2.3457 C.ar      1 <0>        -0.1117
     24 C18         7.6214   -3.5889    3.5155 C.ar      1 <0>        -0.0939
     25 C19         6.9276   -3.7818    4.6701 C.ar      1 <0>        -0.0961
     26 C20         2.7939   -3.8745    7.1049 C.ar      1 <0>        -0.0568
     27 C21         1.4106   -3.7119    7.1614 C.ar      1 <0>        -0.0993
     28 C22         0.7403   -3.9340    8.3470 C.ar      1 <0>        -0.1221
     29 C23         1.4385   -4.3168    9.4782 C.ar      1 <0>        -0.1039
     30 C24         2.8113   -4.4793    9.4282 C.ar      1 <0>        -0.1241
     31 C25         3.4914   -4.2664    8.2464 C.ar      1 <0>        -0.0744
     32 H2          0.9440    1.7950    0.0362 H         1 <0>         0.0623
     33 H3         -0.6003    1.7615   -0.8483 H         1 <0>         0.1058
     34 H4         -0.5932    1.7342    0.9315 H         1 <0>         0.0612
     35 H5         -0.9945   -2.3653    3.1906 H         1 <0>         0.1205
     36 H6         -3.2656   -3.3163    3.2237 H         1 <0>         0.1289
     37 H7         -4.2585   -4.2048    1.1530 H         1 <0>         0.1280
     38 H8         -2.9808   -4.1415   -0.9509 H         1 <0>         0.1306
     39 H9         -0.7130   -3.1828   -0.9857 H         1 <0>         0.1320
     40 H10         0.9043   -2.7858    3.0906 H         1 <0>         0.4081
     41 H11         1.7270   -3.1150    4.7493 H         1 <0>         0.1410
     42 H12         5.1345   -2.7023    1.4107 H         1 <0>         0.1678
     43 H13         7.5492   -3.0410    1.4448 H         1 <0>         0.1315
     44 H14         8.6916   -3.7335    3.5080 H         1 <0>         0.1336
     45 H15         7.4442   -4.0860    5.5685 H         1 <0>         0.1395
     46 H16         0.8646   -3.4123    6.2790 H         1 <0>         0.1242
     47 H17        -0.3315   -3.8083    8.3919 H         1 <0>         0.1280
     48 H18         0.9097   -4.4892   10.4040 H         1 <0>         0.1258
     49 H19         3.3513   -4.7780   10.3145 H         1 <0>         0.1278
     50 H20         4.5626   -4.3982    8.2073 H         1 <0>         0.1364
@<TRIPOS>BOND
     1    1    2 1
     2    1   32 1
     3    1   33 1
     4    1   34 1
     5    2    3 1
     6    3    4 2
     7    3    5 1
     8    5    6 1
     9    5    7 1
    10    5   13 1
    11    7   12 ar
    12    7    8 ar
    13    8    9 ar
    14    8   35 1
    15    9   10 ar
    16    9   36 1
    17   10   11 ar
    18   10   37 1
    19   11   12 ar
    20   11   38 1
    21   12   39 1
    22   13   14 am
    23   13   40 1
    24   14   15 2
    25   14   16 1
    26   16   21 ar
    27   16   17 ar
    28   17   18 ar
    29   17   41 1
    30   18   19 ar
    31   18   26 1
    32   19   20 ar
    33   20   25 ar
    34   20   21 ar
    35   21   22 ar
    36   22   23 ar
    37   22   42 1
    38   23   24 ar
    39   23   43 1
    40   24   25 ar
    41   24   44 1
    42   25   45 1
    43   26   31 ar
    44   26   27 ar
    45   27   28 ar
    46   27   46 1
    47   28   29 ar
    48   28   47 1
    49   29   30 ar
    50   29   48 1
    51   30   31 ar
    52   30   49 1
    53   31   50 1
@<TRIPOS>MOLECULE
ZINC05932901
   51    54     0     0     0
SMALL
USER_CHARGES
3-hydroxy-2-phenyl-N-(1-phenylpropyl)quinoline-4-carboxamide
@<TRIPOS>ATOM
      1 C1         -1.5089    0.6588   -3.5110 C.3       1 <0>        -0.1498
      2 C2         -0.6640   -0.4451   -4.1501 C.3       1 <0>        -0.1275
      3 C3          0.7549    0.0738   -4.3914 C.3       1 <0>         0.1865
      4 H1          0.7119    0.9869   -4.9851 H         1 <0>         0.0997
      5 C4          1.5522   -0.9693   -5.1313 C.ar      1 <0>        -0.0946
      6 C5          2.1017   -2.0354   -4.4440 C.ar      1 <0>        -0.1149
      7 C6          2.8293   -2.9945   -5.1234 C.ar      1 <0>        -0.1146
      8 C7          3.0154   -2.8825   -6.4885 C.ar      1 <0>        -0.1166
      9 C8          2.4700   -1.8138   -7.1751 C.ar      1 <0>        -0.1138
     10 C9          1.7387   -0.8570   -6.4964 C.ar      1 <0>        -0.1063
     11 N1          1.3965    0.3573   -3.1052 N.am      1 <0>        -0.7155
     12 C10         1.2025    1.5475   -2.5033 C.2       1 <0>         0.5767
     13 O1          0.4949    2.3859   -3.0277 O.2       1 <0>        -0.5050
     14 C11         1.8482    1.8329   -1.2088 C.ar      1 <0>        -0.1027
     15 C12         3.1761    2.4457   -1.1381 C.ar      1 <0>        -0.0612
     16 C13         3.8856    2.7840   -2.2951 C.ar      1 <0>        -0.1012
     17 C14         5.1200    3.3537   -2.1862 C.ar      1 <0>        -0.0989
     18 C15         5.6831    3.6018   -0.9368 C.ar      1 <0>        -0.1012
     19 C16         5.0194    3.2843    0.2085 C.ar      1 <0>        -0.0822
     20 C17         3.7435    2.6957    0.1358 C.ar      1 <0>         0.1234
     21 N2          3.0716    2.3742    1.2436 N.ar      1 <0>        -0.4402
     22 C18         1.8763    1.8287    1.2111 C.ar      1 <0>         0.1915
     23 C19         1.2190    1.5307   -0.0014 C.ar      1 <0>         0.1095
     24 O2         -0.0110    0.9628    0.0073 O.3       1 <0>        -0.4727
     25 C20         1.1992    1.5100    2.4903 C.ar      1 <0>        -0.0630
     26 C21        -0.1850    1.6372    2.6002 C.ar      1 <0>        -0.0802
     27 C22        -0.8105    1.3334    3.7921 C.ar      1 <0>        -0.1273
     28 C23        -0.0657    0.9149    4.8802 C.ar      1 <0>        -0.1021
     29 C24         1.3085    0.7923    4.7789 C.ar      1 <0>        -0.1291
     30 C25         1.9445    1.0872    3.5903 C.ar      1 <0>        -0.0752
     31 H2         -1.5456    1.5204   -4.1777 H         1 <0>         0.0598
     32 H3         -2.5198    0.2892   -3.3391 H         1 <0>         0.0499
     33 H4         -1.0633    0.9534   -2.5609 H         1 <0>         0.0616
     34 H5         -1.1097   -0.7396   -5.1002 H         1 <0>         0.0747
     35 H6         -0.6274   -1.3066   -3.4834 H         1 <0>         0.0654
     36 H7          1.9597   -2.1208   -3.3768 H         1 <0>         0.1183
     37 H8          3.2551   -3.8296   -4.5870 H         1 <0>         0.1244
     38 H9          3.5867   -3.6300   -7.0188 H         1 <0>         0.1241
     39 H10         2.6154   -1.7263   -8.2417 H         1 <0>         0.1257
     40 H11         1.3129   -0.0219   -7.0327 H         1 <0>         0.1254
     41 H12         1.9609   -0.3115   -2.6869 H         1 <0>         0.4006
     42 H13         3.4584    2.5956   -3.2689 H         1 <0>         0.1282
     43 H14         5.6676    3.6152   -3.0796 H         1 <0>         0.1333
     44 H15         6.6623    4.0532   -0.8756 H         1 <0>         0.1360
     45 H16         5.4703    3.4839    1.1694 H         1 <0>         0.1417
     46 H17         0.0021   -0.0041    0.0020 H         1 <0>         0.3947
     47 H18        -0.7669    1.9681    1.7527 H         1 <0>         0.1379
     48 H19        -1.8830    1.4270    3.8771 H         1 <0>         0.1270
     49 H20        -0.5591    0.6826    5.8124 H         1 <0>         0.1245
     50 H21         1.8847    0.4647    5.6316 H         1 <0>         0.1265
     51 H22         3.0173    0.9904    3.5122 H         1 <0>         0.1286
@<TRIPOS>BOND
     1    1    2 1
     2    1   31 1
     3    1   32 1
     4    1   33 1
     5    2    3 1
     6    2   34 1
     7    2   35 1
     8    3    4 1
     9    3    5 1
    10    3   11 1
    11    5   10 ar
    12    5    6 ar
    13    6    7 ar
    14    6   36 1
    15    7    8 ar
    16    7   37 1
    17    8    9 ar
    18    8   38 1
    19    9   10 ar
    20    9   39 1
    21   10   40 1
    22   11   12 am
    23   11   41 1
    24   12   13 2
    25   12   14 1
    26   14   23 ar
    27   14   15 ar
    28   15   20 ar
    29   15   16 ar
    30   16   17 ar
    31   16   42 1
    32   17   18 ar
    33   17   43 1
    34   18   19 ar
    35   18   44 1
    36   19   20 ar
    37   19   45 1
    38   20   21 ar
    39   21   22 ar
    40   22   23 ar
    41   22   25 1
    42   23   24 1
    43   24   46 1
    44   25   30 ar
    45   25   26 ar
    46   26   27 ar
    47   26   47 1
    48   27   28 ar
    49   27   48 1
    50   28   29 ar
    51   28   49 1
    52   29   30 ar
    53   29   50 1
    54   30   51 1
@<TRIPOS>MOLECULE
ZINC35923465
   68    73     0     0     0
SMALL
USER_CHARGES

@<TRIPOS>ATOM
      1 C1         -0.0187    1.5258    0.0104 C.3       1 <0>        -0.1399
      2 C2          0.0021   -0.0041    0.0020 C.3       1 <0>        -0.0330
      3 C3          0.7421   -0.5109    1.2415 C.3       1 <0>        -0.1400
      4 C4         -1.4333   -0.5336    0.0129 C.3       1 <0>        -0.1471
      5 C5          0.7074   -0.4901   -1.2379 C.ar      1 <0>        -0.0514
      6 C6          0.0327   -1.2849   -2.1473 C.ar      1 <0>        -0.1208
      7 C7          0.6729   -1.7334   -3.2842 C.ar      1 <0>        -0.0652
      8 C8          2.0037   -1.3835   -3.5159 C.ar      1 <0>        -0.0350
      9 C9          2.6784   -0.5812   -2.5949 C.ar      1 <0>        -0.0996
     10 C10         2.0252   -0.1349   -1.4646 C.ar      1 <0>        -0.1136
     11 C11         2.6963   -1.8613   -4.7323 C.2       1 <0>         0.3203
     12 N1          3.9979   -1.5854   -5.0581 N.pl3     1 <0>        -0.5983
     13 H1          4.6200   -1.0504   -4.5407 H         1 <0>         0.4215
     14 C12         4.2591   -2.2118   -6.2610 C.ar      1 <0>         0.0575
     15 C13         5.3795   -2.2966   -7.0783 C.ar      1 <0>        -0.1201
     16 C14         5.3243   -3.0198   -8.2508 C.ar      1 <0>        -0.0895
     17 C15         4.1560   -3.6667   -8.6256 C.ar      1 <0>        -0.1364
     18 C16         3.0289   -3.5956   -7.8280 C.ar      1 <0>         0.2275
     19 C17         3.0707   -2.8631   -6.6299 C.ar      1 <0>         0.0438
     20 N2          2.1593   -2.6168   -5.6579 N.2       1 <0>        -0.4644
     21 N3          1.8559   -4.2490   -8.2106 N.pl3     1 <0>        -0.6713
     22 C18         0.8508   -3.5703   -9.0427 C.3       1 <0>         0.1563
     23 C19        -0.5173   -3.7136   -8.3675 C.3       1 <0>         0.0421
     24 N4         -0.7843   -5.1342   -8.1059 N.3       1 <0>        -0.5277
     25 C20         0.1951   -5.6962   -7.1663 C.3       1 <0>         0.0363
     26 C21         1.5953   -5.6362   -7.7974 C.3       1 <0>         0.1574
     27 C22        -2.1556   -5.3309   -7.6171 C.3       1 <0>         0.0905
     28 C23        -2.4742   -6.8036   -7.5939 C.ar      1 <0>        -0.0510
     29 C24        -3.0298   -7.4040   -8.7228 C.ar      1 <0>        -0.0750
     30 C25        -3.3287   -8.7313   -8.7346 C.ar      1 <0>        -0.0847
     31 C26        -3.0752   -9.5128   -7.5937 C.ar      1 <0>         0.0786
     32 C27        -2.5101   -8.9022   -6.4455 C.ar      1 <0>         0.0801
     33 C28        -2.2102   -7.5289   -6.4734 C.ar      1 <0>        -0.0799
     34 N5         -2.2668   -9.6405   -5.3575 N.ar      1 <0>        -0.4256
     35 C29        -2.5533  -10.9225   -5.3632 C.ar      1 <0>         0.0746
     36 C30        -3.1094  -11.5239   -6.4940 C.ar      1 <0>         0.0742
     37 N6         -3.3577  -10.8197   -7.5748 N.ar      1 <0>        -0.4252
     38 H2          1.0039    1.9031    0.0027 H         1 <0>         0.0574
     39 H3         -0.5459    1.8868   -0.8726 H         1 <0>         0.0575
     40 H4         -0.5289    1.8773    0.9072 H         1 <0>         0.0612
     41 H5          0.2319   -0.1594    2.1383 H         1 <0>         0.0612
     42 H6          0.7568   -1.6008    1.2356 H         1 <0>         0.0576
     43 H7          1.7647   -0.1336    1.2338 H         1 <0>         0.0574
     44 H8         -1.9605   -0.1726   -0.8702 H         1 <0>         0.0601
     45 H9         -1.4185   -1.6235    0.0069 H         1 <0>         0.0602
     46 H10        -1.9435   -0.1821    0.9097 H         1 <0>         0.0609
     47 H11        -0.9973   -1.5550   -1.9668 H         1 <0>         0.1343
     48 H12         0.1454   -2.3544   -3.9930 H         1 <0>         0.1354
     49 H13         3.7086   -0.3071   -2.7684 H         1 <0>         0.1190
     50 H14         2.5450    0.4897   -0.7531 H         1 <0>         0.1280
     51 H15         6.2935   -1.7957   -6.7953 H         1 <0>         0.1230
     52 H16         6.1978   -3.0827   -8.8828 H         1 <0>         0.1326
     53 H17         4.1264   -4.2295   -9.5469 H         1 <0>         0.1310
     54 H18         1.1046   -2.5143   -9.1353 H         1 <0>         0.0688
     55 H19         0.8217   -4.0307  -10.0303 H         1 <0>         0.0580
     56 H20        -0.5177   -3.1640   -7.4262 H         1 <0>         0.0438
     57 H21        -1.2904   -3.3130   -9.0233 H         1 <0>         0.0781
     58 H22         0.1848   -5.1191   -6.2417 H         1 <0>         0.0439
     59 H23        -0.0612   -6.7335   -6.9509 H         1 <0>         0.0782
     60 H24         1.6364   -6.2914   -8.6675 H         1 <0>         0.0570
     61 H25         2.3415   -5.9468   -7.0661 H         1 <0>         0.0673
     62 H26        -2.2441   -4.9240   -6.6098 H         1 <0>         0.0477
     63 H27        -2.8541   -4.8184   -8.2787 H         1 <0>         0.0893
     64 H28        -3.2262   -6.8066   -9.6009 H         1 <0>         0.1379
     65 H29        -3.7592   -9.1824   -9.6164 H         1 <0>         0.1408
     66 H30        -1.7755   -7.0510   -5.6080 H         1 <0>         0.1361
     67 H31        -2.3564  -11.5178   -4.4839 H         1 <0>         0.1750
     68 H32        -3.3379  -12.5793   -6.4799 H         1 <0>         0.1752
@<TRIPOS>BOND
     1    1    2 1
     2    1   38 1
     3    1   39 1
     4    1   40 1
     5    2    3 1
     6    2    4 1
     7    2    5 1
     8    3   41 1
     9    3   42 1
    10    3   43 1
    11    4   44 1
    12    4   45 1
    13    4   46 1
    14    5   10 ar
    15    5    6 ar
    16    6    7 ar
    17    6   47 1
    18    7    8 ar
    19    7   48 1
    20    8    9 ar
    21    8   11 1
    22    9   10 ar
    23    9   49 1
    24   10   50 1
    25   11   20 2
    26   11   12 1
    27   12   13 1
    28   12   14 1
    29   14   19 ar
    30   14   15 ar
    31   15   16 ar
    32   15   51 1
    33   16   17 ar
    34   16   52 1
    35   17   18 ar
    36   17   53 1
    37   18   19 ar
    38   18   21 1
    39   19   20 1
    40   21   26 1
    41   21   22 1
    42   22   23 1
    43   22   54 1
    44   22   55 1
    45   23   24 1
    46   23   56 1
    47   23   57 1
    48   24   25 1
    49   24   27 1
    50   25   26 1
    51   25   58 1
    52   25   59 1
    53   26   60 1
    54   26   61 1
    55   27   28 1
    56   27   62 1
    57   27   63 1
    58   28   33 ar
    59   28   29 ar
    60   29   30 ar
    61   29   64 1
    62   30   31 ar
    63   30   65 1
    64   31   37 ar
    65   31   32 ar
    66   32   33 ar
    67   32   34 ar
    68   33   66 1
    69   34   35 ar
    70   35   36 ar
    71   35   67 1
    72   36   37 ar
    73   36   68 1
@<TRIPOS>MOLECULE
ZINC35923465
   69    74     0     0     0
SMALL
USER_CHARGES

@<TRIPOS>ATOM
      1 C1         -0.0187    1.5258    0.0104 C.3       1 <0>        -0.1403
      2 C2          0.0021   -0.0041    0.0020 C.3       1 <0>        -0.0351
      3 C3          0.7421   -0.5109    1.2415 C.3       1 <0>        -0.1402
      4 C4         -1.4333   -0.5336    0.0129 C.3       1 <0>        -0.1497
      5 C5          0.7074   -0.4901   -1.2379 C.ar      1 <0>        -0.0422
      6 C6          0.0327   -1.2848   -2.1473 C.ar      1 <0>        -0.1174
      7 C7          0.6729   -1.7330   -3.2844 C.ar      1 <0>        -0.0606
      8 C8          2.0035   -1.3831   -3.5161 C.ar      1 <0>        -0.0474
      9 C9          2.6784   -0.5813   -2.5950 C.ar      1 <0>        -0.1000
     10 C10         2.0252   -0.1349   -1.4646 C.ar      1 <0>        -0.1148
     11 C11         2.6961   -1.8605   -4.7329 C.2       1 <0>         0.3383
     12 N1          2.1566   -2.6110   -5.6621 N.2       1 <0>        -0.4727
     13 C12         3.0688   -2.8617   -6.6323 C.ar      1 <0>         0.0600
     14 C13         3.0260   -3.5919   -7.8266 C.ar      1 <0>        -0.0496
     15 C14         4.1339   -3.6674   -8.6214 C.ar      1 <0>        -0.1207
     16 C15         5.3106   -3.0272   -8.2607 C.ar      1 <0>        -0.0893
     17 C16         5.3796   -2.2990   -7.0845 C.ar      1 <0>         0.1463
     18 C17         4.2570   -2.2113   -6.2624 C.ar      1 <0>         0.0494
     19 N2          3.9943   -1.5804   -5.0607 N.pl3     1 <0>        -0.5967
     20 N3          6.5677   -1.6558   -6.7239 N.pl3     1 <0>        -0.6741
     21 C18         7.5854   -2.3447   -5.9152 C.3       1 <0>         0.1173
     22 C19         7.9673   -1.4384   -4.7402 C.3       1 <0>        -0.0239
     23 N4          8.3849   -0.1266   -5.2507 N.4       1 <0>        -0.3792
     24 C20         7.2529    0.5370   -5.9098 C.3       1 <0>        -0.0315
     25 C21         6.8381   -0.2733   -7.1475 C.3       1 <0>         0.1204
     26 C22         8.8549    0.7044   -4.1342 C.3       1 <0>         0.0416
     27 C23         9.3979    2.0043   -4.6694 C.ar      1 <0>        -0.1373
     28 C24        10.7463    2.0964   -5.0115 C.ar      1 <0>        -0.0999
     29 C25        11.2677    3.2552   -5.4977 C.ar      1 <0>        -0.0580
     30 C26        10.4383    4.3790   -5.6592 C.ar      1 <0>         0.0932
     31 C27         9.0669    4.2853   -5.3112 C.ar      1 <0>         0.0685
     32 C28         8.5638    3.0691   -4.8168 C.ar      1 <0>        -0.0437
     33 N5          8.2732    5.3507   -5.4627 N.ar      1 <0>        -0.4213
     34 C29         8.7713    6.4721   -5.9317 C.ar      1 <0>         0.0937
     35 C30        10.1217    6.5642   -6.2748 C.ar      1 <0>         0.1030
     36 N6         10.9214    5.5315   -6.1350 N.ar      1 <0>        -0.4231
     37 H1          1.0039    1.9031    0.0027 H         1 <0>         0.0558
     38 H2         -0.5459    1.8868   -0.8726 H         1 <0>         0.0584
     39 H3         -0.5289    1.8773    0.9072 H         1 <0>         0.0641
     40 H4          0.2319   -0.1594    2.1383 H         1 <0>         0.0641
     41 H5          0.7568   -1.6008    1.2356 H         1 <0>         0.0584
     42 H6          1.7647   -0.1336    1.2338 H         1 <0>         0.0558
     43 H7         -1.9605   -0.1726   -0.8702 H         1 <0>         0.0615
     44 H8         -1.4185   -1.6235    0.0069 H         1 <0>         0.0615
     45 H9         -1.9435   -0.1821    0.9097 H         1 <0>         0.0638
     46 H10        -0.9971   -1.5553   -1.9667 H         1 <0>         0.1393
     47 H11         0.1452   -2.3537   -3.9935 H         1 <0>         0.1409
     48 H12         3.7084   -0.3069   -2.7686 H         1 <0>         0.1105
     49 H13         2.5451    0.4894   -0.7530 H         1 <0>         0.1285
     50 H14         2.1165   -4.0957   -8.1190 H         1 <0>         0.1375
     51 H15         4.0937   -4.2322   -9.5411 H         1 <0>         0.1385
     52 H16         6.1779   -3.0972   -8.9004 H         1 <0>         0.1336
     53 H17         7.1794   -3.2830   -5.5372 H         1 <0>         0.1174
     54 H18         8.4660   -2.5430   -6.5261 H         1 <0>         0.0835
     55 H19         7.1074   -1.3153   -4.0818 H         1 <0>         0.1240
     56 H20         8.7889   -1.8905   -4.1846 H         1 <0>         0.1419
     57 H21         6.4147    0.6004   -5.2160 H         1 <0>         0.1244
     58 H22         7.5481    1.5406   -6.2160 H         1 <0>         0.1369
     59 H23         7.6446   -0.2659   -7.8807 H         1 <0>         0.0829
     60 H24         5.9378    0.1586   -7.5846 H         1 <0>         0.1157
     61 H25         8.0243    0.9083   -3.4584 H         1 <0>         0.1372
     62 H26         9.6413    0.1768   -3.5946 H         1 <0>         0.1452
     63 H27        11.3864    1.2353   -4.8884 H         1 <0>         0.1444
     64 H28        12.3143    3.3118   -5.7581 H         1 <0>         0.1528
     65 H29         7.5205    2.9815   -4.5517 H         1 <0>         0.1464
     66 H30         8.1293    7.3320   -6.0536 H         1 <0>         0.1875
     67 H31        10.5129    7.4946   -6.6591 H         1 <0>         0.1880
     68 H32         4.6149   -1.0417   -4.5454 H         1 <0>         0.4118
     69 H33         9.1347   -0.2486   -5.9148 H         1 <0>         0.4248
@<TRIPOS>BOND
     1    1    2 1
     2    1   37 1
     3    1   38 1
     4    1   39 1
     5    2    3 1
     6    2    4 1
     7    2    5 1
     8    3   40 1
     9    3   41 1
    10    3   42 1
    11    4   43 1
    12    4   44 1
    13    4   45 1
    14    5   10 ar
    15    5    6 ar
    16    6    7 ar
    17    6   46 1
    18    7    8 ar
    19    7   47 1
    20    8    9 ar
    21    8   11 1
    22    9   10 ar
    23    9   48 1
    24   10   49 1
    25   11   19 1
    26   11   12 2
    27   12   13 1
    28   13   18 ar
    29   13   14 ar
    30   14   15 ar
    31   14   50 1
    32   15   16 ar
    33   15   51 1
    34   16   17 ar
    35   16   52 1
    36   17   18 ar
    37   17   20 1
    38   18   19 1
    39   19   68 1
    40   20   25 1
    41   20   21 1
    42   21   22 1
    43   21   53 1
    44   21   54 1
    45   22   23 1
    46   22   55 1
    47   22   56 1
    48   23   24 1
    49   23   26 1
    50   23   69 1
    51   24   25 1
    52   24   57 1
    53   24   58 1
    54   25   59 1
    55   25   60 1
    56   26   27 1
    57   26   61 1
    58   26   62 1
    59   27   32 ar
    60   27   28 ar
    61   28   29 ar
    62   28   63 1
    63   29   30 ar
    64   29   64 1
    65   30   36 ar
    66   30   31 ar
    67   31   32 ar
    68   31   33 ar
    69   32   65 1
    70   33   34 ar
    71   34   35 ar
    72   34   66 1
    73   35   36 ar
    74   35   67 1
@<TRIPOS>MOLECULE
ZINC34007762
   49    51     0     0     0
SMALL
USER_CHARGES

@<TRIPOS>ATOM
      1 C1         -0.0187    1.5258    0.0104 C.3       1 <0>        -0.1558
      2 C2          0.0021   -0.0041    0.0020 C.3       1 <0>        -0.1340
      3 C3          0.7182   -0.4975   -1.2568 C.3       1 <0>         0.1508
      4 H1          1.7103   -0.0491   -1.3098 H         1 <0>         0.1033
      5 C4          0.8493   -2.0210   -1.2049 C.3       1 <0>        -0.1656
      6 N1         -0.0549   -0.1139   -2.4405 N.pl3     1 <0>        -0.6703
      7 C5          0.5714    0.0303   -3.6509 C.2       1 <0>         0.6773
      8 N2          1.8708   -0.1803   -3.7588 N.2       1 <0>        -0.5993
      9 C6          2.4914   -0.0439   -4.9279 C.2       1 <0>         0.3989
     10 N3          1.8361    0.3043   -6.0122 N.2       1 <0>        -0.5423
     11 C7          0.5158    0.5298   -5.9569 C.2       1 <0>         0.3285
     12 N4         -0.1439    0.3883   -4.7606 N.pl3     1 <0>        -0.3828
     13 N5         -1.4945    0.6707   -4.9798 N.2       1 <0>        -0.3138
     14 C8         -1.6735    0.9672   -6.2437 C.2       1 <0>         0.1516
     15 C9         -0.4380    0.9028   -6.9032 C.2       1 <0>        -0.1978
     16 C10        -0.1941    1.1652   -8.3414 C.ar      1 <0>        -0.0777
     17 C11        -0.2919    0.1302   -9.2787 C.ar      1 <0>        -0.0212
     18 C12        -0.0561    0.4239  -10.6082 C.ar      1 <0>        -0.1947
     19 C13         0.2678    1.7264  -10.9687 C.ar      1 <0>         0.3248
     20 N6          0.3527    2.6823  -10.0588 N.ar      1 <0>        -0.5393
     21 C14         0.1300    2.4464   -8.7808 C.ar      1 <0>         0.1887
     22 C15         0.2335    3.5728   -7.7851 C.3       1 <0>        -0.0994
     23 O1          0.5006    2.0215  -12.2729 O.3       1 <0>        -0.3088
     24 C16         0.8292    3.3773  -12.5827 C.3       1 <0>         0.0406
     25 C17        -2.9897    1.3309   -6.8811 C.3       1 <0>        -0.0784
     26 C18         3.9754   -0.2932   -5.0098 C.3       1 <0>        -0.0848
     27 H2          1.0039    1.9031    0.0027 H         1 <0>         0.0581
     28 H3         -0.5459    1.8868   -0.8726 H         1 <0>         0.0522
     29 H4         -0.5289    1.8773    0.9072 H         1 <0>         0.0612
     30 H5          0.5293   -0.3651    0.8851 H         1 <0>         0.0888
     31 H6         -1.0205   -0.3814    0.0098 H         1 <0>         0.0711
     32 H7          1.3594   -2.3725   -2.1017 H         1 <0>         0.0643
     33 H8          1.4245   -2.3064   -0.3242 H         1 <0>         0.0749
     34 H9         -0.1428   -2.4694   -1.1520 H         1 <0>         0.0578
     35 H10        -1.0102    0.0381   -2.3676 H         1 <0>         0.4218
     36 H11        -0.5451   -0.8734   -8.9703 H         1 <0>         0.1378
     37 H12        -0.1224   -0.3501  -11.3585 H         1 <0>         0.1418
     38 H13         1.2564    3.6368   -7.4140 H         1 <0>         0.0769
     39 H14        -0.0369    4.5114   -8.2688 H         1 <0>         0.0766
     40 H15        -0.4440    3.3849   -6.9522 H         1 <0>         0.0723
     41 H16         0.9901    3.4759  -13.6562 H         1 <0>         0.0956
     42 H17         0.0105    4.0285  -12.2767 H         1 <0>         0.0586
     43 H18         1.7375    3.6614  -12.0515 H         1 <0>         0.0586
     44 H19        -3.1336    2.4100   -6.8272 H         1 <0>         0.0875
     45 H20        -2.9872    1.0163   -7.9248 H         1 <0>         0.0849
     46 H21        -3.8003    0.8294   -6.3525 H         1 <0>         0.0816
     47 H22         4.3522   -0.5697   -4.0252 H         1 <0>         0.0912
     48 H23         4.1695   -1.1025   -5.7137 H         1 <0>         0.0939
     49 H24         4.4777    0.6124   -5.3499 H         1 <0>         0.0940
@<TRIPOS>BOND
     1    1    2 1
     2    1   27 1
     3    1   28 1
     4    1   29 1
     5    2    3 1
     6    2   30 1
     7    2   31 1
     8    3    4 1
     9    3    5 1
    10    3    6 1
    11    5   32 1
    12    5   33 1
    13    5   34 1
    14    6    7 1
    15    6   35 1
    16    7   12 1
    17    7    8 2
    18    8    9 1
    19    9   10 2
    20    9   26 1
    21   10   11 1
    22   11   15 2
    23   11   12 1
    24   12   13 1
    25   13   14 2
    26   14   15 1
    27   14   25 1
    28   15   16 1
    29   16   21 ar
    30   16   17 ar
    31   17   18 ar
    32   17   36 1
    33   18   19 ar
    34   18   37 1
    35   19   20 ar
    36   19   23 1
    37   20   21 ar
    38   21   22 1
    39   22   38 1
    40   22   39 1
    41   22   40 1
    42   23   24 1
    43   24   41 1
    44   24   42 1
    45   24   43 1
    46   25   44 1
    47   25   45 1
    48   25   46 1
    49   26   47 1
    50   26   48 1
    51   26   49 1
@<TRIPOS>MOLECULE
ZINC42887577
   51    55     0     0     0
SMALL
USER_CHARGES

@<TRIPOS>ATOM
      1 C1         -0.0518    1.5017   -0.1148 C.3       1 <0>        -0.1240
      2 C2          1.3896    2.0009   -0.1884 C.3       1 <0>        -0.1233
      3 C3          2.1792    1.5324    1.0162 C.3       1 <0>        -0.1236
      4 C4          2.0195    0.0939    1.3795 C.3       1 <0>         0.0936
      5 H1          2.2717   -0.0155    2.4343 H         1 <0>         0.0954
      6 C5          0.6350   -0.5290    1.1646 C.3       1 <0>        -0.0591
      7 H2         -0.0167   -0.3840    2.0262 H         1 <0>         0.1072
      8 C6         -0.0335   -0.0263   -0.0957 C.3       1 <0>        -0.1163
      9 C7          1.0170   -1.9803    0.9762 C.2       1 <0>        -0.3344
     10 C8          2.3328   -2.0225    0.6739 C.2       1 <0>         0.2511
     11 O1          2.8682   -0.7933    0.6365 O.3       1 <0>        -0.2589
     12 C9          3.0235   -3.3350    0.3757 C.3       1 <0>        -0.0898
     13 C10         2.3849   -4.4569    1.1913 C.3       1 <0>        -0.0540
     14 C11         0.8856   -4.4170    1.1377 C.ar      1 <0>        -0.2237
     15 C12         0.2049   -3.1948    1.0601 C.ar      1 <0>         0.3605
     16 N1         -1.1238   -3.1799    1.0574 N.ar      1 <0>        -0.5496
     17 C13        -1.8045   -4.3176    1.0919 C.ar      1 <0>         0.6483
     18 N2         -1.1964   -5.4936    1.1387 N.ar      1 <0>        -0.5521
     19 C14         0.1326   -5.5842    1.1657 C.ar      1 <0>         0.5268
     20 N3          0.7537   -6.8224    1.2213 N.pl3     1 <0>        -0.6706
     21 C15         1.1158   -7.4297    2.5114 C.3       1 <0>         0.1172
     22 C16         0.5808   -8.8652    2.5396 C.3       1 <0>        -0.0241
     23 N4          1.0770   -9.5946    1.3658 N.4       1 <0>        -0.5044
     24 C17         0.5361   -8.9955    0.1392 C.3       1 <0>        -0.0241
     25 C18         1.0638   -7.5690   -0.0077 C.3       1 <0>         0.1164
     26 N5         -3.1878   -4.2751    1.0794 N.pl3     1 <0>        -0.7861
     27 H3         -0.5233    1.8744    0.7945 H         1 <0>         0.0723
     28 H4         -0.6061    1.8511   -0.9859 H         1 <0>         0.0790
     29 H5          1.8567    1.6173   -1.0955 H         1 <0>         0.0679
     30 H6          1.3913    3.0905   -0.2174 H         1 <0>         0.0831
     31 H7          3.2358    1.7200    0.8248 H         1 <0>         0.0919
     32 H8          1.8815    2.1354    1.8741 H         1 <0>         0.0970
     33 H9         -1.0557   -0.4014   -0.1447 H         1 <0>         0.0613
     34 H10         0.5270   -0.3925   -0.9558 H         1 <0>         0.0705
     35 H11         2.9287   -3.5606   -0.6864 H         1 <0>         0.1212
     36 H12         4.0793   -3.2553    0.6345 H         1 <0>         0.1271
     37 H13         2.7271   -5.4157    0.8020 H         1 <0>         0.1112
     38 H14         2.7040   -4.3648    2.2295 H         1 <0>         0.1008
     39 H15         2.2003   -7.4408    2.6194 H         1 <0>         0.1031
     40 H16         0.6696   -6.8565    3.3241 H         1 <0>         0.1198
     41 H17         0.9220   -9.3625    3.4475 H         1 <0>         0.1503
     42 H18        -0.5090   -8.8474    2.5225 H         1 <0>         0.1373
     43 H19         2.0848   -9.5495    1.3446 H         1 <0>         0.4310
     44 H20         0.8444   -9.5888   -0.7216 H         1 <0>         0.1504
     45 H21        -0.5523   -8.9737    0.1947 H         1 <0>         0.1374
     46 H22         0.5833   -7.0878   -0.8596 H         1 <0>         0.1202
     47 H23         2.1430   -7.5944   -0.1584 H         1 <0>         0.1025
     48 H24        -3.6465   -3.4211    1.0456 H         1 <0>         0.4335
     49 H25        -3.6986   -5.0994    1.1043 H         1 <0>         0.4469
     50 H26         0.7871  -10.5594    1.4236 H         1 <0>         0.4402
     51 H27        -1.5976   -2.3339    1.0303 H         1 <0>         0.4460
@<TRIPOS>BOND
     1    1    8 1
     2    1    2 1
     3    1   27 1
     4    1   28 1
     5    2    3 1
     6    2   29 1
     7    2   30 1
     8    3    4 1
     9    3   31 1
    10    3   32 1
    11    4    5 1
    12    4   11 1
    13    4    6 1
    14    6    7 1
    15    6    8 1
    16    6    9 1
    17    8   33 1
    18    8   34 1
    19    9   15 1
    20    9   10 2
    21   10   11 1
    22   10   12 1
    23   12   13 1
    24   12   35 1
    25   12   36 1
    26   13   14 1
    27   13   37 1
    28   13   38 1
    29   14   19 ar
    30   14   15 ar
    31   15   16 ar
    32   16   17 ar
    33   16   51 1
    34   17   18 ar
    35   17   26 1
    36   18   19 ar
    37   19   20 1
    38   20   25 1
    39   20   21 1
    40   21   22 1
    41   21   39 1
    42   21   40 1
    43   22   23 1
    44   22   41 1
    45   22   42 1
    46   23   24 1
    47   23   43 1
    48   23   50 1
    49   24   25 1
    50   24   44 1
    51   24   45 1
    52   25   46 1
    53   25   47 1
    54   26   48 1
    55   26   49 1
@<TRIPOS>MOLECULE
ZINC42887577
   50    54     0     0     0
SMALL
USER_CHARGES

@<TRIPOS>ATOM
      1 C1         -0.0518    1.5017   -0.1148 C.3       1 <0>        -0.1220
      2 C2          1.3896    2.0009   -0.1884 C.3       1 <0>        -0.1192
      3 C3          2.1792    1.5324    1.0162 C.3       1 <0>        -0.1147
      4 C4          2.0195    0.0939    1.3795 C.3       1 <0>         0.0898
      5 H1          2.2717   -0.0155    2.4343 H         1 <0>         0.0758
      6 C5          0.6350   -0.5290    1.1646 C.3       1 <0>        -0.0477
      7 H2         -0.0167   -0.3840    2.0262 H         1 <0>         0.0960
      8 C6         -0.0335   -0.0263   -0.0957 C.3       1 <0>        -0.1049
      9 C7          1.0170   -1.9803    0.9762 C.2       1 <0>        -0.2453
     10 C8          2.3328   -2.0225    0.6739 C.2       1 <0>         0.1401
     11 O1          2.8682   -0.7933    0.6365 O.3       1 <0>        -0.2869
     12 C9          3.0235   -3.3350    0.3757 C.3       1 <0>        -0.0663
     13 C10         2.3849   -4.4569    1.1913 C.3       1 <0>        -0.0450
     14 C11         0.8856   -4.4170    1.1377 C.ar      1 <0>        -0.2541
     15 C12         0.2049   -3.1948    1.0601 C.ar      1 <0>         0.3245
     16 N1         -1.1238   -3.1799    1.0574 N.ar      1 <0>        -0.5564
     17 C13        -1.8045   -4.3176    1.0919 C.ar      1 <0>         0.5906
     18 N2         -1.1964   -5.4936    1.1387 N.ar      1 <0>        -0.6006
     19 C14         0.1326   -5.5842    1.1657 C.ar      1 <0>         0.4501
     20 N3          0.7537   -6.8224    1.2213 N.pl3     1 <0>        -0.6608
     21 C15         1.1158   -7.4297    2.5114 C.3       1 <0>         0.1219
     22 C16         0.5808   -8.8652    2.5396 C.3       1 <0>        -0.0241
     23 N4          1.0770   -9.5946    1.3658 N.4       1 <0>        -0.5018
     24 C17         0.5361   -8.9955    0.1392 C.3       1 <0>        -0.0239
     25 C18         1.0638   -7.5690   -0.0077 C.3       1 <0>         0.1212
     26 N5         -3.1878   -4.2751    1.0794 N.pl3     1 <0>        -0.8176
     27 H3         -0.5233    1.8744    0.7945 H         1 <0>         0.0664
     28 H4         -0.6061    1.8511   -0.9859 H         1 <0>         0.0695
     29 H5          1.8567    1.6173   -1.0955 H         1 <0>         0.0639
     30 H6          1.3913    3.0905   -0.2174 H         1 <0>         0.0723
     31 H7          3.2358    1.7200    0.8248 H         1 <0>         0.0806
     32 H8          1.8815    2.1354    1.8741 H         1 <0>         0.0857
     33 H9         -1.0557   -0.4014   -0.1447 H         1 <0>         0.0725
     34 H10         0.5270   -0.3925   -0.9558 H         1 <0>         0.0586
     35 H11         2.9287   -3.5606   -0.6864 H         1 <0>         0.0972
     36 H12         4.0793   -3.2553    0.6345 H         1 <0>         0.1003
     37 H13         2.7271   -5.4157    0.8020 H         1 <0>         0.0853
     38 H14         2.7040   -4.3648    2.2295 H         1 <0>         0.0768
     39 H15         2.2003   -7.4408    2.6194 H         1 <0>         0.0885
     40 H16         0.6696   -6.8565    3.3241 H         1 <0>         0.1147
     41 H17         0.9220   -9.3625    3.4475 H         1 <0>         0.1413
     42 H18        -0.5090   -8.8474    2.5225 H         1 <0>         0.1345
     43 H19         2.0848   -9.5495    1.3446 H         1 <0>         0.4272
     44 H20         0.8444   -9.5888   -0.7216 H         1 <0>         0.1416
     45 H21        -0.5523   -8.9737    0.1947 H         1 <0>         0.1346
     46 H22         0.5833   -7.0878   -0.8596 H         1 <0>         0.1152
     47 H23         2.1430   -7.5944   -0.1584 H         1 <0>         0.0877
     48 H24        -3.6465   -3.4211    1.0456 H         1 <0>         0.4194
     49 H25        -3.6986   -5.0994    1.1043 H         1 <0>         0.4149
     50 H26         0.7871  -10.5594    1.4236 H         1 <0>         0.4326
@<TRIPOS>BOND
     1    1    8 1
     2    1    2 1
     3    1   27 1
     4    1   28 1
     5    2    3 1
     6    2   29 1
     7    2   30 1
     8    3    4 1
     9    3   31 1
    10    3   32 1
    11    4    5 1
    12    4   11 1
    13    4    6 1
    14    6    7 1
    15    6    8 1
    16    6    9 1
    17    8   33 1
    18    8   34 1
    19    9   15 1
    20    9   10 2
    21   10   11 1
    22   10   12 1
    23   12   13 1
    24   12   35 1
    25   12   36 1
    26   13   14 1
    27   13   37 1
    28   13   38 1
    29   14   19 ar
    30   14   15 ar
    31   15   16 ar
    32   16   17 ar
    33   17   18 ar
    34   17   26 1
    35   18   19 ar
    36   19   20 1
    37   20   25 1
    38   20   21 1
    39   21   22 1
    40   21   39 1
    41   21   40 1
    42   22   23 1
    43   22   41 1
    44   22   42 1
    45   23   24 1
    46   23   43 1
    47   23   50 1
    48   24   25 1
    49   24   44 1
    50   24   45 1
    51   25   46 1
    52   25   47 1
    53   26   48 1
    54   26   49 1
@<TRIPOS>MOLECULE
ZINC42887577
   51    55     0     0     0
SMALL
USER_CHARGES

@<TRIPOS>ATOM
      1 C1         -0.0530    1.5009   -0.1188 C.3       1 <0>        -0.1241
      2 C2          1.3884    2.0000   -0.1944 C.3       1 <0>        -0.1226
      3 C3          2.1794    1.5322    1.0096 C.3       1 <0>        -0.1211
      4 C4          2.0201    0.0940    1.3739 C.3       1 <0>         0.0885
      5 H1          2.2735   -0.0148    2.4285 H         1 <0>         0.0910
      6 C5          0.6353   -0.5290    1.1610 C.3       1 <0>        -0.0474
      7 H2         -0.0154   -0.3835    2.0233 H         1 <0>         0.1079
      8 C6         -0.0346   -0.0270   -0.0987 C.3       1 <0>        -0.1091
      9 C7          1.0170   -1.9805    0.9730 C.2       1 <0>        -0.2880
     10 C8          2.3324   -2.0229    0.6692 C.2       1 <0>         0.2249
     11 O1          2.8679   -0.7937    0.6305 O.3       1 <0>        -0.2629
     12 C9          3.0227   -3.3356    0.3710 C.3       1 <0>        -0.0848
     13 C10         2.3850   -4.4570    1.1880 C.3       1 <0>        -0.0597
     14 C11         0.8856   -4.4170    1.1361 C.ar      1 <0>        -0.1763
     15 C12         0.2049   -3.1948    1.0586 C.ar      1 <0>         0.3893
     16 N1         -1.1238   -3.1799    1.0574 N.ar      1 <0>        -0.5112
     17 C13        -1.8045   -4.3176    1.0935 C.ar      1 <0>         0.6478
     18 N2         -1.1964   -5.4935    1.1402 N.ar      1 <0>        -0.5789
     19 C14         0.1326   -5.5842    1.1657 C.ar      1 <0>         0.4358
     20 N3          0.7537   -6.8224    1.2213 N.pl3     1 <0>        -0.6731
     21 C15         1.1158   -7.4297    2.5114 C.3       1 <0>         0.1064
     22 C16         0.5808   -8.8652    2.5396 C.3       1 <0>        -0.0246
     23 N4          1.0770   -9.5946    1.3658 N.4       1 <0>        -0.5057
     24 C17         0.5361   -8.9955    0.1392 C.3       1 <0>        -0.0245
     25 C18         1.0638   -7.5690   -0.0077 C.3       1 <0>         0.1048
     26 N5         -3.1878   -4.2750    1.0825 N.pl3     1 <0>        -0.7858
     27 H3         -0.5234    1.8742    0.7909 H         1 <0>         0.0704
     28 H4         -0.6083    1.8498   -0.9894 H         1 <0>         0.0754
     29 H5          1.8544    1.6159   -1.1017 H         1 <0>         0.0659
     30 H6          1.3901    3.0896   -0.2240 H         1 <0>         0.0797
     31 H7          3.2357    1.7197    0.8169 H         1 <0>         0.0881
     32 H8          1.8828    2.1357    1.8674 H         1 <0>         0.0950
     33 H9         -1.0570   -0.4021   -0.1463 H         1 <0>         0.0741
     34 H10         0.5248   -0.3938   -0.9593 H         1 <0>         0.0610
     35 H11         2.9266   -3.5619   -0.6909 H         1 <0>         0.1187
     36 H12         4.0788   -3.2558    0.6285 H         1 <0>         0.1259
     37 H13         2.7267   -5.4161    0.7988 H         1 <0>         0.1069
     38 H14         2.7053   -4.3643    2.2258 H         1 <0>         0.1056
     39 H15         2.2003   -7.4408    2.6194 H         1 <0>         0.1105
     40 H16         0.6696   -6.8565    3.3241 H         1 <0>         0.1251
     41 H17         0.9220   -9.3625    3.4475 H         1 <0>         0.1558
     42 H18        -0.5090   -8.8474    2.5225 H         1 <0>         0.1333
     43 H19         2.0848   -9.5495    1.3446 H         1 <0>         0.4347
     44 H20         0.8444   -9.5888   -0.7216 H         1 <0>         0.1561
     45 H21        -0.5523   -8.9737    0.1947 H         1 <0>         0.1330
     46 H22         0.5833   -7.0878   -0.8596 H         1 <0>         0.1249
     47 H23         2.1430   -7.5944   -0.1584 H         1 <0>         0.1103
     48 H24        -3.6465   -3.4210    1.0488 H         1 <0>         0.4503
     49 H25        -3.6987   -5.0992    1.1085 H         1 <0>         0.4297
     50 H26         0.7871  -10.5594    1.4236 H         1 <0>         0.4428
     51 H27        -1.7289   -6.3042    1.1559 H         1 <0>         0.4302
@<TRIPOS>BOND
     1    1    8 1
     2    1    2 1
     3    1   27 1
     4    1   28 1
     5    2    3 1
     6    2   29 1
     7    2   30 1
     8    3    4 1
     9    3   31 1
    10    3   32 1
    11    4    5 1
    12    4   11 1
    13    4    6 1
    14    6    7 1
    15    6    8 1
    16    6    9 1
    17    8   33 1
    18    8   34 1
    19    9   15 1
    20    9   10 2
    21   10   11 1
    22   10   12 1
    23   12   13 1
    24   12   35 1
    25   12   36 1
    26   13   14 1
    27   13   37 1
    28   13   38 1
    29   14   19 ar
    30   14   15 ar
    31   15   16 ar
    32   16   17 ar
    33   17   18 ar
    34   17   26 1
    35   18   19 ar
    36   18   51 1
    37   19   20 1
    38   20   25 1
    39   20   21 1
    40   21   22 1
    41   21   39 1
    42   21   40 1
    43   22   23 1
    44   22   41 1
    45   22   42 1
    46   23   24 1
    47   23   43 1
    48   23   50 1
    49   24   25 1
    50   24   44 1
    51   24   45 1
    52   25   46 1
    53   25   47 1
    54   26   48 1
    55   26   49 1
@<TRIPOS>MOLECULE
ZINC02105296
   50    53     0     0     0
SMALL
USER_CHARGES
2-phenyl-N-(1-phenylpropyl)quinoline-4-carboxamide
@<TRIPOS>ATOM
      1 C1         -0.0537    0.9445    2.5167 C.3       1 <0>        -0.1474
      2 C2         -0.7254    1.5704    1.2928 C.3       1 <0>        -0.1287
      3 C3         -0.0161    1.0954    0.0231 C.3       1 <0>         0.1872
      4 H1         -0.0015    0.0057    0.0011 H         1 <0>         0.1021
      5 C4         -0.7515    1.6125   -1.1864 C.ar      1 <0>        -0.0955
      6 C5         -0.5635    2.9167   -1.6044 C.ar      1 <0>        -0.1167
      7 C6         -1.2347    3.3896   -2.7164 C.ar      1 <0>        -0.1142
      8 C7         -2.1012    2.5613   -3.4049 C.ar      1 <0>        -0.1165
      9 C8         -2.2929    1.2586   -2.9841 C.ar      1 <0>        -0.1137
     10 C9         -1.6184    0.7843   -1.8746 C.ar      1 <0>        -0.1055
     11 N1          1.3583    1.6025    0.0127 N.am      1 <0>        -0.7142
     12 C10         2.3312    0.9256    0.6543 C.2       1 <0>         0.5662
     13 O1          2.0683   -0.1056    1.2415 O.2       1 <0>        -0.5132
     14 C11         3.7188    1.4375    0.6438 C.ar      1 <0>        -0.0688
     15 C12         4.0673    2.5426   -0.1170 C.ar      1 <0>        -0.1280
     16 C13         5.3937    3.0010   -0.1024 C.ar      1 <0>         0.1953
     17 N2          6.3226    2.4063    0.6190 N.ar      1 <0>        -0.4486
     18 C14         6.0508    1.3388    1.3721 C.ar      1 <0>         0.1340
     19 C15         4.7340    0.8163    1.4170 C.ar      1 <0>        -0.0668
     20 C16         4.4580   -0.3011    2.2150 C.ar      1 <0>        -0.1030
     21 C17         5.4572   -0.8725    2.9448 C.ar      1 <0>        -0.1139
     22 C18         6.7522   -0.3596    2.9075 C.ar      1 <0>        -0.0939
     23 C19         7.0578    0.7184    2.1354 C.ar      1 <0>        -0.0976
     24 C20         5.7590    4.1841   -0.9185 C.ar      1 <0>        -0.0569
     25 C21         4.7932    4.8250   -1.6930 C.ar      1 <0>        -0.0994
     26 C22         5.1376    5.9293   -2.4456 C.ar      1 <0>        -0.1222
     27 C23         6.4409    6.3929   -2.4421 C.ar      1 <0>        -0.1042
     28 C24         7.4047    5.7575   -1.6799 C.ar      1 <0>        -0.1241
     29 C25         7.0706    4.6561   -0.9185 C.ar      1 <0>        -0.0749
     30 H2         -0.1168   -0.1417    2.4500 H         1 <0>         0.0626
     31 H3          0.9931    1.2462    2.5508 H         1 <0>         0.0547
     32 H4         -0.5590    1.2829    3.4213 H         1 <0>         0.0503
     33 H5         -0.6623    2.6566    1.3595 H         1 <0>         0.0658
     34 H6         -1.7722    1.2687    1.2588 H         1 <0>         0.0761
     35 H7          0.1104    3.5650   -1.0641 H         1 <0>         0.1187
     36 H8         -1.0847    4.4073   -3.0454 H         1 <0>         0.1250
     37 H9         -2.6282    2.9319   -4.2717 H         1 <0>         0.1243
     38 H10        -2.9698    0.6115   -3.5220 H         1 <0>         0.1258
     39 H11        -1.7684   -0.2334   -1.5457 H         1 <0>         0.1257
     40 H12         1.5681    2.4254   -0.4560 H         1 <0>         0.3995
     41 H13         3.3239    3.0467   -0.7167 H         1 <0>         0.1406
     42 H14         3.4582   -0.7077    2.2522 H         1 <0>         0.1697
     43 H15         5.2425   -1.7341    3.5596 H         1 <0>         0.1308
     44 H16         7.5272   -0.8300    3.4943 H         1 <0>         0.1328
     45 H17         8.0665    1.1039    2.1178 H         1 <0>         0.1386
     46 H18         3.7765    4.4609   -1.7002 H         1 <0>         0.1244
     47 H19         4.3892    6.4293   -3.0425 H         1 <0>         0.1279
     48 H20         6.7069    7.2546   -3.0364 H         1 <0>         0.1257
     49 H21         8.4207    6.1238   -1.6810 H         1 <0>         0.1277
     50 H22         7.8238    4.1609   -0.3236 H         1 <0>         0.1362
@<TRIPOS>BOND
     1    1    2 1
     2    1   30 1
     3    1   31 1
     4    1   32 1
     5    2    3 1
     6    2   33 1
     7    2   34 1
     8    3    4 1
     9    3    5 1
    10    3   11 1
    11    5   10 ar
    12    5    6 ar
    13    6    7 ar
    14    6   35 1
    15    7    8 ar
    16    7   36 1
    17    8    9 ar
    18    8   37 1
    19    9   10 ar
    20    9   38 1
    21   10   39 1
    22   11   12 am
    23   11   40 1
    24   12   13 2
    25   12   14 1
    26   14   19 ar
    27   14   15 ar
    28   15   16 ar
    29   15   41 1
    30   16   17 ar
    31   16   24 1
    32   17   18 ar
    33   18   23 ar
    34   18   19 ar
    35   19   20 ar
    36   20   21 ar
    37   20   42 1
    38   21   22 ar
    39   21   43 1
    40   22   23 ar
    41   22   44 1
    42   23   45 1
    43   24   29 ar
    44   24   25 ar
    45   25   26 ar
    46   25   46 1
    47   26   27 ar
    48   26   47 1
    49   27   28 ar
    50   27   48 1
    51   28   29 ar
    52   28   49 1
    53   29   50 1
