@<TRIPOS>MOLECULE
ZINC26823248
   22    23     0     0     0
SMALL
USER_CHARGES

@<TRIPOS>ATOM
      1 C1         -0.0167    1.3791    0.0096 C.ar      1 <0>        -0.0619
      2 C2          1.1738    2.0800    0.0020 C.ar      1 <0>        -0.0866
      3 C3          2.3803    1.4026   -0.0162 C.ar      1 <0>        -0.0168
      4 C4          2.4046    0.0232   -0.0306 C.ar      1 <0>        -0.0303
      5 C5          1.2074   -0.6787   -0.0171 C.ar      1 <0>        -0.0881
      6 C6          0.0021   -0.0041    0.0020 C.ar      1 <0>        -0.0299
      7 Cl1        -1.4894   -0.8923    0.0171 Cl        1 <0>        -0.0337
      8 N1          3.5946   -0.6953   -0.0702 N.4       1 <0>        -0.3848
      9 C7          4.6934    0.0006    0.3908 C.2       1 <0>         0.3381
     10 O1          5.7533   -0.7230    0.8307 O.3       1 <0>        -0.5661
     11 C8          4.7917    1.3007    0.4360 C.2       1 <0>        -0.2745
     12 C9          3.6656    2.1894   -0.0148 C.3       1 <0>        -0.0196
     13 N2          6.0397    1.9148    0.9428 N.pl3     1 <0>         0.0830
     14 O2          6.9534    1.2129    1.3091 O.2       1 <0>        -0.1529
     15 O3          6.1452    3.1182    0.9905 O.3       1 <0>        -0.2315
     16 H1         -0.9578    1.9087    0.0259 H         1 <0>         0.1563
     17 H2          1.1628    3.1599    0.0099 H         1 <0>         0.1603
     18 H3          1.2182   -1.7586   -0.0220 H         1 <0>         0.1572
     19 H4          3.4849   -1.5280    0.4888 H         1 <0>         0.4351
     20 H5          3.8705    2.5535   -1.0216 H         1 <0>         0.1041
     21 H6          3.5740    3.0350    0.6668 H         1 <0>         0.1116
     22 H7          3.7689   -0.9742   -1.0241 H         1 <0>         0.4310
@<TRIPOS>BOND
     1    1    6 ar
     2    1    2 ar
     3    1   16 1
     4    2    3 ar
     5    2   17 1
     6    3   12 1
     7    3    4 ar
     8    4    5 ar
     9    4    8 1
    10    5    6 ar
    11    5   18 1
    12    6    7 1
    13    8    9 1
    14    8   19 1
    15    8   22 1
    16    9   10 1
    17    9   11 2
    18   11   12 1
    19   11   13 1
    20   12   20 1
    21   12   21 1
    22   13   14 2
    23   13   15 1
@<TRIPOS>MOLECULE
ZINC03616630
   52    54     0     0     0
SMALL
USER_CHARGES

@<TRIPOS>ATOM
      1 C1         -0.0187    1.5258    0.0104 C.3       1 <0>        -0.1979
      2 C2          0.0021   -0.0041    0.0020 C.3       1 <0>        -0.0083
      3 H1         -1.0205   -0.3814    0.0098 H         1 <0>         0.1467
      4 C3          0.7421   -0.5109    1.2415 C.3       1 <0>         0.1398
      5 H2          0.8346   -1.5958    1.1912 H         1 <0>         0.1306
      6 C4         -0.0298   -0.1295    2.4784 C.ar      1 <0>        -0.1506
      7 C5          0.0648    1.1546    2.9823 C.ar      1 <0>        -0.0917
      8 C6         -0.6414    1.5067    4.1162 C.ar      1 <0>        -0.1399
      9 C7         -1.4464    0.5707    4.7491 C.ar      1 <0>         0.1318
     10 C8         -1.5399   -0.7170    4.2412 C.ar      1 <0>        -0.1399
     11 C9         -0.8358   -1.0625    3.1041 C.ar      1 <0>        -0.0825
     12 O1         -2.1418    0.9144    5.8650 O.3       1 <0>        -0.4954
     13 O2          2.0438    0.0763    1.2925 O.3       1 <0>        -0.5446
     14 N1          0.6897   -0.4778   -1.2066 N.4       1 <0>        -0.3762
     15 C10        -0.0162    0.0165   -2.3948 C.3       1 <0>        -0.0111
     16 C11         0.7414   -0.4060   -3.6554 C.3       1 <0>        -0.1418
     17 C12         0.8228   -1.9344   -3.7071 C.3       1 <0>        -0.0939
     18 C13         1.4942   -2.4436   -2.4284 C.3       1 <0>        -0.1436
     19 C14         0.7088   -1.9455   -1.2133 C.3       1 <0>        -0.0127
     20 C15         1.6472   -2.3620   -4.9230 C.3       1 <0>        -0.0744
     21 C16         1.6242   -3.8640   -5.0426 C.ar      1 <0>        -0.0948
     22 C17         2.5880   -4.6230   -4.4053 C.ar      1 <0>        -0.1212
     23 C18         2.5668   -6.0008   -4.5150 C.ar      1 <0>        -0.1159
     24 C19         1.5817   -6.6197   -5.2615 C.ar      1 <0>        -0.1163
     25 C20         0.6174   -5.8609   -5.8979 C.ar      1 <0>        -0.1139
     26 C21         0.6360   -4.4833   -5.7848 C.ar      1 <0>        -0.1163
     27 H3          1.0039    1.9031    0.0027 H         1 <0>         0.0834
     28 H4         -0.5459    1.8868   -0.8726 H         1 <0>         0.0917
     29 H5         -0.5289    1.8773    0.9072 H         1 <0>         0.1135
     30 H6          0.6915    1.8829    2.4892 H         1 <0>         0.1279
     31 H7         -0.5667    2.5096    4.5098 H         1 <0>         0.1384
     32 H8         -2.1659   -1.4474    4.7322 H         1 <0>         0.1387
     33 H9         -0.9117   -2.0635    2.7058 H         1 <0>         0.1316
     34 H10        -3.0262    1.2619    5.6858 H         1 <0>         0.4006
     35 H11         2.0381    1.0422    1.3386 H         1 <0>         0.3862
     36 H12        -1.0226   -0.4013   -2.4191 H         1 <0>         0.1283
     37 H13        -0.0762    1.1042   -2.3550 H         1 <0>         0.1325
     38 H14         0.2147   -0.0396   -4.5366 H         1 <0>         0.1136
     39 H15         1.7479    0.0115   -3.6323 H         1 <0>         0.0897
     40 H16        -0.1818   -2.3506   -3.7819 H         1 <0>         0.0907
     41 H17         1.5058   -3.5335   -2.4326 H         1 <0>         0.1159
     42 H18         2.5165   -2.0683   -2.3798 H         1 <0>         0.0897
     43 H19         1.1841   -2.3064   -0.3012 H         1 <0>         0.1315
     44 H20        -0.3131   -2.3215   -1.2627 H         1 <0>         0.1284
     45 H21         1.2224   -1.9192   -5.8239 H         1 <0>         0.0830
     46 H22         2.6760   -2.0229   -4.8019 H         1 <0>         0.0787
     47 H23         3.3577   -4.1394   -3.8221 H         1 <0>         0.1199
     48 H24         3.3202   -6.5937   -4.0177 H         1 <0>         0.1246
     49 H25         1.5656   -7.6962   -5.3477 H         1 <0>         0.1252
     50 H26        -0.1521   -6.3444   -6.4814 H         1 <0>         0.1251
     51 H27        -0.1196   -3.8906   -6.2790 H         1 <0>         0.1213
     52 H28         1.6368   -0.1301   -1.2116 H         1 <0>         0.4242
@<TRIPOS>BOND
     1    1    2 1
     2    1   27 1
     3    1   28 1
     4    1   29 1
     5    2    3 1
     6    2    4 1
     7    2   14 1
     8    4    5 1
     9    4    6 1
    10    4   13 1
    11    6   11 ar
    12    6    7 ar
    13    7    8 ar
    14    7   30 1
    15    8    9 ar
    16    8   31 1
    17    9   10 ar
    18    9   12 1
    19   10   11 ar
    20   10   32 1
    21   11   33 1
    22   12   34 1
    23   13   35 1
    24   14   19 1
    25   14   15 1
    26   14   52 1
    27   15   16 1
    28   15   36 1
    29   15   37 1
    30   16   17 1
    31   16   38 1
    32   16   39 1
    33   17   18 1
    34   17   20 1
    35   17   40 1
    36   18   19 1
    37   18   41 1
    38   18   42 1
    39   19   43 1
    40   19   44 1
    41   20   21 1
    42   20   45 1
    43   20   46 1
    44   21   26 ar
    45   21   22 ar
    46   22   23 ar
    47   22   47 1
    48   23   24 ar
    49   23   48 1
    50   24   25 ar
    51   24   49 1
    52   25   26 ar
    53   25   50 1
    54   26   51 1
@<TRIPOS>MOLECULE
ZINC13805755
   48    50     0     0     0
SMALL
USER_CHARGES
4-[1-(3-phenylpropyl)-4-piperidyl]phenol
@<TRIPOS>ATOM
      1 C1         -2.9441    9.8292   -3.1678 C.ar      1 <0>        -0.1131
      2 C2         -1.7312    9.3793   -3.6552 C.ar      1 <0>        -0.1153
      3 C3         -1.5018    8.0231   -3.7927 C.ar      1 <0>        -0.1156
      4 C4         -2.4854    7.1168   -3.4434 C.ar      1 <0>        -0.1009
      5 C5         -3.7004    7.5669   -2.9615 C.ar      1 <0>        -0.1159
      6 C6         -3.9279    8.9229   -2.8189 C.ar      1 <0>        -0.1154
      7 C7         -2.2355    5.6383   -3.5939 C.3       1 <0>        -0.0732
      8 C8         -1.6290    5.0894   -2.3009 C.3       1 <0>        -0.1468
      9 C9         -1.3753    3.5884   -2.4536 C.3       1 <0>        -0.0056
     10 C10        -0.7544    1.5936   -1.2306 C.3       1 <0>        -0.0003
     11 C11        -0.0127    1.0858    0.0080 C.3       1 <0>        -0.1416
     12 C12        -0.7310    1.5804    1.2666 C.3       1 <0>        -0.0519
     13 C13        -0.8011    3.1098    1.2370 C.3       1 <0>        -0.1411
     14 C14        -1.5200    3.5588   -0.0372 C.3       1 <0>        -0.0096
     15 C15         0.0293    1.1339    2.4887 C.ar      1 <0>        -0.1080
     16 C16         1.3411    1.5318    2.6690 C.ar      1 <0>        -0.0979
     17 C17         2.0384    1.1285    3.7913 C.ar      1 <0>        -0.1424
     18 C18         1.4252    0.3138    4.7319 C.ar      1 <0>         0.1194
     19 C19         0.1106   -0.0888    4.5458 C.ar      1 <0>        -0.1408
     20 C20        -0.5843    0.3223    3.4249 C.ar      1 <0>        -0.0909
     21 O1          2.1111   -0.0897    5.8336 O.3       1 <0>        -0.4980
     22 H1         -3.1232   10.8888   -3.0600 H         1 <0>         0.1266
     23 H2         -0.9628   10.0874   -3.9281 H         1 <0>         0.1261
     24 H3         -0.5543    7.6716   -4.1735 H         1 <0>         0.1213
     25 H4         -4.4704    6.8590   -2.6927 H         1 <0>         0.1212
     26 H5         -4.8756    9.2744   -2.4386 H         1 <0>         0.1261
     27 H6         -1.5447    5.4687   -4.4198 H         1 <0>         0.0825
     28 H7         -3.1776    5.1295   -3.7978 H         1 <0>         0.0825
     29 H8         -2.3198    5.2590   -1.4749 H         1 <0>         0.0910
     30 H9         -0.6869    5.5983   -2.0969 H         1 <0>         0.0878
     31 H10        -0.6845    3.4188   -3.2795 H         1 <0>         0.1294
     32 H11        -2.3174    3.0795   -2.6576 H         1 <0>         0.1314
     33 H12        -0.2368    1.2551   -2.1281 H         1 <0>         0.1300
     34 H13        -1.7723    1.2035   -1.2296 H         1 <0>         0.1309
     35 H14         0.0021   -0.0041    0.0020 H         1 <0>         0.1141
     36 H15         1.0097    1.4637    0.0003 H         1 <0>         0.0896
     37 H16        -1.7406    1.1705    1.2946 H         1 <0>         0.0961
     38 H17         0.2087    3.5200    1.2489 H         1 <0>         0.0893
     39 H18        -1.3492    3.4665    2.1090 H         1 <0>         0.1139
     40 H19        -1.5583    4.6477   -0.0680 H         1 <0>         0.1343
     41 H20        -2.5342    3.1596   -0.0419 H         1 <0>         0.1313
     42 H21         1.8197    2.1619    1.9339 H         1 <0>         0.1227
     43 H22         3.0618    1.4429    3.9337 H         1 <0>         0.1330
     44 H23        -0.3689   -0.7233    5.2765 H         1 <0>         0.1345
     45 H24        -1.6077    0.0092    3.2796 H         1 <0>         0.1288
     46 H25         2.5903   -0.9213    5.7159 H         1 <0>         0.3983
     47 N1         -0.7648    3.0719   -1.2111 N.4       1 <0>        -0.3942
     48 H26         0.2023    3.4110   -1.1489 H         1 <0>         0.4265
@<TRIPOS>BOND
     1    1    6 ar
     2    1    2 ar
     3    1   22 1
     4    2    3 ar
     5    2   23 1
     6    3    4 ar
     7    3   24 1
     8    4    5 ar
     9    4    7 1
    10    5    6 ar
    11    5   25 1
    12    6   26 1
    13    7    8 1
    14    7   27 1
    15    7   28 1
    16    8    9 1
    17    8   29 1
    18    8   30 1
    19    9   31 1
    20    9   32 1
    21    9   47 1
    22   10   11 1
    23   10   33 1
    24   10   34 1
    25   10   47 1
    26   11   12 1
    27   11   35 1
    28   11   36 1
    29   12   13 1
    30   12   15 1
    31   12   37 1
    32   13   14 1
    33   13   38 1
    34   13   39 1
    35   14   40 1
    36   14   41 1
    37   14   47 1
    38   15   20 ar
    39   15   16 ar
    40   16   17 ar
    41   16   42 1
    42   17   18 ar
    43   17   43 1
    44   18   19 ar
    45   18   21 1
    46   19   20 ar
    47   19   44 1
    48   20   45 1
    49   21   46 1
    50   47   48 1
@<TRIPOS>MOLECULE
ZINC18118278
   22    23     0     0     0
SMALL
USER_CHARGES

@<TRIPOS>ATOM
      1 C1          0.0496    1.1063    0.6344 C.ar      1 <0>        -0.0815
      2 C2          0.8293    1.9861   -0.1610 C.ar      1 <0>         0.4075
      3 N1          0.4596    3.2355   -0.3488 N.am      1 <0>        -0.4279
      4 C3          1.2172    4.0533   -1.1085 C.2       1 <0>         0.4679
      5 O1          0.8827    5.2069   -1.2858 O.2       1 <0>        -0.1860
      6 C4          2.4726    3.5290   -1.7307 C.2       1 <0>         0.4680
      7 O2          3.1640    4.2540   -2.4164 O.2       1 <0>        -0.1859
      8 N2          2.8311    2.2450   -1.5240 N.am      1 <0>        -0.4280
      9 C5          2.0762    1.4654   -0.7789 C.ar      1 <0>         0.4074
     10 C6          2.4324    0.1113   -0.5464 C.ar      1 <0>        -0.0816
     11 C7          1.6375   -0.6655    0.2237 C.ar      1 <0>         0.1372
     12 C8          0.4549   -0.1716    0.8097 C.ar      1 <0>         0.1371
     13 N3         -0.3677   -1.0785    1.6416 N.pl3     1 <0>        -0.0219
     14 O3         -1.5741   -1.0221    1.5858 O.2       1 <0>        -0.0173
     15 O4          0.1668   -1.8755    2.3769 O.3       1 <0>        -0.0340
     16 N4          2.0208   -2.0759    0.4581 N.pl3     1 <0>        -0.0219
     17 O5          3.1825   -2.3672    0.6234 O.2       1 <0>        -0.0173
     18 O6          1.1722   -2.9366    0.4842 O.3       1 <0>        -0.0339
     19 H1         -0.8595    1.4568    1.1003 H         1 <0>         0.2615
     20 H2          3.3326   -0.2963   -0.9822 H         1 <0>         0.2615
     21 H3         -0.3561    3.5673    0.0580 H         1 <0>         0.4946
     22 H4          3.6434    1.8969   -1.9239 H         1 <0>         0.4946
@<TRIPOS>BOND
     1    1   12 ar
     2    1    2 ar
     3    1   19 1
     4    2    9 ar
     5    2    3 2
     6    3    4 am
     7    3   21 1
     8    4    5 2
     9    4    6 1
    10    6    7 2
    11    6    8 am
    12    8    9 2
    13    8   22 1
    14    9   10 ar
    15   10   11 ar
    16   10   20 1
    17   11   12 ar
    18   11   16 1
    19   12   13 1
    20   13   14 2
    21   13   15 1
    22   16   17 2
    23   16   18 1
@<TRIPOS>MOLECULE
ZINC18118278
   21    22     0     0     0
SMALL
USER_CHARGES

@<TRIPOS>ATOM
      1 C1          0.0417    1.2522    0.5309 C.ar      1 <0>        -0.0473
      2 C2          0.8780    2.0146   -0.2789 C.ar      1 <0>         0.0748
      3 C3          2.0479    1.4409   -0.8068 C.ar      1 <0>         0.2260
      4 C4          2.3544    0.1053   -0.5080 C.ar      1 <0>        -0.0622
      5 C5          1.5202   -0.6244    0.2883 C.ar      1 <0>         0.0219
      6 C6          0.3650   -0.0580    0.8097 C.ar      1 <0>        -0.0602
      7 N1         -0.5259   -0.8673    1.6712 N.pl3     1 <0>         0.0426
      8 O1         -1.7257   -0.7484    1.5809 O.2       1 <0>        -0.1529
      9 O2         -0.0539   -1.6473    2.4653 O.3       1 <0>        -0.1493
     10 N2          1.8502   -2.0336    0.5987 N.pl3     1 <0>         0.0304
     11 O3          2.9984   -2.3560    0.7971 O.2       1 <0>        -0.1355
     12 O4          0.9715   -2.8622    0.6539 O.3       1 <0>        -0.1417
     13 N3          2.8727    2.1624   -1.5937 N.2       1 <0>        -0.5947
     14 C7          2.6068    3.4079   -1.8848 C.2       1 <0>         0.4324
     15 O5          3.4503    4.1124   -2.6771 O.3       1 <0>        -0.5802
     16 C8          1.3904    4.0475   -1.3530 C.2       1 <0>         0.4795
     17 O6          1.1361    5.2074   -1.6209 O.2       1 <0>        -0.4979
     18 N4          0.5617    3.3300   -0.5634 N.am      1 <0>        -0.6270
     19 H1         -0.2442    3.7314   -0.2024 H         1 <0>         0.4104
     20 H2         -0.8563    1.6877    0.9435 H         1 <0>         0.1592
     21 H3          3.2502   -0.3457   -0.9085 H         1 <0>         0.1717
@<TRIPOS>BOND
     1    1    6 ar
     2    1    2 ar
     3    1   20 1
     4    2   18 1
     5    2    3 ar
     6    3    4 ar
     7    3   13 1
     8    4    5 ar
     9    4   21 1
    10    5    6 ar
    11    5   10 1
    12    6    7 1
    13    7    8 2
    14    7    9 1
    15   10   11 2
    16   10   12 1
    17   13   14 2
    18   14   15 1
    19   14   16 1
    20   16   17 2
    21   16   18 am
    22   18   19 1
@<TRIPOS>MOLECULE
ZINC18118278
   22    23     0     0     0
SMALL
USER_CHARGES

@<TRIPOS>ATOM
      1 C1          0.0382    1.2610    0.5152 C.ar      1 <0>        -0.0552
      2 C2          0.8758    2.0183   -0.2964 C.ar      1 <0>         0.1719
      3 C3          2.0393    1.4471   -0.8145 C.ar      1 <0>         0.1720
      4 C4          2.3510    0.1254   -0.5146 C.ar      1 <0>        -0.0553
      5 C5          1.5125   -0.6159    0.2921 C.ar      1 <0>         0.0166
      6 C6          0.3581   -0.0491    0.8060 C.ar      1 <0>         0.0165
      7 N1         -0.5357   -0.8520    1.6707 N.pl3     1 <0>         0.0206
      8 O1         -1.7351   -0.7324    1.5766 O.2       1 <0>        -0.1120
      9 O2         -0.0664   -1.6272    2.4709 O.3       1 <0>        -0.1151
     10 N2          1.8476   -2.0224    0.6091 N.pl3     1 <0>         0.0206
     11 O3          2.9970   -2.3396    0.8090 O.2       1 <0>        -0.1120
     12 O4          0.9720   -2.8539    0.6680 O.3       1 <0>        -0.1151
     13 N3          2.8903    2.1887   -1.6291 N.am      1 <0>        -0.6303
     14 C7          2.5958    3.4709   -1.9250 C.2       1 <0>         0.5137
     15 C8          1.3528    4.0814   -1.3711 C.2       1 <0>         0.5137
     16 N4          0.5461    3.3396   -0.5854 N.am      1 <0>        -0.6303
     17 O5          1.0696    5.2348   -1.6257 O.2       1 <0>        -0.4318
     18 O6          3.3354    4.1221   -2.6351 O.2       1 <0>        -0.4318
     19 H1         -0.8610    1.7001    0.9216 H         1 <0>         0.1865
     20 H2          3.2498   -0.3211   -0.9137 H         1 <0>         0.1866
     21 H3          3.6965    1.7826   -1.9842 H         1 <0>         0.4351
     22 H4         -0.2650    3.7271   -0.2210 H         1 <0>         0.4351
@<TRIPOS>BOND
     1    1    6 ar
     2    1    2 ar
     3    1   19 1
     4    2   16 1
     5    2    3 ar
     6    3    4 ar
     7    3   13 1
     8    4    5 ar
     9    4   20 1
    10    5    6 ar
    11    5   10 1
    12    6    7 1
    13    7    8 2
    14    7    9 1
    15   10   11 2
    16   10   12 1
    17   13   14 am
    18   13   21 1
    19   14   15 1
    20   14   18 2
    21   15   16 am
    22   15   17 2
    23   16   22 1
@<TRIPOS>MOLECULE
ZINC06092461
   45    47     0     0     0
SMALL
USER_CHARGES
3-[1-(1-piperidyl)cyclohexyl]phenol
@<TRIPOS>ATOM
      1 C1          1.1504    1.7752    0.0622 C.ar      1 <0>        -0.0815
      2 C2          1.1385    3.1566   -0.0008 C.ar      1 <0>        -0.1768
      3 C3         -0.0559    3.8452    0.1007 C.ar      1 <0>        -0.0929
      4 C4         -1.2411    3.1545    0.2658 C.ar      1 <0>        -0.1219
      5 C5         -1.2325    1.7686    0.3231 C.ar      1 <0>         0.1336
      6 C6         -0.0318    1.0800    0.2268 C.ar      1 <0>        -0.1283
      7 O1         -2.3976    1.0866    0.4794 O.3       1 <0>        -0.4925
      8 C7         -0.0652    5.3506    0.0316 C.3       1 <0>         0.1193
      9 C8         -0.9064    5.9088    1.1812 C.3       1 <0>        -0.1365
     10 C9         -0.9158    7.4371    1.1111 C.3       1 <0>        -0.1337
     11 C10        -1.5166    7.8827   -0.2236 C.3       1 <0>        -0.1324
     12 C11        -0.6754    7.3246   -1.3733 C.3       1 <0>        -0.1364
     13 C12        -0.6660    5.7962   -1.3031 C.3       1 <0>        -0.1360
     14 C13         2.0692    5.5858   -1.0864 C.3       1 <0>        -0.0362
     15 C14         3.4451    6.2493   -0.9928 C.3       1 <0>        -0.1451
     16 C15         4.1924    5.6941    0.2228 C.3       1 <0>        -0.1400
     17 C16         3.3585    5.9437    1.4825 C.3       1 <0>        -0.1446
     18 C17         1.9851    5.2891    1.3172 C.3       1 <0>        -0.0405
     19 H1          2.0847    1.2394   -0.0176 H         1 <0>         0.1406
     20 H2          2.0639    3.6983   -0.1291 H         1 <0>         0.1454
     21 H3         -2.1739    3.6930    0.3454 H         1 <0>         0.1399
     22 H4         -0.0220    0.0012    0.2760 H         1 <0>         0.1422
     23 H5         -2.6410    0.9301    1.4021 H         1 <0>         0.4029
     24 H6         -1.9270    5.5350    1.0994 H         1 <0>         0.1121
     25 H7         -0.4784    5.5913    2.1321 H         1 <0>         0.0902
     26 H8          0.1048    7.8109    1.1929 H         1 <0>         0.0559
     27 H9         -1.5151    7.8348    1.9301 H         1 <0>         0.0959
     28 H10        -1.5234    8.9715   -0.2736 H         1 <0>         0.0824
     29 H11        -2.5373    7.5089   -0.3054 H         1 <0>         0.0811
     30 H12         0.3452    7.6983   -1.2915 H         1 <0>         0.0576
     31 H13        -1.1035    7.6420   -2.3241 H         1 <0>         0.0948
     32 H14        -0.0667    5.3986   -2.1222 H         1 <0>         0.0924
     33 H15        -1.6866    5.4224   -1.3849 H         1 <0>         0.1114
     34 H16         2.1924    4.5098   -1.2092 H         1 <0>         0.1453
     35 H17         1.5288    5.9894   -1.9427 H         1 <0>         0.1343
     36 H18         3.3228    7.3269   -0.8838 H         1 <0>         0.0866
     37 H19         4.0139    6.0367   -1.8980 H         1 <0>         0.1133
     38 H20         5.1557    6.1952    0.3184 H         1 <0>         0.0961
     39 H21         4.3501    4.6229    0.0967 H         1 <0>         0.0813
     40 H22         3.2349    7.0165    1.6304 H         1 <0>         0.0852
     41 H23         3.8655    5.5127    2.3459 H         1 <0>         0.1125
     42 H24         1.3838    5.4771    2.2066 H         1 <0>         0.1276
     43 H25         2.1089    4.2145    1.1831 H         1 <0>         0.1549
     44 N1          1.3079    5.8840    0.1455 N.4       1 <0>        -0.3834
     45 H26         1.2608    6.9022    0.2696 H         1 <0>         0.4240
@<TRIPOS>BOND
     1    1    6 ar
     2    1    2 ar
     3    1   19 1
     4    2    3 ar
     5    2   20 1
     6    3    4 ar
     7    3    8 1
     8    4    5 ar
     9    4   21 1
    10    5    6 ar
    11    5    7 1
    12    6   22 1
    13    7   23 1
    14    8   13 1
    15    8    9 1
    16    8   44 1
    17    9   10 1
    18    9   24 1
    19    9   25 1
    20   10   11 1
    21   10   26 1
    22   10   27 1
    23   11   12 1
    24   11   28 1
    25   11   29 1
    26   12   13 1
    27   12   30 1
    28   12   31 1
    29   13   32 1
    30   13   33 1
    31   14   15 1
    32   14   34 1
    33   14   35 1
    34   14   44 1
    35   15   16 1
    36   15   36 1
    37   15   37 1
    38   16   17 1
    39   16   38 1
    40   16   39 1
    41   17   18 1
    42   17   40 1
    43   17   41 1
    44   18   42 1
    45   18   43 1
    46   18   44 1
    47   44   45 1
@<TRIPOS>MOLECULE
ZINC00005936
   50    52     0     0     0
SMALL
USER_CHARGES
1-[2-hydroxy-2-(4-hydroxyphenyl)-1-methyl-ethyl]-4-phenyl-piperidin-4-ol
@<TRIPOS>ATOM
      1 C1         -1.7773    1.2090   -4.4603 C.3       1 <0>        -0.1747
      2 C2         -2.1841   -0.1251   -3.8314 C.3       1 <0>         0.0014
      3 H1         -3.2637   -0.1421   -3.6818 H         1 <0>         0.1463
      4 C3         -1.7799   -1.2714   -4.7607 C.3       1 <0>         0.1378
      5 H2         -2.2595   -1.1392   -5.7305 H         1 <0>         0.1525
      6 C4         -2.2153   -2.5829   -4.1595 C.ar      1 <0>        -0.1674
      7 C5         -1.4557   -3.1727   -3.1661 C.ar      1 <0>        -0.1394
      8 C6         -1.8557   -4.3721   -2.6094 C.ar      1 <0>        -0.1258
      9 C7         -3.0144   -4.9906   -3.0562 C.ar      1 <0>         0.1334
     10 C8         -3.7718   -4.3995   -4.0570 C.ar      1 <0>        -0.1261
     11 C9         -3.3707   -3.1971   -4.6062 C.ar      1 <0>        -0.0728
     12 O1         -3.4066   -6.1737   -2.5146 O.3       1 <0>        -0.4946
     13 O2         -0.3606   -1.2716   -4.9273 O.3       1 <0>        -0.5323
     14 C10        -2.2828    0.3446   -1.4586 C.3       1 <0>         0.0001
     15 C11        -1.6261    0.0367   -0.1110 C.3       1 <0>        -0.1339
     16 C12        -0.1921    0.5735   -0.1131 C.3       1 <0>         0.1764
     17 C13         0.5809   -0.0587   -1.2738 C.3       1 <0>        -0.1731
     18 C14        -0.1411    0.2518   -2.5885 C.3       1 <0>        -0.0205
     19 C15         0.4791    0.2222    1.1896 C.ar      1 <0>        -0.1288
     20 C16         0.1070   -0.9205    1.8727 C.ar      1 <0>        -0.1150
     21 C17         0.7261   -1.2454    3.0652 C.ar      1 <0>        -0.1122
     22 C18         1.7099   -0.4220    3.5799 C.ar      1 <0>        -0.1056
     23 C19         2.0784    0.7234    2.8995 C.ar      1 <0>        -0.1096
     24 C20         1.4630    1.0455    1.7043 C.ar      1 <0>        -0.1065
     25 O3         -0.2140    1.9936   -0.2712 O.3       1 <0>        -0.5476
     26 H3         -2.0653    2.0256   -3.7982 H         1 <0>         0.0834
     27 H4         -0.6977    1.2260   -4.6098 H         1 <0>         0.0904
     28 H5         -2.2790    1.3258   -5.4208 H         1 <0>         0.1059
     29 H6         -0.5511   -2.6934   -2.8222 H         1 <0>         0.1186
     30 H7         -1.2646   -4.8301   -1.8301 H         1 <0>         0.1427
     31 H8         -4.6740   -4.8793   -4.4068 H         1 <0>         0.1447
     32 H9         -3.9600   -2.7365   -5.3853 H         1 <0>         0.1416
     33 H10        -3.0524   -6.9507   -2.9685 H         1 <0>         0.4056
     34 H11         0.1262   -1.5854   -4.1529 H         1 <0>         0.3706
     35 H12        -3.2993   -0.0490   -1.4655 H         1 <0>         0.1292
     36 H13        -2.3102    1.4235   -1.6112 H         1 <0>         0.1415
     37 H14        -1.6108   -1.0414    0.0486 H         1 <0>         0.1012
     38 H15        -2.1925    0.5149    0.6882 H         1 <0>         0.1243
     39 H16         1.5902    0.3518   -1.3054 H         1 <0>         0.1200
     40 H17         0.6309   -1.1383   -1.1326 H         1 <0>         0.0958
     41 H18         0.3980   -0.2091   -3.4162 H         1 <0>         0.1380
     42 H19        -0.1785    1.3311   -2.7359 H         1 <0>         0.1456
     43 H20        -0.6648   -1.5615    1.4728 H         1 <0>         0.1223
     44 H21         0.4379   -2.1401    3.5970 H         1 <0>         0.1291
     45 H22         2.1905   -0.6735    4.5139 H         1 <0>         0.1299
     46 H23         2.8469    1.3669    3.3018 H         1 <0>         0.1302
     47 H24         1.7507    1.9407    1.1729 H         1 <0>         0.1227
     48 H25         0.6627    2.4016   -0.2833 H         1 <0>         0.3903
     49 N1         -1.5067   -0.3121   -2.5317 N.4       1 <0>        -0.3997
     50 H26        -1.4439   -1.3169   -2.3301 H         1 <0>         0.4142
@<TRIPOS>BOND
     1    1    2 1
     2    1   26 1
     3    1   27 1
     4    1   28 1
     5    2    3 1
     6    2    4 1
     7    2   49 1
     8    4    5 1
     9    4    6 1
    10    4   13 1
    11    6   11 ar
    12    6    7 ar
    13    7    8 ar
    14    7   29 1
    15    8    9 ar
    16    8   30 1
    17    9   10 ar
    18    9   12 1
    19   10   11 ar
    20   10   31 1
    21   11   32 1
    22   12   33 1
    23   13   34 1
    24   14   15 1
    25   14   35 1
    26   14   36 1
    27   14   49 1
    28   15   16 1
    29   15   37 1
    30   15   38 1
    31   16   17 1
    32   16   19 1
    33   16   25 1
    34   17   18 1
    35   17   39 1
    36   17   40 1
    37   18   41 1
    38   18   42 1
    39   18   49 1
    40   19   24 ar
    41   19   20 ar
    42   20   21 ar
    43   20   43 1
    44   21   22 ar
    45   21   44 1
    46   22   23 ar
    47   22   45 1
    48   23   24 ar
    49   23   46 1
    50   24   47 1
    51   25   48 1
    52   49   50 1
@<TRIPOS>MOLECULE
ZINC02557962
   50    52     0     0     0
SMALL
USER_CHARGES

@<TRIPOS>ATOM
      1 C1         -0.0167    1.3781    0.0096 C.ar      1 <0>        -0.1174
      2 C2          1.1709    2.0855    0.0021 C.ar      1 <0>        -0.1161
      3 C3          2.3773    1.4107   -0.0130 C.ar      1 <0>        -0.1176
      4 C4          2.3960    0.0285   -0.0201 C.ar      1 <0>        -0.0952
      5 C5          1.2084   -0.6789   -0.0117 C.ar      1 <0>        -0.1175
      6 C6          0.0021   -0.0041    0.0020 C.ar      1 <0>        -0.1159
      7 C7          3.7112   -0.7071   -0.0376 C.3       1 <0>        -0.0781
      8 C8          4.1714   -0.9633    1.3989 C.3       1 <0>        -0.1117
      9 C9          5.5066   -1.7102    1.3812 C.3       1 <0>        -0.1496
     10 C10         5.9667   -1.9663    2.8177 C.3       1 <0>        -0.0103
     11 N1          7.2487   -2.6834    2.8007 N.4       1 <0>        -0.3835
     12 C11         8.2788   -1.8269    2.2009 C.3       1 <0>        -0.0110
     13 C12         9.5972   -2.5980    2.1066 C.3       1 <0>        -0.1394
     14 C13        10.0368   -3.0204    3.5114 C.3       1 <0>        -0.0537
     15 C14         8.9234   -3.8512    4.1558 C.3       1 <0>        -0.1399
     16 C15         7.6300   -3.0337    4.1741 C.3       1 <0>        -0.0059
     17 C16        11.2933   -3.8472    3.4189 C.ar      1 <0>        -0.0975
     18 C17        11.2936   -5.0257    2.6964 C.ar      1 <0>        -0.1167
     19 C18        12.4462   -5.7841    2.6115 C.ar      1 <0>        -0.1146
     20 C19        13.5986   -5.3638    3.2489 C.ar      1 <0>        -0.1098
     21 C20        13.5986   -4.1849    3.9707 C.ar      1 <0>        -0.1125
     22 C21        12.4471   -3.4243    4.0519 C.ar      1 <0>        -0.1100
     23 H1         -0.9591    1.9053    0.0259 H         1 <0>         0.1251
     24 H2          1.1563    3.1654    0.0076 H         1 <0>         0.1246
     25 H3          3.3051    1.9634   -0.0196 H         1 <0>         0.1201
     26 H4          1.2231   -1.7588   -0.0176 H         1 <0>         0.1202
     27 H5         -0.9258   -0.5567    0.0082 H         1 <0>         0.1247
     28 H6          3.5884   -1.6586   -0.5549 H         1 <0>         0.0755
     29 H7          4.4573   -0.1052   -0.5563 H         1 <0>         0.0752
     30 H8          4.2941   -0.0118    1.9163 H         1 <0>         0.0754
     31 H9          3.4252   -1.5652    1.9176 H         1 <0>         0.0757
     32 H10         5.3838   -2.6617    0.8639 H         1 <0>         0.0876
     33 H11         6.2527   -1.1082    0.8625 H         1 <0>         0.0878
     34 H12         6.0895   -1.0148    3.3350 H         1 <0>         0.1296
     35 H13         5.2206   -2.5682    3.3364 H         1 <0>         0.1311
     36 H14         7.9631   -1.5245    1.2024 H         1 <0>         0.1331
     37 H15         8.4200   -0.9411    2.8202 H         1 <0>         0.1294
     38 H16         9.4572   -3.4839    1.4872 H         1 <0>         0.0897
     39 H17        10.3612   -1.9597    1.6627 H         1 <0>         0.1137
     40 H18        10.2263   -2.1336    4.1161 H         1 <0>         0.0954
     41 H19         8.7694   -4.7632    3.5789 H         1 <0>         0.0898
     42 H20         9.2057   -4.1088    5.1766 H         1 <0>         0.1141
     43 H21         7.7850   -2.1222    4.7514 H         1 <0>         0.1292
     44 H22         6.8352   -3.6222    4.6325 H         1 <0>         0.1316
     45 H23        10.3933   -5.3540    2.1984 H         1 <0>         0.1175
     46 H24        12.4463   -6.7052    2.0476 H         1 <0>         0.1265
     47 H25        14.4989   -5.9567    3.1832 H         1 <0>         0.1278
     48 H26        14.4988   -3.8567    4.4689 H         1 <0>         0.1280
     49 H27        12.4481   -2.5013    4.6128 H         1 <0>         0.1236
     50 H28         7.1544   -3.5260    2.2536 H         1 <0>         0.4219
@<TRIPOS>BOND
     1    1    6 ar
     2    1    2 ar
     3    1   23 1
     4    2    3 ar
     5    2   24 1
     6    3    4 ar
     7    3   25 1
     8    4    5 ar
     9    4    7 1
    10    5    6 ar
    11    5   26 1
    12    6   27 1
    13    7    8 1
    14    7   28 1
    15    7   29 1
    16    8    9 1
    17    8   30 1
    18    8   31 1
    19    9   10 1
    20    9   32 1
    21    9   33 1
    22   10   11 1
    23   10   34 1
    24   10   35 1
    25   11   16 1
    26   11   12 1
    27   11   50 1
    28   12   13 1
    29   12   36 1
    30   12   37 1
    31   13   14 1
    32   13   38 1
    33   13   39 1
    34   14   15 1
    35   14   17 1
    36   14   40 1
    37   15   16 1
    38   15   41 1
    39   15   42 1
    40   16   43 1
    41   16   44 1
    42   17   22 ar
    43   17   18 ar
    44   18   19 ar
    45   18   45 1
    46   19   20 ar
    47   19   46 1
    48   20   21 ar
    49   20   47 1
    50   21   22 ar
    51   21   48 1
    52   22   49 1
@<TRIPOS>MOLECULE
ZINC00538633
   52    55     0     0     0
SMALL
USER_CHARGES
6-[(S)-2-[4-[(4-fluorophenyl)methyl]-1-piperidyl]ethylsulfinyl]-3H-1,3-benzoxazol-2-one
@<TRIPOS>ATOM
      1 C1         -0.8164    6.3912   -8.5652 C.ar      1 <0>        -0.0847
      2 C2          0.0023    6.1344   -9.6486 C.ar      1 <0>        -0.1488
      3 C3          0.0486    4.8628  -10.1945 C.ar      1 <0>         0.1050
      4 C4         -0.7209    3.8485   -9.6504 C.ar      1 <0>        -0.1515
      5 C5         -1.5342    4.1062   -8.5632 C.ar      1 <0>        -0.0912
      6 C6         -1.5800    5.3763   -8.0192 C.ar      1 <0>        -0.1074
      7 C7         -2.4676    5.6563   -6.8340 C.3       1 <0>        -0.0726
      8 C8         -1.6864    5.4084   -5.5420 C.3       1 <0>        -0.0961
      9 C9         -2.5449    5.8110   -4.3397 C.3       1 <0>        -0.1435
     10 C10        -1.7816    5.5057   -3.0489 C.3       1 <0>        -0.0033
     11 C11        -0.6057    3.6718   -4.1102 C.3       1 <0>        -0.0056
     12 C12        -1.3339    3.9224   -5.4327 C.3       1 <0>        -0.1470
     13 C13        -0.8581    3.7179   -1.7030 C.3       1 <0>         0.0177
     14 C14        -0.7755    2.1952   -1.5793 C.3       1 <0>        -0.5255
     15 S1         -0.0218    1.7577    0.0117 S.o       1 <0>         1.3861
     16 O1          1.3521    2.1202    0.0005 O.2       1 <0>        -0.8208
     17 C15         0.0021   -0.0041    0.0020 C.ar      1 <0>        -0.4726
     18 C16        -1.0728   -0.7103    0.5134 C.ar      1 <0>        -0.0169
     19 C17        -1.0638   -2.0916    0.5046 C.ar      1 <0>        -0.1157
     20 C18         0.0306   -2.7705   -0.0079 C.ar      1 <0>         0.1202
     21 C19         1.1164   -2.0598   -0.5186 C.ar      1 <0>         0.0225
     22 C20         1.0958   -0.6738   -0.5107 C.ar      1 <0>        -0.0080
     23 O2          2.0277   -2.9684   -0.9449 O.3       1 <0>        -0.2328
     24 C21         1.5554   -4.2048   -0.7213 C.2       1 <0>         0.6399
     25 O3          2.1364   -5.2380   -0.9924 O.2       1 <0>        -0.4635
     26 N1          0.3375   -4.1235   -0.1499 N.am      1 <0>        -0.6467
     27 H1         -0.2232   -4.8697    0.1141 H         1 <0>         0.4504
     28 F1          0.8437    4.6120  -11.2576 F         1 <0>        -0.1338
     29 H2         -0.8565    7.3842   -8.1424 H         1 <0>         0.1334
     30 H3          0.6024    6.9262  -10.0720 H         1 <0>         0.1395
     31 H4         -0.6859    2.8563  -10.0756 H         1 <0>         0.1382
     32 H5         -2.1345    3.3152   -8.1385 H         1 <0>         0.1304
     33 H6         -3.3352    4.9972   -6.8661 H         1 <0>         0.0809
     34 H7         -2.7985    6.6943   -6.8650 H         1 <0>         0.0861
     35 H8         -0.7711    6.0002   -5.5505 H         1 <0>         0.0915
     36 H9         -3.4774    5.2468   -4.3532 H         1 <0>         0.0904
     37 H10        -2.7635    6.8777   -4.3895 H         1 <0>         0.1144
     38 H11        -2.3959    5.7780   -2.1906 H         1 <0>         0.1327
     39 H12        -0.8558    6.0807   -3.0299 H         1 <0>         0.1304
     40 H13         0.3146    4.2554   -4.0860 H         1 <0>         0.1296
     41 H14        -0.3659    2.6121   -4.0227 H         1 <0>         0.1262
     42 H15        -2.2474    3.3285   -5.4633 H         1 <0>         0.0893
     43 H16        -0.6879    3.6395   -6.2638 H         1 <0>         0.1137
     44 H17        -1.4667    4.1159   -0.8910 H         1 <0>         0.1419
     45 H18         0.1445    4.1419   -1.6471 H         1 <0>         0.1328
     46 H19        -0.1669    1.7972   -2.3913 H         1 <0>         0.1118
     47 H20        -1.7781    1.7712   -1.6352 H         1 <0>         0.1406
     48 H21        -1.9228   -0.1799    0.9168 H         1 <0>         0.1583
     49 H22        -1.9051   -2.6410    0.9003 H         1 <0>         0.1507
     50 H23         1.9341   -0.1184   -0.9045 H         1 <0>         0.1468
     51 N2         -1.4941    4.0567   -2.9928 N.4       1 <0>        -0.3899
     52 H24        -2.3768    3.5387   -3.0756 H         1 <0>         0.4269
@<TRIPOS>BOND
     1    1    6 ar
     2    1    2 ar
     3    1   29 1
     4    2    3 ar
     5    2   30 1
     6    3    4 ar
     7    3   28 1
     8    4    5 ar
     9    4   31 1
    10    5    6 ar
    11    5   32 1
    12    6    7 1
    13    7    8 1
    14    7   33 1
    15    7   34 1
    16    8   12 1
    17    8    9 1
    18    8   35 1
    19    9   10 1
    20    9   36 1
    21    9   37 1
    22   10   38 1
    23   10   39 1
    24   10   51 1
    25   11   12 1
    26   11   40 1
    27   11   41 1
    28   11   51 1
    29   12   42 1
    30   12   43 1
    31   13   14 1
    32   13   44 1
    33   13   45 1
    34   13   51 1
    35   14   15 1
    36   14   46 1
    37   14   47 1
    38   15   16 2
    39   15   17 1
    40   17   22 ar
    41   17   18 ar
    42   18   19 ar
    43   18   48 1
    44   19   20 ar
    45   19   49 1
    46   20   26 1
    47   20   21 ar
    48   21   22 ar
    49   21   23 1
    50   22   50 1
    51   23   24 1
    52   24   25 2
    53   24   26 am
    54   26   27 1
    55   51   52 1
@<TRIPOS>MOLECULE
ZINC03982657
   52    55     0     0     0
SMALL
USER_CHARGES
6-[2-[4-[(4-fluorophenyl)methyl]-1-piperidyl]ethylsulfinyl]-3H-benzooxazol-2-one
@<TRIPOS>ATOM
      1 C1         -4.9927   10.6525   -7.9960 C.ar      1 <0>        -0.0845
      2 C2         -3.9185   11.2409   -8.6361 C.ar      1 <0>        -0.1487
      3 C3         -2.8893   10.4545   -9.1253 C.ar      1 <0>         0.1050
      4 C4         -2.9347    9.0797   -8.9671 C.ar      1 <0>        -0.1512
      5 C5         -4.0070    8.4940   -8.3213 C.ar      1 <0>        -0.0911
      6 C6         -5.0342    9.2802   -7.8337 C.ar      1 <0>        -0.1067
      7 C7         -6.2032    8.6403   -7.1301 C.3       1 <0>        -0.0736
      8 C8         -5.9073    8.5458   -5.6319 C.3       1 <0>        -0.0951
      9 C9         -7.1411    8.0115   -4.8993 C.3       1 <0>        -0.1444
     10 C10        -6.8198    7.8632   -3.4104 C.3       1 <0>        -0.0031
     11 C11        -4.4811    7.4552   -3.8968 C.3       1 <0>        -0.0061
     12 C12        -4.7326    7.5914   -5.4003 C.3       1 <0>        -0.1487
     13 C13        -5.4424    6.6658   -1.8200 C.3       1 <0>         0.0181
     14 C14        -4.4353    5.5214   -1.6894 C.3       1 <0>        -0.5243
     15 S1         -4.1293    5.1826    0.0662 S.o       1 <0>         1.3858
     16 O1         -5.2924    4.6098    0.6478 O.2       1 <0>        -0.8200
     17 C15        -2.9658    3.8595    0.0485 C.ar      1 <0>        -0.4735
     18 C16        -3.4125    2.5495    0.0462 C.ar      1 <0>        -0.0295
     19 C17        -2.5066    1.5068    0.0333 C.ar      1 <0>        -0.1138
     20 C18        -1.1468    1.7752    0.0164 C.ar      1 <0>         0.1198
     21 C19        -0.6956    3.0948    0.0240 C.ar      1 <0>         0.0212
     22 C20        -1.6123    4.1345    0.0374 C.ar      1 <0>         0.0057
     23 O2          0.6594    3.0571    0.0114 O.3       1 <0>        -0.2298
     24 C21         1.0648    1.7776    0.0014 C.2       1 <0>         0.6407
     25 O3          2.2232    1.4081   -0.0113 O.2       1 <0>        -0.4633
     26 N1         -0.0111    0.9658    0.0074 N.am      1 <0>        -0.6476
     27 H1          0.0021   -0.0041    0.0020 H         1 <0>         0.4500
     28 F1         -1.8417   11.0281   -9.7568 F         1 <0>        -0.1339
     29 H2         -5.7981   11.2652   -7.6188 H         1 <0>         0.1333
     30 H3         -3.8840   12.3134   -8.7585 H         1 <0>         0.1394
     31 H4         -2.1326    8.4653   -9.3486 H         1 <0>         0.1382
     32 H5         -4.0426    7.4217   -8.1978 H         1 <0>         0.1302
     33 H6         -6.3661    7.6403   -7.5320 H         1 <0>         0.0801
     34 H7         -7.0967    9.2448   -7.2865 H         1 <0>         0.0857
     35 H8         -5.6549    9.5341   -5.2475 H         1 <0>         0.0929
     36 H9         -7.4164    7.0404   -5.3107 H         1 <0>         0.0885
     37 H10        -7.9694    8.7088   -5.0252 H         1 <0>         0.1142
     38 H11        -7.6917    7.4694   -2.8882 H         1 <0>         0.1291
     39 H12        -6.5579    8.8371   -2.9968 H         1 <0>         0.1332
     40 H13        -4.2303    8.4310   -3.4808 H         1 <0>         0.1337
     41 H14        -3.6545    6.7651   -3.7279 H         1 <0>         0.1299
     42 H15        -4.9700    6.6136   -5.8195 H         1 <0>         0.0875
     43 H16        -3.8403    7.9881   -5.8846 H         1 <0>         0.1153
     44 H17        -6.3774    6.3840   -1.3359 H         1 <0>         0.1315
     45 H18        -5.0408    7.5594   -1.3421 H         1 <0>         0.1430
     46 H19        -3.5003    5.8032   -2.1734 H         1 <0>         0.1393
     47 H20        -4.8369    4.6278   -2.1672 H         1 <0>         0.1122
     48 H21        -4.4723    2.3419    0.0550 H         1 <0>         0.1456
     49 H22        -2.8569    0.4852    0.0319 H         1 <0>         0.1459
     50 H23        -1.2685    5.1584    0.0389 H         1 <0>         0.1596
     51 N2         -5.6975    6.9138   -3.2540 N.4       1 <0>        -0.3917
     52 H24        -5.9465    6.0264   -3.7066 H         1 <0>         0.4257
@<TRIPOS>BOND
     1    1    6 ar
     2    1    2 ar
     3    1   29 1
     4    2    3 ar
     5    2   30 1
     6    3    4 ar
     7    3   28 1
     8    4    5 ar
     9    4   31 1
    10    5    6 ar
    11    5   32 1
    12    6    7 1
    13    7    8 1
    14    7   33 1
    15    7   34 1
    16    8   12 1
    17    8    9 1
    18    8   35 1
    19    9   10 1
    20    9   36 1
    21    9   37 1
    22   10   38 1
    23   10   39 1
    24   10   51 1
    25   11   12 1
    26   11   40 1
    27   11   41 1
    28   11   51 1
    29   12   42 1
    30   12   43 1
    31   13   14 1
    32   13   44 1
    33   13   45 1
    34   13   51 1
    35   14   15 1
    36   14   46 1
    37   14   47 1
    38   15   16 2
    39   15   17 1
    40   17   22 ar
    41   17   18 ar
    42   18   19 ar
    43   18   48 1
    44   19   20 ar
    45   19   49 1
    46   20   26 1
    47   20   21 ar
    48   21   22 ar
    49   21   23 1
    50   22   50 1
    51   23   24 1
    52   24   25 2
    53   24   26 am
    54   26   27 1
    55   51   52 1
@<TRIPOS>MOLECULE
ZINC22028288
   32    32     0     0     0
SMALL
USER_CHARGES

@<TRIPOS>ATOM
      1 C1         -0.0178    1.4646    0.0101 C.3       1 <0>        -0.0021
      2 C2          1.4177    1.9945   -0.0008 C.3       1 <0>         0.0195
      3 N1          2.1091    1.5033   -1.2012 N.3       1 <0>        -0.5387
      4 C3          2.1152    0.0340   -1.2356 C.3       1 <0>         0.0516
      5 C4          0.6738   -0.4797   -1.2145 C.3       1 <0>        -0.0413
      6 H1          0.1431   -0.1087   -2.0913 H         1 <0>         0.1387
      7 N2          0.0021   -0.0041    0.0020 N.4       1 <0>        -0.4837
      8 C5          0.6774   -1.9866   -1.2299 C.2       1 <0>         0.4937
      9 O1          0.3358   -2.6072   -0.2376 O.co2     1 <0>        -0.6772
     10 O2          1.0218   -2.5852   -2.2347 O.co2     1 <0>        -0.6364
     11 C6          3.4755    2.0374   -1.2772 C.3       1 <0>         0.0599
     12 C7          3.4202    3.5524   -1.4833 C.3       1 <0>        -0.0877
     13 C8          4.8433    4.1086   -1.5626 C.3       1 <0>        -0.7296
     14 P1          4.7774    5.9138   -1.8081 P.3       1 <0>         2.2588
     15 O3          3.9209    6.2332   -3.0537 O.2       1 <0>        -1.0956
     16 O4          4.1468    6.5799   -0.5649 O.3       1 <0>        -1.0987
     17 O5          6.2688    6.4810   -2.0225 O.3       1 <0>        -0.9059
     18 H2         -0.5281    1.8161    0.9069 H         1 <0>         0.1295
     19 H3         -0.5451    1.8257   -0.8730 H         1 <0>         0.1332
     20 H4          1.4031    3.0843   -0.0098 H         1 <0>         0.1256
     21 H5          1.9412    1.6448    0.8891 H         1 <0>         0.0535
     22 H6          2.6093   -0.3064   -2.1455 H         1 <0>         0.1178
     23 H7          2.6501   -0.3479   -0.3661 H         1 <0>         0.0497
     24 H8          0.5002   -0.3379    0.8135 H         1 <0>         0.4219
     25 H9          4.0043    1.8158   -0.3502 H         1 <0>         0.0346
     26 H10         3.9999    1.5758   -2.1139 H         1 <0>         0.0787
     27 H11         2.8913    3.7739   -2.4103 H         1 <0>         0.0847
     28 H12         2.8957    4.0140   -0.6466 H         1 <0>         0.0686
     29 H13         5.3721    3.8871   -0.6355 H         1 <0>         0.0680
     30 H14         5.3677    3.6470   -2.3992 H         1 <0>         0.0706
     31 H15         6.3100    7.4374   -2.1595 H         1 <0>         0.4126
     32 H16        -0.9444   -0.3532    0.0217 H         1 <0>         0.4258
@<TRIPOS>BOND
     1    1    7 1
     2    1    2 1
     3    1   18 1
     4    1   19 1
     5    2    3 1
     6    2   20 1
     7    2   21 1
     8    3    4 1
     9    3   11 1
    10    4    5 1
    11    4   22 1
    12    4   23 1
    13    5    6 1
    14    5    7 1
    15    5    8 1
    16    7   24 1
    17    7   32 1
    18    8    9 2
    19    8   10 1
    20   11   12 1
    21   11   25 1
    22   11   26 1
    23   12   13 1
    24   12   27 1
    25   12   28 1
    26   13   14 1
    27   13   29 1
    28   13   30 1
    29   14   15 2
    30   14   16 1
    31   14   17 1
    32   17   31 1
@<TRIPOS>MOLECULE
ZINC22028288
   31    31     0     0     0
SMALL
USER_CHARGES

@<TRIPOS>ATOM
      1 C1         -0.0178    1.4646    0.0101 C.3       1 <0>        -0.0013
      2 C2          1.4177    1.9945   -0.0008 C.3       1 <0>         0.0193
      3 N1          2.1091    1.5033   -1.2012 N.3       1 <0>        -0.5378
      4 C3          2.1152    0.0340   -1.2356 C.3       1 <0>         0.0504
      5 C4          0.6738   -0.4797   -1.2145 C.3       1 <0>        -0.0405
      6 H1          0.1431   -0.1087   -2.0913 H         1 <0>         0.1377
      7 N2          0.0021   -0.0041    0.0020 N.4       1 <0>        -0.4825
      8 C5          0.6774   -1.9866   -1.2299 C.2       1 <0>         0.4958
      9 O1          0.3358   -2.6072   -0.2376 O.co2     1 <0>        -0.6821
     10 O2          1.0218   -2.5852   -2.2347 O.co2     1 <0>        -0.6392
     11 C6          3.4755    2.0374   -1.2772 C.3       1 <0>         0.0593
     12 C7          3.4202    3.5524   -1.4833 C.3       1 <0>        -0.0800
     13 C8          4.8433    4.1086   -1.5626 C.3       1 <0>        -0.7273
     14 P1          4.7774    5.9138   -1.8081 P.3       1 <0>         2.2121
     15 O3          3.9089    6.2377   -3.0711 O.2       1 <0>        -1.1806
     16 O4          4.1380    6.5893   -0.5474 O.3       1 <0>        -1.1837
     17 O5          6.2287    6.4657   -2.0167 O.3       1 <0>        -1.1866
     18 H2         -0.5281    1.8161    0.9069 H         1 <0>         0.1273
     19 H3         -0.5451    1.8257   -0.8730 H         1 <0>         0.1326
     20 H4          1.4031    3.0843   -0.0098 H         1 <0>         0.1290
     21 H5          1.9412    1.6448    0.8891 H         1 <0>         0.0510
     22 H6          2.6093   -0.3064   -2.1455 H         1 <0>         0.1156
     23 H7          2.6501   -0.3479   -0.3661 H         1 <0>         0.0460
     24 H8          0.5002   -0.3379    0.8135 H         1 <0>         0.4207
     25 H9          4.0043    1.8158   -0.3502 H         1 <0>         0.0297
     26 H10         3.9999    1.5758   -2.1139 H         1 <0>         0.0741
     27 H11         2.8913    3.7739   -2.4103 H         1 <0>         0.0737
     28 H12         2.8957    4.0140   -0.6466 H         1 <0>         0.0572
     29 H13         5.3721    3.8871   -0.6355 H         1 <0>         0.0419
     30 H14         5.3677    3.6470   -2.3992 H         1 <0>         0.0461
     31 H15        -0.9444   -0.3532    0.0217 H         1 <0>         0.4219
@<TRIPOS>BOND
     1    1    7 1
     2    1    2 1
     3    1   18 1
     4    1   19 1
     5    2    3 1
     6    2   20 1
     7    2   21 1
     8    3    4 1
     9    3   11 1
    10    4    5 1
    11    4   22 1
    12    4   23 1
    13    5    6 1
    14    5    7 1
    15    5    8 1
    16    7   24 1
    17    7   31 1
    18    8    9 2
    19    8   10 1
    20   11   12 1
    21   11   25 1
    22   11   26 1
    23   12   13 1
    24   12   27 1
    25   12   28 1
    26   13   14 1
    27   13   29 1
    28   13   30 1
    29   14   15 2
    30   14   16 1
    31   14   17 1
@<TRIPOS>MOLECULE
ZINC22033348
   32    32     0     0     0
SMALL
USER_CHARGES

@<TRIPOS>ATOM
      1 C1         -0.0178    1.4646    0.0101 C.3       1 <0>        -0.0020
      2 C2          1.4177    1.9945   -0.0008 C.3       1 <0>         0.0198
      3 N1          2.1318    1.4905    1.1809 N.3       1 <0>        -0.5385
      4 C3          2.1384    0.0209    1.1994 C.3       1 <0>         0.0499
      5 C4          0.6969   -0.4926    1.2004 C.3       1 <0>        -0.0402
      6 H1          0.1830   -0.1311    2.0910 H         1 <0>         0.1380
      7 N2          0.0021   -0.0041    0.0020 N.4       1 <0>        -0.4854
      8 C5          0.7006   -1.9996    1.1995 C.2       1 <0>         0.4915
      9 O1          0.7030   -2.6099    2.2550 O.co2     1 <0>        -0.6375
     10 O2          0.7011   -2.6086    0.1432 O.co2     1 <0>        -0.6728
     11 C6          3.4995    2.0239    1.2366 C.3       1 <0>         0.0598
     12 C7          3.4483    3.5366    1.4599 C.3       1 <0>        -0.0878
     13 C8          4.8727    4.0921    1.5180 C.3       1 <0>        -0.7296
     14 P1          4.8117    5.8945    1.7841 P.3       1 <0>         2.2588
     15 O3          3.9400    6.5476    0.6884 O.2       1 <0>        -1.0979
     16 O4          4.2010    6.1898    3.1722 O.3       1 <0>        -1.0962
     17 O5          6.3027    6.4980    1.7143 O.3       1 <0>        -0.9060
     18 H2         -0.5281    1.8161    0.9069 H         1 <0>         0.1335
     19 H3         -0.5451    1.8257   -0.8730 H         1 <0>         0.1295
     20 H4          1.9241    1.6544   -0.9041 H         1 <0>         0.0538
     21 H5          1.4034    3.0842    0.0203 H         1 <0>         0.1261
     22 H6          2.6566   -0.3516    0.3158 H         1 <0>         0.0531
     23 H7          2.6498   -0.3292    2.0960 H         1 <0>         0.1143
     24 H8         -0.9446   -0.3530   -0.0034 H         1 <0>         0.4239
     25 H9          4.0397    1.5534    2.0581 H         1 <0>         0.0785
     26 H10         4.0105    1.8123    0.2973 H         1 <0>         0.0348
     27 H11         2.9080    4.0071    0.6384 H         1 <0>         0.0717
     28 H12         2.9373    3.7481    2.3992 H         1 <0>         0.0818
     29 H13         5.4130    3.6216    2.3395 H         1 <0>         0.0721
     30 H14         5.3837    3.8805    0.5787 H         1 <0>         0.0665
     31 H15         6.3463    7.4548    1.8476 H         1 <0>         0.4126
     32 H16         0.4846   -0.3292   -0.8223 H         1 <0>         0.4236
@<TRIPOS>BOND
     1    1    7 1
     2    1    2 1
     3    1   18 1
     4    1   19 1
     5    2    3 1
     6    2   20 1
     7    2   21 1
     8    3    4 1
     9    3   11 1
    10    4    5 1
    11    4   22 1
    12    4   23 1
    13    5    6 1
    14    5    7 1
    15    5    8 1
    16    7   24 1
    17    7   32 1
    18    8    9 2
    19    8   10 1
    20   11   12 1
    21   11   25 1
    22   11   26 1
    23   12   13 1
    24   12   27 1
    25   12   28 1
    26   13   14 1
    27   13   29 1
    28   13   30 1
    29   14   15 2
    30   14   16 1
    31   14   17 1
    32   17   31 1
@<TRIPOS>MOLECULE
ZINC22033348
   31    31     0     0     0
SMALL
USER_CHARGES

@<TRIPOS>ATOM
      1 C1         -0.0178    1.4646    0.0101 C.3       1 <0>        -0.0011
      2 C2          1.4177    1.9945   -0.0008 C.3       1 <0>         0.0195
      3 N1          2.1318    1.4905    1.1809 N.3       1 <0>        -0.5376
      4 C3          2.1384    0.0209    1.1994 C.3       1 <0>         0.0487
      5 C4          0.6969   -0.4926    1.2004 C.3       1 <0>        -0.0393
      6 H1          0.1830   -0.1311    2.0910 H         1 <0>         0.1370
      7 N2          0.0021   -0.0041    0.0020 N.4       1 <0>        -0.4842
      8 C5          0.7006   -1.9996    1.1995 C.2       1 <0>         0.4938
      9 O1          0.7030   -2.6099    2.2550 O.co2     1 <0>        -0.6413
     10 O2          0.7011   -2.6086    0.1432 O.co2     1 <0>        -0.6768
     11 C6          3.4995    2.0239    1.2366 C.3       1 <0>         0.0592
     12 C7          3.4483    3.5366    1.4599 C.3       1 <0>        -0.0801
     13 C8          4.8727    4.0921    1.5180 C.3       1 <0>        -0.7273
     14 P1          4.8117    5.8945    1.7841 P.3       1 <0>         2.2124
     15 O3          3.9277    6.5568    0.6730 O.2       1 <0>        -1.1828
     16 O4          4.1924    6.1939    3.1916 O.3       1 <0>        -1.1815
     17 O5          6.2625    6.4818    1.7162 O.3       1 <0>        -1.1868
     18 H2         -0.5281    1.8161    0.9069 H         1 <0>         0.1328
     19 H3         -0.5451    1.8257   -0.8730 H         1 <0>         0.1274
     20 H4          1.9241    1.6544   -0.9041 H         1 <0>         0.0515
     21 H5          1.4034    3.0842    0.0203 H         1 <0>         0.1298
     22 H6          2.6566   -0.3516    0.3158 H         1 <0>         0.0496
     23 H7          2.6498   -0.3292    2.0960 H         1 <0>         0.1120
     24 H8         -0.9446   -0.3530   -0.0034 H         1 <0>         0.4198
     25 H9          4.0397    1.5534    2.0581 H         1 <0>         0.0736
     26 H10         4.0105    1.8123    0.2973 H         1 <0>         0.0302
     27 H11         2.9080    4.0071    0.6384 H         1 <0>         0.0611
     28 H12         2.9373    3.7481    2.3992 H         1 <0>         0.0701
     29 H13         5.4130    3.6216    2.3395 H         1 <0>         0.0460
     30 H14         5.3837    3.8805    0.5787 H         1 <0>         0.0421
     31 H15         0.4846   -0.3292   -0.8223 H         1 <0>         0.4224
@<TRIPOS>BOND
     1    1    7 1
     2    1    2 1
     3    1   18 1
     4    1   19 1
     5    2    3 1
     6    2   20 1
     7    2   21 1
     8    3    4 1
     9    3   11 1
    10    4    5 1
    11    4   22 1
    12    4   23 1
    13    5    6 1
    14    5    7 1
    15    5    8 1
    16    7   24 1
    17    7   31 1
    18    8    9 2
    19    8   10 1
    20   11   12 1
    21   11   25 1
    22   11   26 1
    23   12   13 1
    24   12   27 1
    25   12   28 1
    26   13   14 1
    27   13   29 1
    28   13   30 1
    29   14   15 2
    30   14   16 1
    31   14   17 1
@<TRIPOS>MOLECULE
ZINC29045652
   52    54     0     0     0
SMALL
USER_CHARGES
2-[(4-benzyl-1-piperidyl)methyl]-1-(4-nitrophenyl)prop-2-en-1-one
@<TRIPOS>ATOM
      1 C1          2.5379   -4.1824   -0.3801 C.2       1 <0>        -0.0120
      2 C2          2.5309   -2.8708   -0.1479 C.2       1 <0>        -0.2723
      3 C3          3.8240   -2.0970   -0.1568 C.3       1 <0>         0.0363
      4 N1          4.0471   -1.5315   -1.4941 N.4       1 <0>        -0.4136
      5 C4          4.2623   -2.5933   -2.4853 C.3       1 <0>        -0.0126
      6 C5          4.3456   -1.9780   -3.8841 C.3       1 <0>        -0.1470
      7 C6          5.5000   -0.9729   -3.9263 C.3       1 <0>        -0.0939
      8 C7          5.2761    0.0951   -2.8522 C.3       1 <0>        -0.1461
      9 C8          5.1659   -0.5804   -1.4833 C.3       1 <0>        -0.0107
     10 C9          5.5519   -0.3095   -5.3040 C.3       1 <0>        -0.0767
     11 C10         5.8940   -1.3425   -6.3465 C.ar      1 <0>        -0.0948
     12 C11         7.2154   -1.5826   -6.6741 C.ar      1 <0>        -0.1157
     13 C12         7.5294   -2.5333   -7.6273 C.ar      1 <0>        -0.1135
     14 C13         6.5216   -3.2372   -8.2596 C.ar      1 <0>        -0.1158
     15 C14         5.2001   -2.9938   -7.9354 C.ar      1 <0>        -0.1161
     16 C15         4.8862   -2.0461   -6.9791 C.ar      1 <0>        -0.1219
     17 C16         1.2619   -2.1782    0.1169 C.2       1 <0>         0.4239
     18 O1          0.2216   -2.8072    0.1517 O.2       1 <0>        -0.3992
     19 C17         1.2501   -0.7170    0.3411 C.ar      1 <0>        -0.1025
     20 C18         0.4741   -0.1708    1.3656 C.ar      1 <0>        -0.0591
     21 C19         0.4681    1.1933    1.5695 C.ar      1 <0>        -0.0359
     22 C20         1.2286    2.0202    0.7615 C.ar      1 <0>        -0.0151
     23 C21         1.9999    1.4857   -0.2555 C.ar      1 <0>        -0.0481
     24 C22         2.0152    0.1233   -0.4705 C.ar      1 <0>        -0.1241
     25 N2          1.2171    3.4832    0.9862 N.pl3     1 <0>         0.0144
     26 O2          0.5393    3.9567    1.8806 O.2       1 <0>        -0.1310
     27 O3          1.8855    4.2136    0.2768 O.3       1 <0>        -0.1390
     28 H1          1.5940   -4.7472   -0.3736 H         1 <0>         0.1474
     29 H2          3.4876   -4.7008   -0.5784 H         1 <0>         0.1403
     30 H3          3.7693   -1.2830    0.5810 H         1 <0>         0.1402
     31 H4          4.6556   -2.7696    0.1003 H         1 <0>         0.1461
     32 H5          5.2015   -3.1200   -2.2604 H         1 <0>         0.1310
     33 H6          3.4246   -3.3053   -2.4477 H         1 <0>         0.1262
     34 H7          4.5216   -2.7725   -4.6242 H         1 <0>         0.1191
     35 H8          3.4010   -1.4641   -4.1155 H         1 <0>         0.0868
     36 H9          6.4507   -1.4935   -3.7389 H         1 <0>         0.0937
     37 H10         6.1237    0.7962   -2.8499 H         1 <0>         0.1197
     38 H11         4.3473    0.6434   -3.0683 H         1 <0>         0.0884
     39 H12         4.9906    0.1832   -0.7112 H         1 <0>         0.1318
     40 H13         6.1008   -1.1165   -1.2631 H         1 <0>         0.1343
     41 H14         4.5719    0.1336   -5.5347 H         1 <0>         0.0790
     42 H15         6.3195    0.4784   -5.3029 H         1 <0>         0.0853
     43 H16         8.0025   -1.0297   -6.1831 H         1 <0>         0.1218
     44 H17         8.5619   -2.7237   -7.8803 H         1 <0>         0.1254
     45 H18         6.7668   -3.9776   -9.0066 H         1 <0>         0.1254
     46 H19         4.4127   -3.5437   -8.4294 H         1 <0>         0.1244
     47 H20         3.8537   -1.8557   -6.7261 H         1 <0>         0.1190
     48 H21        -0.1197   -0.8151    1.9971 H         1 <0>         0.1654
     49 H22        -0.1351    1.6175    2.3586 H         1 <0>         0.1732
     50 H23         2.5909    2.1367   -0.8826 H         1 <0>         0.1690
     51 H24         2.6179   -0.2926   -1.2643 H         1 <0>         0.1252
     52 H25         3.1410   -0.9799   -1.7852 H         1 <0>         0.4241
@<TRIPOS>BOND
     1    1    2 2
     2    1   28 1
     3    1   29 1
     4    2    3 1
     5    2   17 1
     6    3    4 1
     7    3   30 1
     8    3   31 1
     9    4    9 1
    10    4    5 1
    11    4   52 1
    12    5    6 1
    13    5   32 1
    14    5   33 1
    15    6    7 1
    16    6   34 1
    17    6   35 1
    18    7    8 1
    19    7   10 1
    20    7   36 1
    21    8    9 1
    22    8   37 1
    23    8   38 1
    24    9   39 1
    25    9   40 1
    26   10   11 1
    27   10   41 1
    28   10   42 1
    29   11   16 ar
    30   11   12 ar
    31   12   13 ar
    32   12   43 1
    33   13   14 ar
    34   13   44 1
    35   14   15 ar
    36   14   45 1
    37   15   16 ar
    38   15   46 1
    39   16   47 1
    40   17   18 2
    41   17   19 1
    42   19   24 ar
    43   19   20 ar
    44   20   21 ar
    45   20   48 1
    46   21   22 ar
    47   21   49 1
    48   22   23 ar
    49   22   25 1
    50   23   24 ar
    51   23   50 1
    52   24   51 1
    53   25   26 2
    54   25   27 1
@<TRIPOS>MOLECULE
ZINC29045652
   51    53     0     0     0
SMALL
USER_CHARGES
2-[(4-benzyl-1-piperidyl)methyl]-1-(4-nitrophenyl)prop-2-en-1-one
@<TRIPOS>ATOM
      1 C1          2.5379   -4.1824   -0.3801 C.2       1 <0>        -0.0773
      2 C2          2.5309   -2.8708   -0.1479 C.2       1 <0>        -0.1982
      3 C3          3.8240   -2.0970   -0.1568 C.3       1 <0>         0.0853
      4 N1          4.0471   -1.5315   -1.4941 N.3       1 <0>        -0.5353
      5 C4          4.2623   -2.5933   -2.4853 C.3       1 <0>         0.0479
      6 C5          4.3456   -1.9780   -3.8841 C.3       1 <0>        -0.1143
      7 C6          5.5000   -0.9729   -3.9263 C.3       1 <0>        -0.0813
      8 C7          5.2761    0.0951   -2.8522 C.3       1 <0>        -0.1149
      9 C8          5.1659   -0.5804   -1.4833 C.3       1 <0>         0.0490
     10 C9          5.5519   -0.3095   -5.3040 C.3       1 <0>        -0.0786
     11 C10         5.8940   -1.3425   -6.3465 C.ar      1 <0>        -0.0786
     12 C11         7.2154   -1.5826   -6.6741 C.ar      1 <0>        -0.1192
     13 C12         7.5294   -2.5333   -7.6273 C.ar      1 <0>        -0.1180
     14 C13         6.5216   -3.2372   -8.2596 C.ar      1 <0>        -0.1254
     15 C14         5.2001   -2.9938   -7.9354 C.ar      1 <0>        -0.1186
     16 C15         4.8862   -2.0461   -6.9791 C.ar      1 <0>        -0.1170
     17 C16         1.2619   -2.1782    0.1169 C.2       1 <0>         0.4387
     18 O1          0.2216   -2.8072    0.1517 O.2       1 <0>        -0.4374
     19 C17         1.2501   -0.7170    0.3411 C.ar      1 <0>        -0.1056
     20 C18         0.4741   -0.1708    1.3656 C.ar      1 <0>        -0.0743
     21 C19         0.4681    1.1933    1.5695 C.ar      1 <0>        -0.0666
     22 C20         1.2286    2.0202    0.7615 C.ar      1 <0>        -0.0253
     23 C21         1.9999    1.4857   -0.2555 C.ar      1 <0>        -0.0666
     24 C22         2.0152    0.1233   -0.4705 C.ar      1 <0>        -0.0892
     25 N2          1.2171    3.4832    0.9862 N.pl3     1 <0>         0.0234
     26 O2          0.5393    3.9567    1.8806 O.2       1 <0>        -0.1558
     27 O3          1.8855    4.2136    0.2768 O.3       1 <0>        -0.1531
     28 H1          1.5940   -4.7472   -0.3736 H         1 <0>         0.1245
     29 H2          3.4876   -4.7008   -0.5784 H         1 <0>         0.1220
     30 H3          3.7693   -1.2830    0.5810 H         1 <0>         0.0890
     31 H4          4.6556   -2.7696    0.1003 H         1 <0>         0.0556
     32 H5          5.2015   -3.1200   -2.2604 H         1 <0>         0.0388
     33 H6          3.4246   -3.3053   -2.4477 H         1 <0>         0.0789
     34 H7          4.5216   -2.7725   -4.6242 H         1 <0>         0.0734
     35 H8          3.4010   -1.4641   -4.1155 H         1 <0>         0.0719
     36 H9          6.4507   -1.4935   -3.7389 H         1 <0>         0.0698
     37 H10         6.1237    0.7962   -2.8499 H         1 <0>         0.0730
     38 H11         4.3473    0.6434   -3.0683 H         1 <0>         0.0745
     39 H12         4.9906    0.1832   -0.7112 H         1 <0>         0.0795
     40 H13         6.1008   -1.1165   -1.2631 H         1 <0>         0.0414
     41 H14         4.5719    0.1336   -5.5347 H         1 <0>         0.0746
     42 H15         6.3195    0.4784   -5.3029 H         1 <0>         0.0740
     43 H16         8.0025   -1.0297   -6.1831 H         1 <0>         0.1195
     44 H17         8.5619   -2.7237   -7.8803 H         1 <0>         0.1206
     45 H18         6.7668   -3.9776   -9.0066 H         1 <0>         0.1202
     46 H19         4.4127   -3.5437   -8.4294 H         1 <0>         0.1208
     47 H20         3.8537   -1.8557   -6.7261 H         1 <0>         0.1206
     48 H21        -0.1197   -0.8151    1.9971 H         1 <0>         0.1509
     49 H22        -0.1351    1.6175    2.3586 H         1 <0>         0.1583
     50 H23         2.5909    2.1367   -0.8826 H         1 <0>         0.1573
     51 H24         2.6179   -0.2926   -1.2643 H         1 <0>         0.1974
@<TRIPOS>BOND
     1    1    2 2
     2    1   28 1
     3    1   29 1
     4    2    3 1
     5    2   17 1
     6    3    4 1
     7    3   30 1
     8    3   31 1
     9    4    9 1
    10    4    5 1
    11    5    6 1
    12    5   32 1
    13    5   33 1
    14    6    7 1
    15    6   34 1
    16    6   35 1
    17    7    8 1
    18    7   10 1
    19    7   36 1
    20    8    9 1
    21    8   37 1
    22    8   38 1
    23    9   39 1
    24    9   40 1
    25   10   11 1
    26   10   41 1
    27   10   42 1
    28   11   16 ar
    29   11   12 ar
    30   12   13 ar
    31   12   43 1
    32   13   14 ar
    33   13   44 1
    34   14   15 ar
    35   14   45 1
    36   15   16 ar
    37   15   46 1
    38   16   47 1
    39   17   18 2
    40   17   19 1
    41   19   24 ar
    42   19   20 ar
    43   20   21 ar
    44   20   48 1
    45   21   22 ar
    46   21   49 1
    47   22   23 ar
    48   22   25 1
    49   23   24 ar
    50   23   50 1
    51   24   51 1
    52   25   26 2
    53   25   27 1
@<TRIPOS>MOLECULE
ZINC25757829
   32    35     0     0     0
SMALL
USER_CHARGES

@<TRIPOS>ATOM
      1 C1         -0.0187    1.5258    0.0104 C.3       1 <0>        -0.1252
      2 C2          0.0021   -0.0041    0.0020 C.3       1 <0>         0.1700
      3 C3          0.7167   -0.5895   -1.2034 C.ar      1 <0>        -0.1069
      4 C4          0.8979    0.1802   -2.3343 C.ar      1 <0>        -0.1048
      5 C5          1.5405   -0.3573   -3.4350 C.ar      1 <0>        -0.1212
      6 C6          1.9955   -1.6623   -3.3949 C.ar      1 <0>        -0.1154
      7 C7          1.8143   -2.4276   -2.2597 C.ar      1 <0>        -0.1172
      8 C8          1.1755   -1.8892   -1.1532 C.ar      1 <0>        -0.0768
      9 C9          1.0113   -2.7345    0.0833 C.3       1 <0>        -0.1060
     10 C10         0.1766   -2.0033    1.1369 C.3       1 <0>         0.1001
     11 H1          0.2513   -2.4929    2.1079 H         1 <0>         0.1081
     12 N1          0.6774   -0.5970    1.1980 N.3       1 <0>        -0.6342
     13 C11        -1.2530   -1.8806    0.6988 C.ar      1 <0>        -0.0952
     14 C12        -1.3755   -0.6242    0.0348 C.ar      1 <0>        -0.0809
     15 C13        -2.5771   -0.1782   -0.4723 C.ar      1 <0>        -0.0931
     16 C14        -3.6801   -1.0063   -0.2906 C.ar      1 <0>        -0.1176
     17 C15        -3.5744   -2.2154    0.3646 C.ar      1 <0>        -0.1209
     18 C16        -2.3295   -2.7288    0.8705 C.ar      1 <0>        -0.0946
     19 H2          1.0039    1.9031    0.0027 H         1 <0>         0.0650
     20 H3         -0.5459    1.8868   -0.8726 H         1 <0>         0.0670
     21 H4         -0.5289    1.8773    0.9072 H         1 <0>         0.0732
     22 H5          0.5390    1.1985   -2.3601 H         1 <0>         0.1272
     23 H6          1.6860    0.2402   -4.3228 H         1 <0>         0.1244
     24 H7          2.4941   -2.0848   -4.2547 H         1 <0>         0.1231
     25 H8          2.1706   -3.4468   -2.2339 H         1 <0>         0.1229
     26 H9          0.5143   -3.6672   -0.1835 H         1 <0>         0.0854
     27 H10         1.9944   -2.9588    0.4973 H         1 <0>         0.0869
     28 H11         1.6807   -0.5800    1.0922 H         1 <0>         0.3441
     29 H12        -2.6584    0.7686   -0.9856 H         1 <0>         0.1300
     30 H13        -4.6417   -0.6950   -0.6711 H         1 <0>         0.1239
     31 H14        -4.4549   -2.8304    0.4782 H         1 <0>         0.1194
     32 H15        -2.2281   -3.6740    1.3830 H         1 <0>         0.1394
@<TRIPOS>BOND
     1    1    2 1
     2    1   19 1
     3    1   20 1
     4    1   21 1
     5    2   12 1
     6    2   14 1
     7    2    3 1
     8    3    8 ar
     9    3    4 ar
    10    4    5 ar
    11    4   22 1
    12    5    6 ar
    13    5   23 1
    14    6    7 ar
    15    6   24 1
    16    7    8 ar
    17    7   25 1
    18    8    9 1
    19    9   10 1
    20    9   26 1
    21    9   27 1
    22   10   11 1
    23   10   12 1
    24   10   13 1
    25   12   28 1
    26   13   18 ar
    27   13   14 ar
    28   14   15 ar
    29   15   16 ar
    30   15   29 1
    31   16   17 ar
    32   16   30 1
    33   17   18 ar
    34   17   31 1
    35   18   32 1
@<TRIPOS>MOLECULE
ZINC13829431
   43    45     0     0     0
SMALL
USER_CHARGES

@<TRIPOS>ATOM
      1 C1          0.1416    1.6069    0.1038 C.3       1 <0>        -0.1611
      2 C2          0.1684    0.0784    0.0434 C.3       1 <0>         0.1179
      3 H1         -0.8507   -0.3001   -0.0359 H         1 <0>         0.0467
      4 C3          0.9630   -0.3629   -1.1587 C.ar      1 <0>        -0.0630
      5 C4          2.3443   -0.3805   -1.1055 C.ar      1 <0>        -0.0963
      6 C5          3.0735   -0.7856   -2.2076 C.ar      1 <0>        -0.0906
      7 C6          2.4209   -1.1735   -3.3639 C.ar      1 <0>        -0.0957
      8 C7          1.0388   -1.1557   -3.4167 C.ar      1 <0>        -0.0914
      9 C8          0.3103   -0.7555   -2.3123 C.ar      1 <0>        -0.1117
     10 Br1         3.4179   -1.7272   -4.8723 Br        1 <0>        -0.0608
     11 N1          0.7931   -0.4491    1.2638 N.3       1 <0>        -0.6424
     12 C9         -0.1906   -0.5721    2.3478 C.3       1 <0>        -0.4605
     13 H2         -1.1954   -0.4562    1.9415 H         1 <0>         0.0812
     14 C10        -0.0622   -1.9289    2.9911 C.ar      1 <0>        -0.0782
     15 C11         1.1792   -2.5190    3.1145 C.ar      1 <0>        -0.1020
     16 C12         1.3033   -3.7655    3.7041 C.ar      1 <0>        -0.1037
     17 C13         0.1865   -4.4271    4.1728 C.ar      1 <0>        -0.1257
     18 C14        -1.0693   -3.8425    4.0545 C.ar      1 <0>         0.1113
     19 C15        -1.1938   -2.5829    3.4650 C.ar      1 <0>         0.1386
     20 N2         -2.4418   -1.9788    3.3420 N.am      1 <0>        -0.6186
     21 C16        -3.5446   -2.6058    3.7993 C.2       1 <0>         0.5081
     22 C17        -3.4109   -3.9485    4.4350 C.2       1 <0>         0.5122
     23 N3         -2.1911   -4.5160    4.5296 N.am      1 <0>        -0.6301
     24 O1         -4.3919   -4.5295    4.8535 O.2       1 <0>        -0.4801
     25 O2         -4.6357   -2.0824    3.6950 O.2       1 <0>        -0.4744
     26 P1          0.1138    0.7227    3.5945 P.3       1 <0>         2.2764
     27 O3         -0.1406    2.1115    2.9673 O.2       1 <0>        -1.0799
     28 O4         -0.8382    0.5170    4.7938 O.3       1 <0>        -1.0911
     29 O5          1.6400    0.6333    4.0994 O.3       1 <0>        -0.8935
     30 H3          1.1607    1.9854    0.1831 H         1 <0>         0.0612
     31 H4         -0.3219    1.9983   -0.8017 H         1 <0>         0.0427
     32 H5         -0.4331    1.9261    0.9733 H         1 <0>         0.1200
     33 H6          2.8537   -0.0773   -0.2028 H         1 <0>         0.1439
     34 H7          4.1526   -0.7990   -2.1660 H         1 <0>         0.1322
     35 H8          0.5288   -1.4585   -4.3193 H         1 <0>         0.1297
     36 H9         -0.7689   -0.7455   -2.3521 H         1 <0>         0.1281
     37 H10         1.2467   -1.3325    1.0851 H         1 <0>         0.3344
     38 H11         2.0571   -2.0067    2.7494 H         1 <0>         0.1427
     39 H12         2.2777   -4.2219    3.7973 H         1 <0>         0.1353
     40 H13         0.2881   -5.3996    4.6314 H         1 <0>         0.1365
     41 H14         1.8733    1.2943    4.7656 H         1 <0>         0.4093
     42 H15        -2.0938   -5.3892    4.9406 H         1 <0>         0.4192
     43 H16        -2.5184   -1.1053    2.9271 H         1 <0>         0.4234
@<TRIPOS>BOND
     1    1    2 1
     2    1   30 1
     3    1   31 1
     4    1   32 1
     5    2    3 1
     6    2    4 1
     7    2   11 1
     8    4    9 ar
     9    4    5 ar
    10    5    6 ar
    11    5   33 1
    12    6    7 ar
    13    6   34 1
    14    7    8 ar
    15    7   10 1
    16    8    9 ar
    17    8   35 1
    18    9   36 1
    19   11   12 1
    20   11   37 1
    21   12   13 1
    22   12   14 1
    23   12   26 1
    24   14   19 ar
    25   14   15 ar
    26   15   16 ar
    27   15   38 1
    28   16   17 ar
    29   16   39 1
    30   17   18 ar
    31   17   40 1
    32   18   23 1
    33   18   19 ar
    34   19   20 1
    35   20   21 am
    36   20   43 1
    37   21   22 1
    38   21   25 2
    39   22   23 am
    40   22   24 2
    41   23   42 1
    42   26   27 2
    43   26   28 1
    44   26   29 1
    45   29   41 1
@<TRIPOS>MOLECULE
ZINC13829431
   43    45     0     0     0
SMALL
USER_CHARGES

@<TRIPOS>ATOM
      1 C1         -0.5197   -2.5153   -0.9883 C.3       1 <0>        -0.1705
      2 C2         -1.3740   -1.9647    0.1553 C.3       1 <0>         0.0549
      3 H1         -2.4018   -2.3087    0.0393 H         1 <0>         0.1440
      4 C3         -0.8264   -2.4532    1.4716 C.ar      1 <0>        -0.1101
      5 C4          0.2671   -1.8271    2.0401 C.ar      1 <0>        -0.1108
      6 C5          0.7695   -2.2744    3.2476 C.ar      1 <0>        -0.0758
      7 C6          0.1778   -3.3488    3.8871 C.ar      1 <0>        -0.0787
      8 C7         -0.9164   -3.9750    3.3179 C.ar      1 <0>        -0.0842
      9 C8         -1.4213   -3.5236    2.1130 C.ar      1 <0>        -0.0856
     10 Br1         0.8650   -3.9617    5.5388 Br        1 <0>        -0.0385
     11 N1         -1.3430   -0.4963    0.1267 N.4       1 <0>        -0.4666
     12 C9         -2.0000   -0.0164   -1.0964 C.3       1 <0>        -0.5004
     13 H2         -1.5524   -0.5017   -1.9637 H         1 <0>         0.1322
     14 C10        -3.4695   -0.3455   -1.0394 C.ar      1 <0>        -0.0672
     15 C11        -4.0492   -0.7079    0.1595 C.ar      1 <0>        -0.1239
     16 C12        -5.3986   -1.0117    0.2180 C.ar      1 <0>        -0.0975
     17 C13        -6.1741   -0.9544   -0.9222 C.ar      1 <0>        -0.1216
     18 C14        -5.6016   -0.5902   -2.1356 C.ar      1 <0>         0.1208
     19 C15        -4.2418   -0.2783   -2.1934 C.ar      1 <0>         0.1541
     20 N2         -3.6512    0.0935   -3.3979 N.am      1 <0>        -0.6016
     21 C16        -4.3928    0.1617   -4.5220 C.2       1 <0>         0.5095
     22 C17        -5.8467   -0.1652   -4.4589 C.2       1 <0>         0.5113
     23 N3         -6.3902   -0.5347   -3.2813 N.am      1 <0>        -0.6323
     24 O1         -6.5320   -0.1094   -5.4602 O.2       1 <0>        -0.4790
     25 O2         -3.8822    0.4864   -5.5751 O.2       1 <0>        -0.4652
     26 P1         -1.7864    1.7889   -1.2326 P.3       1 <0>         2.0731
     27 O3         -2.5804    2.4970   -0.0826 O.2       1 <0>        -1.1067
     28 O4         -0.2654    2.1453   -1.1132 O.3       1 <0>        -1.1174
     29 O5         -2.3296    2.2759   -2.6190 O.3       1 <0>        -1.0939
     30 H3         -0.4643   -3.6011   -0.9102 H         1 <0>         0.0970
     31 H4         -0.9703   -2.2422   -1.9425 H         1 <0>         0.0832
     32 H5          0.4841   -2.0949   -0.9269 H         1 <0>         0.0833
     33 H6          0.7292   -0.9884    1.5405 H         1 <0>         0.1389
     34 H7          1.6240   -1.7854    3.6915 H         1 <0>         0.1447
     35 H8         -1.3787   -4.8139    3.8169 H         1 <0>         0.1413
     36 H9         -2.2781   -4.0099    1.6705 H         1 <0>         0.1410
     37 H10        -1.8283   -0.1339    0.9336 H         1 <0>         0.4257
     38 H11        -3.4478   -0.7549    1.0553 H         1 <0>         0.1174
     39 H12        -5.8460   -1.2949    1.1593 H         1 <0>         0.1366
     40 H13        -7.2263   -1.1930   -0.8719 H         1 <0>         0.1393
     41 H14        -7.3346   -0.7500   -3.2301 H         1 <0>         0.4186
     42 H15        -2.7048    0.3042   -3.4285 H         1 <0>         0.4303
     43 H16        -0.3850   -0.1799    0.1402 H         1 <0>         0.4307
@<TRIPOS>BOND
     1    1    2 1
     2    1   30 1
     3    1   31 1
     4    1   32 1
     5    2    3 1
     6    2    4 1
     7    2   11 1
     8    4    9 ar
     9    4    5 ar
    10    5    6 ar
    11    5   33 1
    12    6    7 ar
    13    6   34 1
    14    7    8 ar
    15    7   10 1
    16    8    9 ar
    17    8   35 1
    18    9   36 1
    19   11   12 1
    20   11   37 1
    21   11   43 1
    22   12   13 1
    23   12   14 1
    24   12   26 1
    25   14   19 ar
    26   14   15 ar
    27   15   16 ar
    28   15   38 1
    29   16   17 ar
    30   16   39 1
    31   17   18 ar
    32   17   40 1
    33   18   23 1
    34   18   19 ar
    35   19   20 1
    36   20   21 am
    37   20   42 1
    38   21   22 1
    39   21   25 2
    40   22   23 am
    41   22   24 2
    42   23   41 1
    43   26   27 2
    44   26   28 1
    45   26   29 1
@<TRIPOS>MOLECULE
ZINC13829431
   42    44     0     0     0
SMALL
USER_CHARGES

@<TRIPOS>ATOM
      1 C1          0.1560    1.6195    0.1183 C.3       1 <0>        -0.1622
      2 C2          0.1714    0.0912    0.0475 C.3       1 <0>         0.1176
      3 H1         -0.8506   -0.2791   -0.0334 H         1 <0>         0.0349
      4 C3          0.9617   -0.3479   -1.1582 C.ar      1 <0>        -0.0494
      5 C4          2.3428   -0.3760   -1.1063 C.ar      1 <0>        -0.0923
      6 C5          3.0681   -0.7791   -2.2118 C.ar      1 <0>        -0.0916
      7 C6          2.4117   -1.1543   -3.3701 C.ar      1 <0>        -0.1013
      8 C7          1.0297   -1.1259   -3.4216 C.ar      1 <0>        -0.0955
      9 C8          0.3051   -0.7278   -2.3139 C.ar      1 <0>        -0.1164
     10 Br1         3.4034   -1.7052   -4.8830 Br        1 <0>        -0.0740
     11 N1          0.7931   -0.4491    1.2638 N.3       1 <0>        -0.6206
     12 C9         -0.1906   -0.5721    2.3478 C.3       1 <0>        -0.4519
     13 H2         -1.1954   -0.4562    1.9415 H         1 <0>         0.0469
     14 C10        -0.0622   -1.9289    2.9911 C.ar      1 <0>        -0.0265
     15 C11         1.1792   -2.5190    3.1145 C.ar      1 <0>        -0.1010
     16 C12         1.3034   -3.7653    3.7045 C.ar      1 <0>        -0.1040
     17 C13         0.1866   -4.4267    4.1736 C.ar      1 <0>        -0.1476
     18 C14        -1.0692   -3.8421    4.0553 C.ar      1 <0>         0.1015
     19 C15        -1.1938   -2.5829    3.4650 C.ar      1 <0>         0.1245
     20 N2         -2.4419   -1.9789    3.3417 N.am      1 <0>        -0.6069
     21 H3         -2.5184   -1.1056    2.9265 H         1 <0>         0.4249
     22 C16        -3.5447   -2.6064    3.7983 C.2       1 <0>         0.5038
     23 O1         -4.6360   -2.0838    3.6922 O.2       1 <0>        -0.4948
     24 C17        -3.4109   -3.9488    4.4344 C.2       1 <0>         0.5128
     25 O2         -4.3922   -4.5305    4.8516 O.2       1 <0>        -0.5002
     26 N3         -2.1910   -4.5154    4.5309 N.am      1 <0>        -0.6247
     27 H4         -2.0936   -5.3885    4.9422 H         1 <0>         0.4136
     28 P1          0.1138    0.7227    3.5945 P.3       1 <0>         2.2006
     29 O3          1.6486    0.8048    3.8981 O.2       1 <0>        -1.1550
     30 O4         -0.3846    2.1030    3.0462 O.3       1 <0>        -1.1598
     31 O5         -0.6608    0.3730    4.9105 O.3       1 <0>        -1.1694
     32 H5          1.1779    1.9898    0.1992 H         1 <0>         0.0593
     33 H6         -0.3054    2.0204   -0.7842 H         1 <0>         0.0309
     34 H7         -0.4156    1.9371    0.9904 H         1 <0>         0.1275
     35 H8          2.8552   -0.0827   -0.2020 H         1 <0>         0.1505
     36 H9          4.1471   -0.8008   -2.1712 H         1 <0>         0.1300
     37 H10         0.5168   -1.4188   -4.3257 H         1 <0>         0.1251
     38 H11        -0.7741   -0.7095   -2.3527 H         1 <0>         0.1259
     39 H12         2.0570   -2.0069    2.7491 H         1 <0>         0.1440
     40 H13         2.2777   -4.2217    3.7977 H         1 <0>         0.1277
     41 H14         0.2883   -5.3990    4.6326 H         1 <0>         0.1271
     42 H15         1.2399   -1.3347    1.0788 H         1 <0>         0.3162
@<TRIPOS>BOND
     1    1    2 1
     2    1   32 1
     3    1   33 1
     4    1   34 1
     5    2    3 1
     6    2    4 1
     7    2   11 1
     8    4    9 ar
     9    4    5 ar
    10    5    6 ar
    11    5   35 1
    12    6    7 ar
    13    6   36 1
    14    7    8 ar
    15    7   10 1
    16    8    9 ar
    17    8   37 1
    18    9   38 1
    19   11   12 1
    20   11   42 1
    21   12   13 1
    22   12   14 1
    23   12   28 1
    24   14   19 ar
    25   14   15 ar
    26   15   16 ar
    27   15   39 1
    28   16   17 ar
    29   16   40 1
    30   17   18 ar
    31   17   41 1
    32   18   26 1
    33   18   19 ar
    34   19   20 1
    35   20   21 1
    36   20   22 am
    37   22   23 2
    38   22   24 1
    39   24   25 2
    40   24   26 am
    41   26   27 1
    42   28   29 2
    43   28   30 1
    44   28   31 1
@<TRIPOS>MOLECULE
ZINC13829431
   43    45     0     0     0
SMALL
USER_CHARGES

@<TRIPOS>ATOM
      1 C1          0.1314    1.5978    0.0935 C.3       1 <0>        -0.1483
      2 C2          0.1666    0.0691    0.0405 C.3       1 <0>         0.1126
      3 H1         -0.8504   -0.3153   -0.0376 H         1 <0>         0.0473
      4 C3          0.9645   -0.3737   -1.1589 C.ar      1 <0>        -0.0658
      5 C4          2.3458   -0.3835   -1.1046 C.ar      1 <0>        -0.0944
      6 C5          3.0779   -0.7900   -2.2042 C.ar      1 <0>        -0.0899
      7 C6          2.4283   -1.1871   -3.3591 C.ar      1 <0>        -0.0939
      8 C7          1.0461   -1.1771   -3.4129 C.ar      1 <0>        -0.0920
      9 C8          0.3147   -0.7754   -2.3110 C.ar      1 <0>        -0.1110
     10 Br1         3.4295   -1.7427   -4.8640 Br        1 <0>        -0.0591
     11 N1          0.7933   -0.4490    1.2639 N.3       1 <0>        -0.6405
     12 C9         -0.1906   -0.5721    2.3478 C.3       1 <0>        -0.4593
     13 H2         -1.1953   -0.4563    1.9414 H         1 <0>         0.0646
     14 C10        -0.0622   -1.9289    2.9911 C.ar      1 <0>        -0.0650
     15 C11         1.1792   -2.5190    3.1145 C.ar      1 <0>        -0.0787
     16 C12         1.3034   -3.7653    3.7045 C.ar      1 <0>        -0.1042
     17 C13         0.1866   -4.4267    4.1736 C.ar      1 <0>        -0.1247
     18 C14        -1.0692   -3.8421    4.0553 C.ar      1 <0>         0.1064
     19 C15        -1.1938   -2.5829    3.4650 C.ar      1 <0>         0.1313
     20 N2         -2.4419   -1.9789    3.3417 N.am      1 <0>        -0.6180
     21 H3         -2.5184   -1.1056    2.9265 H         1 <0>         0.4208
     22 C16        -3.5447   -2.6064    3.7983 C.2       1 <0>         0.5081
     23 O1         -4.6360   -2.0838    3.6922 O.2       1 <0>        -0.4794
     24 C17        -3.4109   -3.9488    4.4344 C.2       1 <0>         0.5115
     25 O2         -4.3922   -4.5305    4.8516 O.2       1 <0>        -0.4833
     26 N3         -2.1910   -4.5154    4.5309 N.am      1 <0>        -0.6285
     27 H4         -2.0936   -5.3885    4.9422 H         1 <0>         0.4190
     28 P1          0.1136    0.7227    3.5945 P.3       1 <0>         2.2675
     29 O3          1.4873    0.4840    4.2603 O.2       1 <0>        -1.0780
     30 O4          0.1063    2.1663    2.8818 O.3       1 <0>        -0.8947
     31 O5         -0.9951    0.6734    4.6694 O.3       1 <0>        -1.0906
     32 H5          1.1484    1.9821    0.1716 H         1 <0>         0.0686
     33 H6         -0.3335    1.9822   -0.8143 H         1 <0>         0.0492
     34 H7         -0.4456    1.9180    0.9610 H         1 <0>         0.0892
     35 H8          2.8529   -0.0732   -0.2030 H         1 <0>         0.1461
     36 H9          4.1571   -0.7973   -2.1618 H         1 <0>         0.1336
     37 H10         0.5385   -1.4870   -4.3144 H         1 <0>         0.1301
     38 H11        -0.7645   -0.7715   -2.3516 H         1 <0>         0.1275
     39 H12         2.0570   -2.0069    2.7491 H         1 <0>         0.1454
     40 H13         2.2777   -4.2217    3.7977 H         1 <0>         0.1356
     41 H14         0.2883   -5.3990    4.6326 H         1 <0>         0.1357
     42 H15         1.2517   -1.3309    1.0898 H         1 <0>         0.3397
     43 H16         0.2623    2.9044    3.4867 H         1 <0>         0.4095
@<TRIPOS>BOND
     1    1    2 1
     2    1   32 1
     3    1   33 1
     4    1   34 1
     5    2    3 1
     6    2    4 1
     7    2   11 1
     8    4    9 ar
     9    4    5 ar
    10    5    6 ar
    11    5   35 1
    12    6    7 ar
    13    6   36 1
    14    7    8 ar
    15    7   10 1
    16    8    9 ar
    17    8   37 1
    18    9   38 1
    19   11   12 1
    20   11   42 1
    21   12   13 1
    22   12   14 1
    23   12   28 1
    24   14   19 ar
    25   14   15 ar
    26   15   16 ar
    27   15   39 1
    28   16   17 ar
    29   16   40 1
    30   17   18 ar
    31   17   41 1
    32   18   26 1
    33   18   19 ar
    34   19   20 1
    35   20   21 1
    36   20   22 am
    37   22   23 2
    38   22   24 1
    39   24   25 2
    40   24   26 am
    41   26   27 1
    42   28   29 2
    43   28   30 1
    44   28   31 1
    45   30   43 1
@<TRIPOS>MOLECULE
ZINC13829433
   43    45     0     0     0
SMALL
USER_CHARGES

@<TRIPOS>ATOM
      1 C1          2.4622    0.9393    1.6978 C.3       1 <0>        -0.1319
      2 C2          1.2487    0.6754    0.8041 C.3       1 <0>         0.1190
      3 H1          0.4670    1.4009    1.0293 H         1 <0>         0.0579
      4 C3          1.6523    0.8045   -0.6421 C.ar      1 <0>        -0.0677
      5 C4          2.2965   -0.2418   -1.2757 C.ar      1 <0>        -0.0948
      6 C5          2.6664   -0.1240   -2.6022 C.ar      1 <0>        -0.0912
      7 C6          2.3921    1.0409   -3.2958 C.ar      1 <0>        -0.0919
      8 C7          1.7475    2.0876   -2.6613 C.ar      1 <0>        -0.0914
      9 C8          1.3732    1.9669   -1.3362 C.ar      1 <0>        -0.1028
     10 Br1         2.8985    1.2029   -5.1105 Br        1 <0>        -0.0593
     11 N1          0.7437   -0.6815    1.0523 N.3       1 <0>        -0.6565
     12 C9         -0.2039   -0.6935    2.1748 C.3       1 <0>        -0.4684
     13 H2         -0.1032    0.2299    2.7451 H         1 <0>         0.0867
     14 C10         0.0907   -1.8706    3.0685 C.ar      1 <0>        -0.0366
     15 C11         0.8585   -2.9172    2.5997 C.ar      1 <0>        -0.0675
     16 C12         1.1322   -4.0015    3.4159 C.ar      1 <0>        -0.1146
     17 C13         0.6393   -4.0437    4.7043 C.ar      1 <0>        -0.1291
     18 C14        -0.1349   -2.9951    5.1878 C.ar      1 <0>         0.1033
     19 C15        -0.4062   -1.8989    4.3666 C.ar      1 <0>         0.1281
     20 N2         -1.1751   -0.8368    4.8340 N.am      1 <0>        -0.6050
     21 C16        -1.6607   -0.8559    6.0919 C.2       1 <0>         0.5088
     22 C17        -1.3655   -2.0238    6.9714 C.2       1 <0>         0.5102
     23 N3         -0.6286   -3.0448    6.4885 N.am      1 <0>        -0.6293
     24 O1         -1.7934   -2.0598    8.1076 O.2       1 <0>        -0.4886
     25 O2         -2.3315    0.0688    6.5046 O.2       1 <0>        -0.4816
     26 P1         -1.9048   -0.8287    1.5328 P.3       1 <0>         2.2031
     27 O3         -2.0817   -2.1911    0.8260 O.2       1 <0>        -1.0616
     28 O4         -2.9072   -0.7219    2.7036 O.3       1 <0>        -1.0662
     29 O5         -2.1780    0.3603    0.4822 O.3       1 <0>        -0.8997
     30 H3          3.2085    0.1614    1.5362 H         1 <0>         0.0655
     31 H4          2.8907    1.9107    1.4512 H         1 <0>         0.0557
     32 H5          2.1520    0.9338    2.7427 H         1 <0>         0.0548
     33 H6          2.5110   -1.1512   -0.7340 H         1 <0>         0.1413
     34 H7          3.1700   -0.9413   -3.0971 H         1 <0>         0.1328
     35 H8          1.5331    2.9973   -3.2024 H         1 <0>         0.1317
     36 H9          0.8663    2.7825   -0.8420 H         1 <0>         0.1313
     37 H10         0.3238   -1.0689    0.2206 H         1 <0>         0.3476
     38 H11         1.2470   -2.8906    1.5924 H         1 <0>         0.1398
     39 H12         1.7333   -4.8175    3.0429 H         1 <0>         0.1296
     40 H13         0.8548   -4.8919    5.3372 H         1 <0>         0.1315
     41 H14        -3.0659    0.3507    0.0994 H         1 <0>         0.4169
     42 H15        -0.4318   -3.8092    7.0523 H         1 <0>         0.4167
     43 H16        -1.3615   -0.0819    4.2543 H         1 <0>         0.4234
@<TRIPOS>BOND
     1    1    2 1
     2    1   30 1
     3    1   31 1
     4    1   32 1
     5    2    3 1
     6    2    4 1
     7    2   11 1
     8    4    9 ar
     9    4    5 ar
    10    5    6 ar
    11    5   33 1
    12    6    7 ar
    13    6   34 1
    14    7    8 ar
    15    7   10 1
    16    8    9 ar
    17    8   35 1
    18    9   36 1
    19   11   12 1
    20   11   37 1
    21   12   13 1
    22   12   14 1
    23   12   26 1
    24   14   19 ar
    25   14   15 ar
    26   15   16 ar
    27   15   38 1
    28   16   17 ar
    29   16   39 1
    30   17   18 ar
    31   17   40 1
    32   18   23 1
    33   18   19 ar
    34   19   20 1
    35   20   21 am
    36   20   43 1
    37   21   22 1
    38   21   25 2
    39   22   23 am
    40   22   24 2
    41   23   42 1
    42   26   27 2
    43   26   28 1
    44   26   29 1
    45   29   41 1
@<TRIPOS>MOLECULE
ZINC19632753
   29    28     0     0     0
SMALL
USER_CHARGES

@<TRIPOS>ATOM
      1 C1         -0.0187    1.5258    0.0104 C.3       1 <0>        -0.1166
      2 C2          0.0021   -0.0041    0.0020 C.3       1 <0>        -0.1322
      3 C3         -1.4333   -0.5336    0.0129 C.3       1 <0>        -0.1273
      4 C4         -1.4126   -2.0635    0.0045 C.3       1 <0>        -0.0483
      5 H1         -0.8102   -2.4233    0.8386 H         1 <0>         0.1330
      6 C5         -2.8198   -2.5857    0.1389 C.2       1 <0>         0.4896
      7 O1         -3.4911   -2.7925   -0.8576 O.co2     1 <0>        -0.6734
      8 O2         -3.2870   -2.8013    1.2443 O.co2     1 <0>        -0.6411
      9 N1         -0.8327   -2.5384   -1.2589 N.4       1 <0>        -0.6145
     10 C6          1.4167    2.0553   -0.0004 C.3       1 <0>        -0.0935
     11 C7          1.3960    3.5852    0.0080 C.3       1 <0>        -0.7309
     12 P1          3.1062    4.2162   -0.0050 P.3       1 <0>         2.2581
     13 O3          3.8899    3.6042    1.1776 O.2       1 <0>        -1.0979
     14 O4          3.7898    3.8240   -1.3338 O.3       1 <0>        -1.0994
     15 O5          3.0877    5.8199    0.1361 O.3       1 <0>        -0.9057
     16 H2         -0.5459    1.8868   -0.8726 H         1 <0>         0.0572
     17 H3         -0.5289    1.8773    0.9072 H         1 <0>         0.0611
     18 H4          0.5123   -0.3556   -0.8948 H         1 <0>         0.0555
     19 H5          0.5293   -0.3651    0.8851 H         1 <0>         0.0766
     20 H6         -1.9435   -0.1821    0.9097 H         1 <0>         0.1036
     21 H7         -1.9605   -0.1726   -0.8702 H         1 <0>         0.0813
     22 H8         -1.3902   -2.2053   -2.0311 H         1 <0>         0.4317
     23 H9          0.1095   -2.1887   -1.3490 H         1 <0>         0.4169
     24 H10         1.9439    1.6943    0.8826 H         1 <0>         0.0733
     25 H11         1.9269    1.7038   -0.8972 H         1 <0>         0.0677
     26 H12         0.8688    3.9463   -0.8751 H         1 <0>         0.0681
     27 H13         0.8858    3.9367    0.9048 H         1 <0>         0.0678
     28 H14         3.9658    6.2249    0.1366 H         1 <0>         0.4121
     29 H15        -0.8190   -3.5473   -1.2645 H         1 <0>         0.4273
@<TRIPOS>BOND
     1    1    2 1
     2    1   10 1
     3    1   16 1
     4    1   17 1
     5    2    3 1
     6    2   18 1
     7    2   19 1
     8    3    4 1
     9    3   20 1
    10    3   21 1
    11    4    5 1
    12    4    6 1
    13    4    9 1
    14    6    7 2
    15    6    8 1
    16    9   22 1
    17    9   23 1
    18    9   29 1
    19   10   11 1
    20   10   24 1
    21   10   25 1
    22   11   12 1
    23   11   26 1
    24   11   27 1
    25   12   13 2
    26   12   14 1
    27   12   15 1
    28   15   28 1
@<TRIPOS>MOLECULE
ZINC19632758
   29    28     0     0     0
SMALL
USER_CHARGES

@<TRIPOS>ATOM
      1 C1         -0.0187    1.5258    0.0104 C.3       1 <0>        -0.1166
      2 C2          0.0021   -0.0041    0.0020 C.3       1 <0>        -0.1324
      3 C3         -1.4333   -0.5336    0.0129 C.3       1 <0>        -0.1263
      4 C4         -1.4126   -2.0635    0.0045 C.3       1 <0>        -0.0493
      5 H1         -0.8263   -2.4142   -0.8449 H         1 <0>         0.1336
      6 C5         -2.8221   -2.5844   -0.1087 C.2       1 <0>         0.4915
      7 O1         -3.4399   -2.4497   -1.1512 O.co2     1 <0>        -0.6389
      8 O2         -3.3448   -3.1404    0.8422 O.co2     1 <0>        -0.6788
      9 N1         -0.8087   -2.5519    1.2514 N.4       1 <0>        -0.6130
     10 C6          1.4167    2.0553   -0.0004 C.3       1 <0>        -0.0935
     11 C7          1.3960    3.5852    0.0080 C.3       1 <0>        -0.7309
     12 P1          3.1062    4.2162   -0.0050 P.3       1 <0>         2.2581
     13 O3          3.8899    3.6042    1.1776 O.2       1 <0>        -1.0989
     14 O4          3.7898    3.8240   -1.3338 O.3       1 <0>        -1.0984
     15 O5          3.0877    5.8199    0.1361 O.3       1 <0>        -0.9057
     16 H2         -0.5459    1.8868   -0.8726 H         1 <0>         0.0615
     17 H3         -0.5289    1.8773    0.9072 H         1 <0>         0.0567
     18 H4          0.5123   -0.3556   -0.8948 H         1 <0>         0.0764
     19 H5          0.5293   -0.3651    0.8851 H         1 <0>         0.0551
     20 H6         -1.9435   -0.1821    0.9097 H         1 <0>         0.0781
     21 H7         -1.9605   -0.1726   -0.8702 H         1 <0>         0.1075
     22 H8         -1.3514   -2.2272    2.0376 H         1 <0>         0.4301
     23 H9         -0.7950   -3.5608    1.2458 H         1 <0>         0.4289
     24 H10         1.9439    1.6943    0.8826 H         1 <0>         0.0705
     25 H11         1.9269    1.7038   -0.8972 H         1 <0>         0.0703
     26 H12         0.8688    3.9463   -0.8751 H         1 <0>         0.0695
     27 H13         0.8858    3.9367    0.9048 H         1 <0>         0.0664
     28 H14         3.9658    6.2249    0.1366 H         1 <0>         0.4121
     29 H15         0.1351   -2.2031    1.3272 H         1 <0>         0.4163
@<TRIPOS>BOND
     1    1    2 1
     2    1   10 1
     3    1   16 1
     4    1   17 1
     5    2    3 1
     6    2   18 1
     7    2   19 1
     8    3    4 1
     9    3   20 1
    10    3   21 1
    11    4    5 1
    12    4    6 1
    13    4    9 1
    14    6    7 2
    15    6    8 1
    16    9   22 1
    17    9   23 1
    18    9   29 1
    19   10   11 1
    20   10   24 1
    21   10   25 1
    22   11   12 1
    23   11   26 1
    24   11   27 1
    25   12   13 2
    26   12   14 1
    27   12   15 1
    28   15   28 1
@<TRIPOS>MOLECULE
ZINC19632959
   23    22     0     0     0
SMALL
USER_CHARGES

@<TRIPOS>ATOM
      1 C1         -0.0187    1.5258    0.0104 C.3       1 <0>        -0.1033
      2 C2          0.0021   -0.0041    0.0020 C.3       1 <0>        -0.1242
      3 C3         -1.4333   -0.5336    0.0129 C.3       1 <0>        -0.0486
      4 H1         -1.9862   -0.1019   -0.8214 H         1 <0>         0.1341
      5 C4         -1.4159   -2.0348   -0.1192 C.2       1 <0>         0.4914
      6 O1         -1.3670   -2.7340    0.8784 O.co2     1 <0>        -0.6757
      7 O2         -1.4508   -2.5500   -1.2236 O.co2     1 <0>        -0.6432
      8 N1         -2.0833   -0.1607    1.2764 N.4       1 <0>        -0.6142
      9 C5          1.4167    2.0553   -0.0004 C.3       1 <0>        -0.7315
     10 P1          1.3920    3.8782    0.0096 P.3       1 <0>         2.2590
     11 O3          0.5382    4.3881   -1.1728 O.2       1 <0>        -1.0962
     12 O4          0.7821    4.3776    1.3383 O.3       1 <0>        -1.0992
     13 O5          2.8954    4.4361   -0.1340 O.3       1 <0>        -0.9050
     14 H2         -0.5459    1.8868   -0.8726 H         1 <0>         0.0844
     15 H3         -0.5289    1.8773    0.9072 H         1 <0>         0.0608
     16 H4          0.5123   -0.3556   -0.8948 H         1 <0>         0.0978
     17 H5          0.5293   -0.3651    0.8851 H         1 <0>         0.0754
     18 H6         -2.0949    0.8443    1.3648 H         1 <0>         0.4208
     19 H7         -3.0299   -0.5100    1.2835 H         1 <0>         0.4258
     20 H8          1.9439    1.6943    0.8826 H         1 <0>         0.0727
     21 H9          1.9269    1.7038   -0.8972 H         1 <0>         0.0753
     22 H10         2.9583    5.4010   -0.1361 H         1 <0>         0.4133
     23 H11        -1.5715   -0.5604    2.0487 H         1 <0>         0.4306
@<TRIPOS>BOND
     1    1    2 1
     2    1    9 1
     3    1   14 1
     4    1   15 1
     5    2    3 1
     6    2   16 1
     7    2   17 1
     8    3    4 1
     9    3    5 1
    10    3    8 1
    11    5    6 2
    12    5    7 1
    13    8   18 1
    14    8   19 1
    15    8   23 1
    16    9   10 1
    17    9   20 1
    18    9   21 1
    19   10   11 2
    20   10   12 1
    21   10   13 1
    22   13   22 1
@<TRIPOS>MOLECULE
ZINC19943047
   23    22     0     0     0
SMALL
USER_CHARGES

@<TRIPOS>ATOM
      1 C1         -0.0187    1.5258    0.0104 C.3       1 <0>        -0.1037
      2 C2          0.0021   -0.0041    0.0020 C.3       1 <0>        -0.1232
      3 C3         -1.4333   -0.5336    0.0129 C.3       1 <0>        -0.0495
      4 H1         -1.9701   -0.1109    0.8621 H         1 <0>         0.1346
      5 C4         -1.4136   -2.0361    0.1285 C.2       1 <0>         0.4933
      6 O1         -1.0650   -2.5627    1.1714 O.co2     1 <0>        -0.6411
      7 O2         -1.7461   -2.7250   -0.8209 O.co2     1 <0>        -0.6809
      8 N1         -2.1072   -0.1473   -1.2339 N.4       1 <0>        -0.6128
      9 C5          1.4167    2.0553   -0.0004 C.3       1 <0>        -0.7314
     10 P1          1.3920    3.8782    0.0096 P.3       1 <0>         2.2590
     11 O3          0.5382    4.3881   -1.1728 O.2       1 <0>        -1.0990
     12 O4          0.7821    4.3776    1.3383 O.3       1 <0>        -1.0965
     13 O5          2.8954    4.4361   -0.1340 O.3       1 <0>        -0.9051
     14 H2         -0.5459    1.8868   -0.8726 H         1 <0>         0.0633
     15 H3         -0.5289    1.8773    0.9072 H         1 <0>         0.0815
     16 H4          0.5123   -0.3556   -0.8948 H         1 <0>         0.0721
     17 H5          0.5293   -0.3651    0.8851 H         1 <0>         0.1018
     18 H6         -3.0538   -0.4965   -1.2267 H         1 <0>         0.4273
     19 H7         -2.1205    0.8587   -1.3113 H         1 <0>         0.4204
     20 H8          1.9439    1.6943    0.8826 H         1 <0>         0.0772
     21 H9          1.9269    1.7038   -0.8972 H         1 <0>         0.0707
     22 H10         2.9583    5.4010   -0.1361 H         1 <0>         0.4133
     23 H11        -1.6103   -0.5386   -2.0201 H         1 <0>         0.4288
@<TRIPOS>BOND
     1    1    2 1
     2    1    9 1
     3    1   14 1
     4    1   15 1
     5    2    3 1
     6    2   16 1
     7    2   17 1
     8    3    4 1
     9    3    5 1
    10    3    8 1
    11    5    6 2
    12    5    7 1
    13    8   18 1
    14    8   19 1
    15    8   23 1
    16    9   10 1
    17    9   20 1
    18    9   21 1
    19   10   11 2
    20   10   12 1
    21   10   13 1
    22   13   22 1
@<TRIPOS>MOLECULE
ZINC13489845
   33    35     0     0     0
SMALL
USER_CHARGES

@<TRIPOS>ATOM
      1 C1         -0.0428    1.3480    0.0142 C.ar      1 <0>        -0.1063
      2 C2          1.1416    2.0613    0.0194 C.ar      1 <0>        -0.1121
      3 C3          2.3455    1.3880    0.0007 C.ar      1 <0>        -0.1096
      4 C4          2.3766    0.0001   -0.0195 C.ar      1 <0>        -0.1117
      5 C5          1.1982   -0.7118   -0.0149 C.ar      1 <0>        -0.0759
      6 C6         -0.0132   -0.0307   -0.0038 C.ar      1 <0>        -0.1150
      7 C7          1.1531   -2.2170   -0.0053 C.3       1 <0>        -0.1003
      8 C8          2.4751   -2.8042   -0.4972 C.3       1 <0>         0.1024
      9 N1          3.5680   -2.1086    0.2022 N.pl3     1 <0>        -0.5714
     10 C9          3.7257   -0.6730   -0.0540 C.3       1 <0>         0.1495
     11 C10         4.4177   -2.7863    1.0719 C.ar      1 <0>         0.3450
     12 C11         4.1904   -4.1261    1.3957 C.ar      1 <0>        -0.2310
     13 C12         5.0520   -4.7648    2.2598 C.ar      1 <0>         0.1803
     14 N2          6.0847   -4.1285    2.7827 N.ar      1 <0>        -0.5401
     15 C13         6.3368   -2.8579    2.5030 C.ar      1 <0>         0.4801
     16 C14         5.5177   -2.1478    1.6357 C.ar      1 <0>        -0.2962
     17 N3          7.4361   -2.2314    3.0793 N.pl3     1 <0>        -0.8299
     18 H1         -0.9887    1.8690    0.0288 H         1 <0>         0.1298
     19 H2          1.1243    3.1410    0.0377 H         1 <0>         0.1305
     20 H3          3.2709    1.9447    0.0014 H         1 <0>         0.1268
     21 H4         -0.9395   -0.5860   -0.0091 H         1 <0>         0.1273
     22 H5          0.9629   -2.5635    1.0105 H         1 <0>         0.0858
     23 H6          0.3465   -2.5556   -0.6556 H         1 <0>         0.0995
     24 H7          2.5120   -3.8698   -0.2712 H         1 <0>         0.1016
     25 H8          2.5691   -2.6511   -1.5723 H         1 <0>         0.0966
     26 H9          4.1789   -0.5271   -1.0345 H         1 <0>         0.0979
     27 H10         4.3684   -0.2366    0.7106 H         1 <0>         0.1010
     28 H11         3.3486   -4.6548    0.9735 H         1 <0>         0.1752
     29 H12         4.8806   -5.8004    2.5137 H         1 <0>         0.2050
     30 H13         5.7286   -1.1138    1.4058 H         1 <0>         0.1700
     31 H14         8.0139   -2.7242    3.6828 H         1 <0>         0.4195
     32 H15         7.6251   -1.3016    2.8779 H         1 <0>         0.4367
     33 H16         6.6745   -4.6042    3.3883 H         1 <0>         0.4390
@<TRIPOS>BOND
     1    1    6 ar
     2    1    2 ar
     3    1   18 1
     4    2    3 ar
     5    2   19 1
     6    3    4 ar
     7    3   20 1
     8    4   10 1
     9    4    5 ar
    10    5    6 ar
    11    5    7 1
    12    6   21 1
    13    7    8 1
    14    7   22 1
    15    7   23 1
    16    8    9 1
    17    8   24 1
    18    8   25 1
    19    9   10 1
    20    9   11 1
    21   10   26 1
    22   10   27 1
    23   11   16 ar
    24   11   12 ar
    25   12   13 ar
    26   12   28 1
    27   13   14 ar
    28   13   29 1
    29   14   15 ar
    30   14   33 1
    31   15   16 ar
    32   15   17 1
    33   16   30 1
    34   17   31 1
    35   17   32 1
@<TRIPOS>MOLECULE
ZINC00007042
   55    57     0     0     0
SMALL
USER_CHARGES

@<TRIPOS>ATOM
      1 C1          0.9053   -2.1839   -0.5875 C.3       1 <0>        -0.1797
      2 C2          0.6167   -1.9912    0.9026 C.3       1 <0>        -0.1474
      3 H1          1.2762   -2.6333    1.4865 H         1 <0>         0.1056
      4 C3          0.8590   -0.5295    1.2842 C.3       1 <0>        -0.0041
      5 N1          2.2860   -0.2145    1.1345 N.4       1 <0>        -0.3834
      6 C4          2.4939    1.2221    1.3526 C.3       1 <0>        -0.0059
      7 C5          3.9655    1.5697    1.1183 C.3       1 <0>        -0.1431
      8 C6          4.8345    0.7725    2.0953 C.3       1 <0>        -0.0940
      9 C7          4.5544   -0.7216    1.9099 C.3       1 <0>        -0.1449
     10 C8          3.0610   -0.9844    2.1149 C.3       1 <0>        -0.0119
     11 C9          6.3116    1.0550    1.8139 C.3       1 <0>        -0.0745
     12 C10         7.1610    0.3678    2.8519 C.ar      1 <0>        -0.0948
     13 C11         7.4909    1.0265    4.0215 C.ar      1 <0>        -0.1160
     14 C12         8.2701    0.3962    4.9736 C.ar      1 <0>        -0.1135
     15 C13         8.7190   -0.8931    4.7562 C.ar      1 <0>        -0.1162
     16 C14         8.3883   -1.5521    3.5870 C.ar      1 <0>        -0.1161
     17 C15         7.6056   -0.9234    2.6368 C.ar      1 <0>        -0.1216
     18 C16        -0.8401   -2.3590    1.1916 C.3       1 <0>         0.1644
     19 H2         -1.0708   -2.1379    2.2337 H         1 <0>         0.1182
     20 C17        -1.0481   -3.8288    0.9320 C.ar      1 <0>        -0.1428
     21 C18        -1.2202   -4.2835   -0.3624 C.ar      1 <0>        -0.0943
     22 C19        -1.4115   -5.6303   -0.6029 C.ar      1 <0>        -0.1416
     23 C20        -1.4304   -6.5269    0.4555 C.ar      1 <0>         0.1220
     24 C21        -1.2571   -6.0683    1.7533 C.ar      1 <0>        -0.1412
     25 C22        -1.0610   -4.7211    1.9881 C.ar      1 <0>        -0.0884
     26 O1         -1.6189   -7.8523    0.2215 O.3       1 <0>        -0.4965
     27 O2         -1.7010   -1.5986    0.3415 O.3       1 <0>        -0.5471
     28 H3          1.9189   -1.8486   -0.8076 H         1 <0>         0.0573
     29 H4          0.8082   -3.2391   -0.8429 H         1 <0>         0.0917
     30 H5          0.1946   -1.6013   -1.1736 H         1 <0>         0.0762
     31 H6          0.2735    0.1182    0.6317 H         1 <0>         0.1379
     32 H7          0.5583   -0.3697    2.3196 H         1 <0>         0.1323
     33 H8          1.8724    1.7882    0.6587 H         1 <0>         0.1313
     34 H9          2.2192    1.4772    2.3761 H         1 <0>         0.1292
     35 H10         4.2412    1.3152    0.0949 H         1 <0>         0.0887
     36 H11         4.1181    2.6364    1.2825 H         1 <0>         0.1142
     37 H12         4.5947    1.0642    3.1178 H         1 <0>         0.0913
     38 H13         4.8423   -1.0237    0.9030 H         1 <0>         0.0874
     39 H14         5.1280   -1.2928    2.6399 H         1 <0>         0.1154
     40 H15         2.7742   -0.6822    3.1221 H         1 <0>         0.1294
     41 H16         2.8582   -2.0473    1.9838 H         1 <0>         0.1296
     42 H17         6.5715    0.6786    0.8245 H         1 <0>         0.0781
     43 H18         6.4897    2.1296    1.8521 H         1 <0>         0.0834
     44 H19         7.1402    2.0338    4.1914 H         1 <0>         0.1217
     45 H20         8.5284    0.9111    5.8871 H         1 <0>         0.1255
     46 H21         9.3283   -1.3853    5.4998 H         1 <0>         0.1254
     47 H22         8.7393   -2.5593    3.4170 H         1 <0>         0.1243
     48 H23         7.3441   -1.4396    1.7249 H         1 <0>         0.1191
     49 H24        -1.2053   -3.5850   -1.1860 H         1 <0>         0.1253
     50 H25        -1.5465   -5.9848   -1.6141 H         1 <0>         0.1348
     51 H26        -1.2715   -6.7643    2.5790 H         1 <0>         0.1353
     52 H27        -0.9216   -4.3641    2.9978 H         1 <0>         0.1295
     53 H28        -0.8005   -8.3463    0.0759 H         1 <0>         0.3975
     54 H29        -1.5515   -1.7456   -0.6025 H         1 <0>         0.3783
     55 H30         2.5872   -0.4582    0.2029 H         1 <0>         0.4190
@<TRIPOS>BOND
     1    1    2 1
     2    1   28 1
     3    1   29 1
     4    1   30 1
     5    2    3 1
     6    2    4 1
     7    2   18 1
     8    4    5 1
     9    4   31 1
    10    4   32 1
    11    5   10 1
    12    5    6 1
    13    5   55 1
    14    6    7 1
    15    6   33 1
    16    6   34 1
    17    7    8 1
    18    7   35 1
    19    7   36 1
    20    8    9 1
    21    8   11 1
    22    8   37 1
    23    9   10 1
    24    9   38 1
    25    9   39 1
    26   10   40 1
    27   10   41 1
    28   11   12 1
    29   11   42 1
    30   11   43 1
    31   12   17 ar
    32   12   13 ar
    33   13   14 ar
    34   13   44 1
    35   14   15 ar
    36   14   45 1
    37   15   16 ar
    38   15   46 1
    39   16   17 ar
    40   16   47 1
    41   17   48 1
    42   18   19 1
    43   18   20 1
    44   18   27 1
    45   20   25 ar
    46   20   21 ar
    47   21   22 ar
    48   21   49 1
    49   22   23 ar
    50   22   50 1
    51   23   24 ar
    52   23   26 1
    53   24   25 ar
    54   24   51 1
    55   25   52 1
    56   26   53 1
    57   27   54 1
@<TRIPOS>MOLECULE
ZINC01481896
   52    55     0     0     0
SMALL
USER_CHARGES
dimethyl-phenethyl-BLAHol
@<TRIPOS>ATOM
      1 C1         -6.1807    6.7631   -4.0595 C.3       1 <0>        -0.1546
      2 C2         -5.9468    6.1156   -2.6931 C.3       1 <0>        -0.0889
      3 H1         -6.7377    5.3945   -2.4870 H         1 <0>         0.1007
      4 C3         -4.5906    5.4108   -2.6819 C.3       1 <0>         0.0346
      5 H2         -4.6349    4.5919   -3.3999 H         1 <0>         0.1316
      6 C4         -3.5092    6.3650   -3.1582 C.3       1 <0>        -0.0897
      7 C5         -3.6465    7.7289   -2.5364 C.ar      1 <0>        -0.1107
      8 C6         -2.5909    8.6197   -2.6985 C.ar      1 <0>        -0.0940
      9 C7         -2.6576    9.8912   -2.1710 C.ar      1 <0>        -0.1365
     10 C8         -3.7874   10.2892   -1.4705 C.ar      1 <0>         0.1242
     11 C9         -4.8366    9.4006   -1.3038 C.ar      1 <0>        -0.1399
     12 C10        -4.7623    8.1209   -1.8326 C.ar      1 <0>        -0.0594
     13 C11        -5.9342    7.1946   -1.6050 C.3       1 <0>        -0.0212
     14 C12        -5.7094    6.4962   -0.2519 C.3       1 <0>        -0.1336
     15 C13        -4.3282    5.8326   -0.2934 C.3       1 <0>        -0.0147
     16 C14        -3.0120    4.1248   -1.3898 C.3       1 <0>        -0.0078
     17 C15        -2.6934    3.6179    0.0181 C.3       1 <0>        -0.1009
     18 C16        -1.3782    2.8822    0.0015 C.ar      1 <0>        -0.1072
     19 C17        -1.3496    1.5232   -0.2498 C.ar      1 <0>        -0.1104
     20 C18        -0.1437    0.8474   -0.2593 C.ar      1 <0>        -0.1138
     21 C19         1.0344    1.5325   -0.0284 C.ar      1 <0>        -0.1047
     22 C20         1.0063    2.8926    0.2172 C.ar      1 <0>        -0.1137
     23 C21        -0.2000    3.5675    0.2320 C.ar      1 <0>        -0.1103
     24 C22        -7.2542    7.9682   -1.5991 C.3       1 <0>        -0.1466
     25 O1         -3.8640   11.5429   -0.9518 O.3       1 <0>        -0.4967
     26 H3         -6.1665    5.9950   -4.8327 H         1 <0>         0.0685
     27 H4         -7.1486    7.2644   -4.0631 H         1 <0>         0.0798
     28 H5         -5.3937    7.4911   -4.2561 H         1 <0>         0.0721
     29 H6         -2.5339    5.9536   -2.8983 H         1 <0>         0.0949
     30 H7         -3.5740    6.4616   -4.2420 H         1 <0>         0.1216
     31 H8         -1.7105    8.3122   -3.2433 H         1 <0>         0.1315
     32 H9         -1.8330   10.5761   -2.3028 H         1 <0>         0.1364
     33 H10        -5.7178    9.7063   -0.7593 H         1 <0>         0.1372
     34 H11        -5.7423    7.2305    0.5529 H         1 <0>         0.1139
     35 H12        -6.4788    5.7404   -0.0939 H         1 <0>         0.0945
     36 H13        -4.1336    5.3388    0.6586 H         1 <0>         0.1305
     37 H14        -3.5660    6.5910   -0.4718 H         1 <0>         0.1348
     38 H15        -2.2224    4.7996   -1.7204 H         1 <0>         0.1346
     39 H16        -3.0774    3.2791   -2.0744 H         1 <0>         0.1304
     40 H17        -3.4830    2.9431    0.3487 H         1 <0>         0.0945
     41 H18        -2.6280    4.4636    0.7027 H         1 <0>         0.0961
     42 H19        -2.2697    0.9887   -0.4346 H         1 <0>         0.1238
     43 H20        -0.1217   -0.2152   -0.4515 H         1 <0>         0.1292
     44 H21         1.9769    1.0053   -0.0403 H         1 <0>         0.1295
     45 H22         1.9268    3.4279    0.3973 H         1 <0>         0.1290
     46 H23        -0.2220    4.6301    0.4239 H         1 <0>         0.1230
     47 H24        -8.0775    7.2806   -1.4053 H         1 <0>         0.0702
     48 H25        -7.2257    8.7297   -0.8197 H         1 <0>         0.0711
     49 H26        -7.3999    8.4455   -2.5682 H         1 <0>         0.0733
     50 H27        -4.2504   12.1944   -1.5530 H         1 <0>         0.4006
     51 N1         -4.3150    4.8038   -1.3632 N.4       1 <0>        -0.3844
     52 H28        -5.0456    4.1112   -1.1613 H         1 <0>         0.4275
@<TRIPOS>BOND
     1    1    2 1
     2    1   26 1
     3    1   27 1
     4    1   28 1
     5    2    3 1
     6    2   13 1
     7    2    4 1
     8    4    5 1
     9    4    6 1
    10    4   51 1
    11    6    7 1
    12    6   29 1
    13    6   30 1
    14    7   12 ar
    15    7    8 ar
    16    8    9 ar
    17    8   31 1
    18    9   10 ar
    19    9   32 1
    20   10   11 ar
    21   10   25 1
    22   11   12 ar
    23   11   33 1
    24   12   13 1
    25   13   14 1
    26   13   24 1
    27   14   15 1
    28   14   34 1
    29   14   35 1
    30   15   36 1
    31   15   37 1
    32   15   51 1
    33   16   17 1
    34   16   38 1
    35   16   39 1
    36   16   51 1
    37   17   18 1
    38   17   40 1
    39   17   41 1
    40   18   23 ar
    41   18   19 ar
    42   19   20 ar
    43   19   42 1
    44   20   21 ar
    45   20   43 1
    46   21   22 ar
    47   21   44 1
    48   22   23 ar
    49   22   45 1
    50   23   46 1
    51   24   47 1
    52   24   48 1
    53   24   49 1
    54   25   50 1
    55   51   52 1
@<TRIPOS>MOLECULE
ZINC00000523
   43    45     0     0     0
SMALL
USER_CHARGES

@<TRIPOS>ATOM
      1 C1         -0.3092    1.4992   -0.1585 C.3       1 <0>        -0.1545
      2 C2         -0.1427   -0.0197   -0.0813 C.3       1 <0>        -0.0891
      3 H1         -1.1219   -0.4942   -0.0163 H         1 <0>         0.1012
      4 C3          0.5921   -0.5217   -1.3233 C.3       1 <0>         0.0282
      5 H2         -0.0501   -0.3358   -2.1842 H         1 <0>         0.1364
      6 C4          1.8721    0.2694   -1.5249 C.3       1 <0>        -0.0949
      7 C5          2.6259    0.4650   -0.2371 C.ar      1 <0>        -0.1124
      8 C6          3.9266    0.9503   -0.3193 C.ar      1 <0>        -0.0941
      9 C7          4.6685    1.1673    0.8216 C.ar      1 <0>        -0.1367
     10 C8          4.1147    0.9020    2.0660 C.ar      1 <0>         0.1248
     11 C9          2.8216    0.4129    2.1483 C.ar      1 <0>        -0.1400
     12 C10         2.0830    0.1878    0.9966 C.ar      1 <0>        -0.0592
     13 C11         0.6927   -0.3866    1.1502 C.3       1 <0>        -0.0221
     14 C12         0.8333   -1.9195    1.1810 C.3       1 <0>        -0.1318
     15 C13         1.5926   -2.3422   -0.0815 C.3       1 <0>        -0.0228
     16 N1          0.8425   -1.9546   -1.2597 N.4       1 <0>        -0.3642
     17 C14         1.5793   -2.3654   -2.4623 C.3       1 <0>         0.0229
     18 C15         1.7022   -3.8671   -2.4876 C.2       1 <0>        -0.2375
     19 C16         1.2835   -4.5411   -3.5300 C.2       1 <0>        -0.1019
     20 C17         0.0296    0.1343    2.4269 C.3       1 <0>        -0.1463
     21 O1          4.8367    1.1202    3.1965 O.3       1 <0>        -0.4966
     22 H3          0.6720    1.9694   -0.2234 H         1 <0>         0.0720
     23 H4         -0.8944    1.7562   -1.0415 H         1 <0>         0.0686
     24 H5         -0.8239    1.8541    0.7343 H         1 <0>         0.0799
     25 H6          2.5096   -0.2627   -2.2310 H         1 <0>         0.0962
     26 H7          1.6232    1.2455   -1.9412 H         1 <0>         0.1210
     27 H8          4.3596    1.1588   -1.2865 H         1 <0>         0.1318
     28 H9          5.6785    1.5426    0.7474 H         1 <0>         0.1367
     29 H10         2.3862    0.2057    3.1147 H         1 <0>         0.1377
     30 H11         1.3919   -2.2217    2.0668 H         1 <0>         0.1134
     31 H12        -0.1541   -2.3811    1.1904 H         1 <0>         0.0947
     32 H13         2.5644   -1.8491   -0.1027 H         1 <0>         0.1307
     33 H14         1.7344   -3.4229   -0.0750 H         1 <0>         0.1335
     34 H15         1.0426   -2.0297   -3.3496 H         1 <0>         0.1324
     35 H16         2.5740   -1.9196   -2.4489 H         1 <0>         0.1358
     36 H17         2.1354   -4.3878   -1.6464 H         1 <0>         0.1336
     37 H18         0.8504   -4.0204   -4.3713 H         1 <0>         0.1119
     38 H19         1.3716   -5.6173   -3.5482 H         1 <0>         0.1234
     39 H20        -0.9613   -0.3084    2.5283 H         1 <0>         0.0701
     40 H21         0.6386   -0.1368    3.2893 H         1 <0>         0.0713
     41 H22        -0.0609    1.2192    2.3726 H         1 <0>         0.0737
     42 H23         4.7358    2.0098    3.5620 H         1 <0>         0.4007
     43 H24        -0.0408   -2.4417   -1.2347 H         1 <0>         0.4213
@<TRIPOS>BOND
     1    1    2 1
     2    1   22 1
     3    1   23 1
     4    1   24 1
     5    2    3 1
     6    2   13 1
     7    2    4 1
     8    4    5 1
     9    4   16 1
    10    4    6 1
    11    6    7 1
    12    6   25 1
    13    6   26 1
    14    7   12 ar
    15    7    8 ar
    16    8    9 ar
    17    8   27 1
    18    9   10 ar
    19    9   28 1
    20   10   11 ar
    21   10   21 1
    22   11   12 ar
    23   11   29 1
    24   12   13 1
    25   13   14 1
    26   13   20 1
    27   14   15 1
    28   14   30 1
    29   14   31 1
    30   15   16 1
    31   15   32 1
    32   15   33 1
    33   16   17 1
    34   16   43 1
    35   17   18 1
    36   17   34 1
    37   17   35 1
    38   18   19 2
    39   18   36 1
    40   19   37 1
    41   19   38 1
    42   20   39 1
    43   20   40 1
    44   20   41 1
    45   21   42 1
@<TRIPOS>MOLECULE
ZINC06031758
   36    38     0     0     0
SMALL
USER_CHARGES
dimethylBLAHol
@<TRIPOS>ATOM
      1 C1          2.8205   -0.5889   -2.4836 C.3       1 <0>        -0.1558
      2 C2          2.1434   -0.0411   -1.2257 C.3       1 <0>        -0.0893
      3 H1          2.6987   -0.3561   -0.3423 H         1 <0>         0.1010
      4 C3          0.7081   -0.5604   -1.1450 C.3       1 <0>         0.0333
      5 H2          0.7518   -1.6421   -1.0180 H         1 <0>         0.1379
      6 C4         -0.0020   -0.2746   -2.4569 C.3       1 <0>        -0.0909
      7 C5          0.2463    1.0992   -2.9662 C.ar      1 <0>        -0.1139
      8 C6         -0.5376    1.5540   -4.0211 C.ar      1 <0>        -0.0931
      9 C7         -0.3328    2.8061   -4.5589 C.ar      1 <0>        -0.1364
     10 C8          0.6641    3.6235   -4.0455 C.ar      1 <0>         0.1254
     11 C9          1.4401    3.1741   -2.9900 C.ar      1 <0>        -0.1405
     12 C10         1.2262    1.9153   -2.4490 C.ar      1 <0>        -0.0622
     13 C11         2.0955    1.4891   -1.2890 C.3       1 <0>        -0.0220
     14 C12         1.4202    1.9928   -0.0008 C.3       1 <0>        -0.1333
     15 C13        -0.0178    1.4619    0.0101 C.3       1 <0>        -0.0095
     16 C14         3.5054    2.0656   -1.4332 C.3       1 <0>        -0.1473
     17 O1          0.8779    4.8566   -4.5752 O.3       1 <0>        -0.4966
     18 H3          2.2683   -0.2626   -3.3649 H         1 <0>         0.0720
     19 H4          3.8434   -0.2161   -2.5372 H         1 <0>         0.0798
     20 H5          2.8323   -1.6781   -2.4449 H         1 <0>         0.0691
     21 H6          0.3327   -0.9933   -3.2050 H         1 <0>         0.1224
     22 H7         -1.0759   -0.3910   -2.3113 H         1 <0>         0.0936
     23 H8         -1.3142    0.9198   -4.4226 H         1 <0>         0.1324
     24 H9         -0.9469    3.1505   -5.3778 H         1 <0>         0.1370
     25 H10         2.2162    3.8073   -2.5863 H         1 <0>         0.1374
     26 H11         1.4117    3.0827    0.0101 H         1 <0>         0.1138
     27 H12         1.9590    1.6181    0.8695 H         1 <0>         0.0950
     28 H13        -0.5451    1.8229   -0.8730 H         1 <0>         0.1329
     29 H14        -0.5281    1.8134    0.9069 H         1 <0>         0.1318
     30 H15         3.9604    1.6881   -2.3490 H         1 <0>         0.0737
     31 H16         3.4505    3.1534   -1.4764 H         1 <0>         0.0713
     32 H17         4.1097    1.7661   -0.5770 H         1 <0>         0.0700
     33 H18         1.5174    4.8677   -5.3004 H         1 <0>         0.4011
     34 N1         -0.0088   -0.0185    0.0201 N.4       1 <0>        -0.5084
     35 H19         0.4534   -0.3438    0.8773 H         1 <0>         0.4334
     36 H20        -0.9776   -0.3583    0.0036 H         1 <0>         0.4348
@<TRIPOS>BOND
     1    1    2 1
     2    1   18 1
     3    1   19 1
     4    1   20 1
     5    2    3 1
     6    2   13 1
     7    2    4 1
     8    4    5 1
     9    4    6 1
    10    4   34 1
    11    6    7 1
    12    6   21 1
    13    6   22 1
    14    7   12 ar
    15    7    8 ar
    16    8    9 ar
    17    8   23 1
    18    9   10 ar
    19    9   24 1
    20   10   11 ar
    21   10   17 1
    22   11   12 ar
    23   11   25 1
    24   12   13 1
    25   13   14 1
    26   13   16 1
    27   14   15 1
    28   14   26 1
    29   14   27 1
    30   15   28 1
    31   15   29 1
    32   15   34 1
    33   16   30 1
    34   16   31 1
    35   16   32 1
    36   17   33 1
    37   34   35 1
    38   34   36 1
@<TRIPOS>MOLECULE
ZINC13642335
   45    48     0     0     0
SMALL
USER_CHARGES

@<TRIPOS>ATOM
      1 C1          0.0042    1.3974   -0.0653 C.ar      1 <0>        -0.1159
      2 C2          1.1699    2.0869   -0.3785 C.ar      1 <0>        -0.1165
      3 C3          2.3768    1.4479   -0.3932 C.ar      1 <0>        -0.1021
      4 C4          2.4423    0.0862   -0.0898 C.ar      1 <0>        -0.0426
      5 C5          1.2592   -0.6183    0.2297 C.ar      1 <0>        -0.0439
      6 C6          0.0362    0.0673    0.2354 C.ar      1 <0>        -0.1062
      7 C7          1.3213   -1.9973    0.5365 C.ar      1 <0>        -0.1102
      8 C8          2.4920   -2.6660    0.5324 C.ar      1 <0>        -0.0919
      9 C9          3.7108   -2.0181    0.2211 C.ar      1 <0>        -0.0575
     10 C10         3.7155   -0.6394   -0.0939 C.ar      1 <0>        -0.0203
     11 C11         4.9178    0.0036   -0.4023 C.ar      1 <0>        -0.1130
     12 C12         6.0865   -0.6961   -0.3989 C.ar      1 <0>        -0.0812
     13 C13         6.0992   -2.0641   -0.0880 C.ar      1 <0>        -0.1189
     14 C14         4.9187   -2.7255    0.2209 C.ar      1 <0>        -0.0423
     15 C15         7.3775   -2.8059   -0.0906 C.2       1 <0>         0.5600
     16 O1          7.4220   -3.9386   -0.5297 O.2       1 <0>        -0.5289
     17 N1          8.4938   -2.2266    0.3938 N.am      1 <0>        -0.5871
     18 C16         8.4381   -0.9113    1.0496 C.3       1 <0>         0.0523
     19 C17         9.1480   -1.0120    2.4038 C.3       1 <0>         0.0406
     20 N2         10.5004   -1.5503    2.2053 N.3       1 <0>        -0.6539
     21 C18        10.4565   -2.9157    1.6653 C.3       1 <0>         0.0190
     22 H1          9.8757   -3.5523    2.3327 H         1 <0>         0.0950
     23 C19         9.7992   -2.8957    0.2862 C.3       1 <0>         0.1291
     24 H2          9.6589   -3.9177   -0.0660 H         1 <0>         0.1400
     25 C20        10.6774   -2.1401   -0.6776 C.2       1 <0>         0.4825
     26 O2         10.4318   -0.9870   -0.9420 O.2       1 <0>        -0.5305
     27 O3         11.7325   -2.7481   -1.2423 O.3       1 <0>        -0.4716
     28 C21        11.8585   -3.4558    1.5489 C.2       1 <0>         0.5056
     29 O4         12.8069   -2.7671    1.8848 O.co2     1 <0>        -0.6717
     30 O5         12.0445   -4.5814    1.1189 O.co2     1 <0>        -0.6794
     31 H3         -0.9392    1.9231   -0.0555 H         1 <0>         0.1235
     32 H4          1.1205    3.1399   -0.6133 H         1 <0>         0.1248
     33 H5          3.2763    1.9929   -0.6386 H         1 <0>         0.1291
     34 H6         -0.8772   -0.4559    0.4769 H         1 <0>         0.1277
     35 H7          0.4115   -2.5261    0.7795 H         1 <0>         0.1278
     36 H8          2.4997   -3.7189    0.7723 H         1 <0>         0.1302
     37 H9          4.9201    1.0562   -0.6439 H         1 <0>         0.1340
     38 H10         7.0119   -0.1932   -0.6381 H         1 <0>         0.1378
     39 H11         4.9321   -3.7786    0.4597 H         1 <0>         0.1402
     40 H12         8.9399   -0.1703    0.4273 H         1 <0>         0.0896
     41 H13         7.3983   -0.6219    1.2019 H         1 <0>         0.0925
     42 H14         9.2133   -0.0219    2.8549 H         1 <0>         0.0860
     43 H15         8.5855   -1.6752    3.0610 H         1 <0>         0.0737
     44 H16        11.0473   -0.9443    1.6123 H         1 <0>         0.3460
     45 H17        12.2352   -2.1838   -1.8455 H         1 <0>         0.3987
@<TRIPOS>BOND
     1    1    6 ar
     2    1    2 ar
     3    1   31 1
     4    2    3 ar
     5    2   32 1
     6    3    4 ar
     7    3   33 1
     8    4   10 ar
     9    4    5 ar
    10    5    6 ar
    11    5    7 ar
    12    6   34 1
    13    7    8 ar
    14    7   35 1
    15    8    9 ar
    16    8   36 1
    17    9   14 ar
    18    9   10 ar
    19   10   11 ar
    20   11   12 ar
    21   11   37 1
    22   12   13 ar
    23   12   38 1
    24   13   14 ar
    25   13   15 1
    26   14   39 1
    27   15   16 2
    28   15   17 am
    29   17   23 1
    30   17   18 1
    31   18   19 1
    32   18   40 1
    33   18   41 1
    34   19   20 1
    35   19   42 1
    36   19   43 1
    37   20   21 1
    38   20   44 1
    39   21   22 1
    40   21   23 1
    41   21   28 1
    42   23   24 1
    43   23   25 1
    44   25   26 2
    45   25   27 1
    46   27   45 1
    47   28   29 2
    48   28   30 1
@<TRIPOS>MOLECULE
ZINC28768623
   27    27     0     0     0
SMALL
USER_CHARGES
(2S,4R)-4-(phosphonomethyl)piperidine-2-carboxylic acid
@<TRIPOS>ATOM
      1 C1         -1.3745   -2.5417   -1.5677 C.3       1 <0>        -0.1674
      2 C2         -1.4183   -4.0649   -1.7090 C.3       1 <0>         0.0024
      3 N1         -2.7510   -4.5544   -1.3342 N.4       1 <0>        -0.5170
      4 C3         -3.0574   -4.2401    0.0671 C.3       1 <0>        -0.0095
      5 H1         -2.2856   -4.7142    0.6913 H         1 <0>         0.1270
      6 C4         -3.0626   -2.7222    0.2615 C.3       1 <0>        -0.1168
      7 C5         -1.6905   -2.1591   -0.1191 C.3       1 <0>        -0.0753
      8 H2         -0.9216   -2.5732    0.5497 H         1 <0>         0.0782
      9 C6         -1.7082   -0.6351    0.0149 C.3       1 <0>        -0.7309
     10 P1          0.0021   -0.0041    0.0020 P.3       1 <0>         2.2817
     11 O1          0.6948   -0.4814   -1.2156 O.2       1 <0>        -1.0838
     12 O2         -0.0198    1.6058    0.0109 O.3       1 <0>        -1.1192
     13 O3          0.7807   -0.5374    1.3064 O.3       1 <0>        -0.9391
     14 C7         -4.4124   -4.7964    0.4218 C.2       1 <0>         0.4598
     15 O4         -5.2035   -5.0629   -0.4516 O.co2     1 <0>        -0.6242
     16 O5         -4.7403   -4.9958    1.7081 O.co2     1 <0>        -0.7122
     17 H3         -2.1197   -2.0880   -2.2377 H         1 <0>         0.0765
     18 H4         -0.3717   -2.1757   -1.8332 H         1 <0>         0.1550
     19 H5         -1.2061   -4.3426   -2.7520 H         1 <0>         0.1238
     20 H6         -0.6633   -4.5163   -1.0486 H         1 <0>         0.1187
     21 H7         -3.5093   -4.0797   -1.9742 H         1 <0>         0.4435
     22 H8         -3.8358   -2.2731   -0.3792 H         1 <0>         0.0761
     23 H9         -3.2777   -2.4881    1.3146 H         1 <0>         0.0998
     24 H10        -2.2661   -0.1995   -0.8271 H         1 <0>         0.0895
     25 H11        -2.1950   -0.3558    0.9610 H         1 <0>         0.0777
     26 H12         1.8317   -0.2583    1.4720 H         1 <0>         0.4463
     27 H13        -2.7912   -5.6457   -1.4659 H         1 <0>         0.4396
@<TRIPOS>BOND
     1    1    7 1
     2    1    2 1
     3    1   17 1
     4    1   18 1
     5    2    3 1
     6    2   19 1
     7    2   20 1
     8    3    4 1
     9    3   21 1
    10    3   27 1
    11    4    5 1
    12    4    6 1
    13    4   14 1
    14    6    7 1
    15    6   22 1
    16    6   23 1
    17    7    8 1
    18    7    9 1
    19    9   10 1
    20    9   24 1
    21    9   25 1
    22   10   11 2
    23   10   12 1
    24   10   13 1
    25   13   26 1
    26   14   15 2
    27   14   16 1
@<TRIPOS>MOLECULE
ZINC29043793
   51    53     0     0     0
SMALL
USER_CHARGES
(2R)-1-(4-aminophenyl)-2-(4-benzyl-1-piperidyl)propan-1-one
@<TRIPOS>ATOM
      1 C1         -0.5038    3.0766    1.0473 C.3       1 <0>        -0.1796
      2 C2         -0.7288    1.5792    1.2668 C.3       1 <0>        -0.0142
      3 H1         -0.3577    0.9956    0.4114 H         1 <0>         0.1548
      4 C3         -2.1996    1.3158    1.4628 C.2       1 <0>         0.4026
      5 O1         -2.6542    1.2177    2.5832 O.2       1 <0>        -0.4540
      6 C4         -3.0820    1.1779    0.2983 C.ar      1 <0>        -0.2666
      7 C5         -2.5600    1.2966   -0.9966 C.ar      1 <0>        -0.0148
      8 C6         -3.3838    1.1633   -2.0774 C.ar      1 <0>        -0.2198
      9 C7         -4.7430    0.9193   -1.8939 C.ar      1 <0>         0.2873
     10 C8         -5.2671    0.8058   -0.6081 C.ar      1 <0>        -0.2218
     11 C9         -4.4497    0.9329    0.4782 C.ar      1 <0>         0.0136
     12 N1         -5.5782    0.7892   -2.9960 N.pl3     1 <0>        -0.8733
     13 N2          0.0100    1.1426    2.4591 N.4       1 <0>        -0.3923
     14 C10         1.4234    1.5317    2.3741 C.3       1 <0>        -0.0089
     15 C11         2.1274    1.1918    3.6897 C.3       1 <0>        -0.1452
     16 C12         2.0075   -0.3117    3.9535 C.3       1 <0>        -0.0939
     17 C13         0.5266   -0.6992    3.9892 C.3       1 <0>        -0.1397
     18 C14        -0.1310   -0.3045    2.6649 C.3       1 <0>        -0.0068
     19 C15         2.6571   -0.6499    5.2969 C.3       1 <0>        -0.0765
     20 C16         4.1382   -0.3828    5.2201 C.ar      1 <0>        -0.0931
     21 C17         5.0014   -1.3853    4.8189 C.ar      1 <0>        -0.1163
     22 C18         6.3596   -1.1391    4.7443 C.ar      1 <0>        -0.1141
     23 C19         6.8556    0.1068    5.0799 C.ar      1 <0>        -0.1170
     24 C20         5.9929    1.1078    5.4857 C.ar      1 <0>        -0.1163
     25 C21         4.6343    0.8629    5.5562 C.ar      1 <0>        -0.1212
     26 H2          0.5698    3.2689    0.9042 H         1 <0>         0.0968
     27 H3         -0.8623    3.6338    1.9253 H         1 <0>         0.0892
     28 H4         -1.0571    3.4035    0.1545 H         1 <0>         0.1128
     29 H5         -1.5071    1.4898   -1.1396 H         1 <0>         0.1261
     30 H6         -2.9816    1.2505   -3.0759 H         1 <0>         0.1321
     31 H7         -6.3215    0.6166   -0.4703 H         1 <0>         0.1330
     32 H8         -4.8567    0.8444    1.4747 H         1 <0>         0.1352
     33 H9         -6.6517    0.5965   -2.8529 H         1 <0>         0.4310
     34 H10        -5.1662    0.8788   -4.0120 H         1 <0>         0.4297
     35 H11         1.9050    0.9859    1.5494 H         1 <0>         0.1269
     36 H12         1.4954    2.6136    2.1891 H         1 <0>         0.1352
     37 H13         3.1893    1.4700    3.6198 H         1 <0>         0.1167
     38 H14         1.6558    1.7490    4.5126 H         1 <0>         0.0897
     39 H15         2.5174   -0.8692    3.1540 H         1 <0>         0.0903
     40 H16         0.4353   -1.7855    4.1365 H         1 <0>         0.1134
     41 H17         0.0299   -0.1737    4.8182 H         1 <0>         0.0917
     42 H18        -1.1985   -0.5685    2.6931 H         1 <0>         0.1301
     43 H19         0.3579   -0.8417    1.8388 H         1 <0>         0.1255
     44 H20         2.2125   -0.0263    6.0865 H         1 <0>         0.0794
     45 H21         2.4876   -1.7116    5.5292 H         1 <0>         0.0835
     46 H22         4.6143   -2.3599    4.5606 H         1 <0>         0.1213
     47 H23         7.0335   -1.9211    4.4270 H         1 <0>         0.1248
     48 H24         7.9171    0.2982    5.0249 H         1 <0>         0.1249
     49 H25         6.3805    2.0812    5.7479 H         1 <0>         0.1242
     50 H26         3.9604    1.6449    5.8735 H         1 <0>         0.1199
     51 H27        -0.4252    1.6494    3.3330 H         1 <0>         0.4442
@<TRIPOS>BOND
     1    1    2 1
     2    1   26 1
     3    1   27 1
     4    1   28 1
     5    2    3 1
     6    2    4 1
     7    2   13 1
     8    4    5 2
     9    4    6 1
    10    6   11 ar
    11    6    7 ar
    12    7    8 ar
    13    7   29 1
    14    8    9 ar
    15    8   30 1
    16    9   10 ar
    17    9   12 1
    18   10   11 ar
    19   10   31 1
    20   11   32 1
    21   12   33 1
    22   12   34 1
    23   13   18 1
    24   13   14 1
    25   13   51 1
    26   14   15 1
    27   14   35 1
    28   14   36 1
    29   15   16 1
    30   15   37 1
    31   15   38 1
    32   16   17 1
    33   16   19 1
    34   16   39 1
    35   17   18 1
    36   17   40 1
    37   17   41 1
    38   18   42 1
    39   18   43 1
    40   19   20 1
    41   19   44 1
    42   19   45 1
    43   20   25 ar
    44   20   21 ar
    45   21   22 ar
    46   21   46 1
    47   22   23 ar
    48   22   47 1
    49   23   24 ar
    50   23   48 1
    51   24   25 ar
    52   24   49 1
    53   25   50 1
@<TRIPOS>MOLECULE
ZINC29043796
   51    53     0     0     0
SMALL
USER_CHARGES
(2S)-1-(4-aminophenyl)-2-(4-benzyl-1-piperidyl)propan-1-one
@<TRIPOS>ATOM
      1 C1          3.0521    3.6321   -1.2616 C.3       1 <0>        -0.1799
      2 C2          3.4497    2.1556   -1.3140 C.3       1 <0>        -0.0145
      3 H1          4.0330    1.9368   -2.2206 H         1 <0>         0.1580
      4 C3          4.2605    1.8100   -0.0916 C.2       1 <0>         0.4044
      5 O1          3.7240    1.2936    0.8660 O.2       1 <0>        -0.4528
      6 C4          5.6991    2.0981   -0.0598 C.ar      1 <0>        -0.2666
      7 C5          6.3219    2.6892   -1.1670 C.ar      1 <0>        -0.0150
      8 C6          7.6598    2.9596   -1.1314 C.ar      1 <0>        -0.2197
      9 C7          8.4074    2.6397   -0.0002 C.ar      1 <0>         0.2872
     10 C8          7.7932    2.0471    1.1009 C.ar      1 <0>        -0.2219
     11 C9          6.4548    1.7776    1.0757 C.ar      1 <0>         0.0134
     12 N1          9.7690    2.9120    0.0297 N.pl3     1 <0>        -0.8732
     13 N2          2.2395    1.3236   -1.3502 N.4       1 <0>        -0.3840
     14 C10         1.3097    1.7002   -0.2778 C.3       1 <0>        -0.0271
     15 C11         0.0044    0.9167   -0.4340 C.3       1 <0>        -0.1379
     16 C12         0.3047   -0.5835   -0.3711 C.3       1 <0>        -0.0941
     17 C13         1.3123   -0.9407   -1.4674 C.3       1 <0>        -0.1404
     18 C14         2.5796   -0.1033   -1.2812 C.3       1 <0>        -0.0151
     19 C15        -0.9877   -1.3731   -0.5875 C.3       1 <0>        -0.0757
     20 C16        -0.7146   -2.8438   -0.4038 C.ar      1 <0>        -0.0929
     21 C17        -0.3397   -3.6176   -1.4862 C.ar      1 <0>        -0.1215
     22 C18        -0.0849   -4.9657   -1.3168 C.ar      1 <0>        -0.1168
     23 C19        -0.2143   -5.5419   -0.0670 C.ar      1 <0>        -0.1173
     24 C20        -0.5938   -4.7690    1.0145 C.ar      1 <0>        -0.1139
     25 C21        -0.8444   -3.4201    0.8460 C.ar      1 <0>        -0.1158
     26 H2          2.4603    3.8843   -2.1539 H         1 <0>         0.0963
     27 H3          3.9583    4.2551   -1.2345 H         1 <0>         0.1120
     28 H4          2.4519    3.8184   -0.3588 H         1 <0>         0.0902
     29 H5          5.7438    2.9341   -2.0458 H         1 <0>         0.1266
     30 H6          8.1399    3.4189   -1.9829 H         1 <0>         0.1322
     31 H7          8.3764    1.8007    1.9758 H         1 <0>         0.1327
     32 H8          5.9794    1.3185    1.9298 H         1 <0>         0.1345
     33 H9         10.3608    2.6601    0.9221 H         1 <0>         0.4309
     34 H10        10.2556    3.3796   -0.8390 H         1 <0>         0.4298
     35 H11         1.7617    1.4679    0.6978 H         1 <0>         0.1488
     36 H12         1.0990    2.7782   -0.3369 H         1 <0>         0.1304
     37 H13        -0.6859    1.1886    0.3781 H         1 <0>         0.1115
     38 H14        -0.4556    1.1601   -1.4031 H         1 <0>         0.0871
     39 H15         0.7237   -0.8366    0.6140 H         1 <0>         0.0914
     40 H16         1.5637   -2.0095   -1.4002 H         1 <0>         0.1144
     41 H17         0.8722   -0.7289   -2.4530 H         1 <0>         0.0879
     42 H18         3.2999   -0.3474   -2.0760 H         1 <0>         0.1272
     43 H19         3.0256   -0.3270   -0.3009 H         1 <0>         0.1349
     44 H20        -1.7434   -1.0465    0.1421 H         1 <0>         0.0829
     45 H21        -1.3606   -1.1939   -1.6067 H         1 <0>         0.0783
     46 H22        -0.2426   -3.1682   -2.4635 H         1 <0>         0.1194
     47 H23         0.2120   -5.5694   -2.1617 H         1 <0>         0.1239
     48 H24        -0.0185   -6.5958    0.0647 H         1 <0>         0.1247
     49 H25        -0.6950   -5.2192    1.9909 H         1 <0>         0.1248
     50 H26        -1.1413   -2.8163    1.6908 H         1 <0>         0.1215
     51 H27         1.7335    1.5016   -2.3105 H         1 <0>         0.4388
@<TRIPOS>BOND
     1    1    2 1
     2    1   26 1
     3    1   27 1
     4    1   28 1
     5    2    3 1
     6    2    4 1
     7    2   13 1
     8    4    5 2
     9    4    6 1
    10    6   11 ar
    11    6    7 ar
    12    7    8 ar
    13    7   29 1
    14    8    9 ar
    15    8   30 1
    16    9   10 ar
    17    9   12 1
    18   10   11 ar
    19   10   31 1
    20   11   32 1
    21   12   33 1
    22   12   34 1
    23   13   18 1
    24   13   14 1
    25   13   51 1
    26   14   15 1
    27   14   35 1
    28   14   36 1
    29   15   16 1
    30   15   37 1
    31   15   38 1
    32   16   17 1
    33   16   19 1
    34   16   39 1
    35   17   18 1
    36   17   40 1
    37   17   41 1
    38   18   42 1
    39   18   43 1
    40   19   20 1
    41   19   44 1
    42   19   45 1
    43   20   25 ar
    44   20   21 ar
    45   21   22 ar
    46   21   46 1
    47   22   23 ar
    48   22   47 1
    49   23   24 ar
    50   23   48 1
    51   24   25 ar
    52   24   49 1
    53   25   50 1
@<TRIPOS>MOLECULE
ZINC13642369
   45    48     0     0     0
SMALL
USER_CHARGES

@<TRIPOS>ATOM
      1 C1          1.8952    0.2071    6.1843 C.ar      1 <0>        -0.1160
      2 C2          3.0757    0.9177    6.0014 C.ar      1 <0>        -0.1167
      3 C3          4.0749    0.4213    5.2137 C.ar      1 <0>        -0.1021
      4 C4          3.9104   -0.8147    4.5846 C.ar      1 <0>        -0.0428
      5 C5          2.7115   -1.5406    4.7685 C.ar      1 <0>        -0.0438
      6 C6          1.7051   -1.0025    5.5831 C.ar      1 <0>        -0.1061
      7 C7          2.5406   -2.7919    4.1324 C.ar      1 <0>        -0.1103
      8 C8          3.5015   -3.3173    3.3461 C.ar      1 <0>        -0.0916
      9 C9          4.7238   -2.6405    3.1221 C.ar      1 <0>        -0.0568
     10 C10         4.9558   -1.3850    3.7306 C.ar      1 <0>        -0.0215
     11 C11         6.1620   -0.7136    3.5111 C.ar      1 <0>        -0.1119
     12 C12         7.1160   -1.2675    2.7120 C.ar      1 <0>        -0.1114
     13 C13         6.9018   -2.5123    2.1015 C.ar      1 <0>        -0.1167
     14 C14         5.7124   -3.1985    2.3031 C.ar      1 <0>        -0.0372
     15 C15         7.9489   -3.0961    1.2371 C.2       1 <0>         0.5503
     16 O1          8.0360   -4.3028    1.1183 O.2       1 <0>        -0.5128
     17 N1          8.8072   -2.2906    0.5805 N.am      1 <0>        -0.5941
     18 C16         8.7620   -0.8317    0.7617 C.3       1 <0>         0.0703
     19 C17         8.7050   -0.1712   -0.6199 C.3       1 <0>         0.0354
     20 N2          9.8212   -0.6611   -1.4397 N.3       1 <0>        -0.6590
     21 C18         9.7154   -2.1074   -1.6745 C.3       1 <0>         0.0200
     22 H1          8.7573   -2.3305   -2.1438 H         1 <0>         0.0486
     23 C19         9.8178   -2.8477   -0.3314 C.3       1 <0>         0.1793
     24 H2         10.8117   -2.7064    0.0932 H         1 <0>         0.1049
     25 C20         9.5563   -4.3171   -0.5401 C.2       1 <0>         0.5184
     26 O2          8.5088   -4.6823   -1.0189 O.2       1 <0>        -0.5086
     27 O3         10.4871   -5.2202   -0.1940 O.3       1 <0>        -0.5034
     28 C21        10.8347   -2.5532   -2.5796 C.2       1 <0>         0.4983
     29 O4         11.7463   -1.7879   -2.8442 O.co2     1 <0>        -0.6692
     30 O5         10.8289   -3.6791   -3.0473 O.co2     1 <0>        -0.6828
     31 H3          1.1195    0.6163    6.8146 H         1 <0>         0.1234
     32 H4          3.2042    1.8736    6.4874 H         1 <0>         0.1249
     33 H5          4.9879    0.9819    5.0778 H         1 <0>         0.1294
     34 H6          0.7828   -1.5438    5.7340 H         1 <0>         0.1276
     35 H7          1.6209   -3.3385    4.2799 H         1 <0>         0.1279
     36 H8          3.3349   -4.2758    2.8772 H         1 <0>         0.1304
     37 H9          6.3377    0.2456    3.9753 H         1 <0>         0.1353
     38 H10         8.0457   -0.7434    2.5466 H         1 <0>         0.1631
     39 H11         5.5507   -4.1565    1.8315 H         1 <0>         0.1419
     40 H12         7.8746   -0.5611    1.3338 H         1 <0>         0.1259
     41 H13         9.6564   -0.5004    1.2893 H         1 <0>         0.0856
     42 H14         7.7610   -0.4214   -1.1040 H         1 <0>         0.0303
     43 H15         8.7822    0.9104   -0.5094 H         1 <0>         0.0868
     44 H16         9.8781   -0.1565   -2.3116 H         1 <0>         0.3558
     45 H17        10.2292   -6.1363   -0.3653 H         1 <0>         0.4011
@<TRIPOS>BOND
     1    1    6 ar
     2    1    2 ar
     3    1   31 1
     4    2    3 ar
     5    2   32 1
     6    3    4 ar
     7    3   33 1
     8    4   10 ar
     9    4    5 ar
    10    5    6 ar
    11    5    7 ar
    12    6   34 1
    13    7    8 ar
    14    7   35 1
    15    8    9 ar
    16    8   36 1
    17    9   14 ar
    18    9   10 ar
    19   10   11 ar
    20   11   12 ar
    21   11   37 1
    22   12   13 ar
    23   12   38 1
    24   13   14 ar
    25   13   15 1
    26   14   39 1
    27   15   16 2
    28   15   17 am
    29   17   23 1
    30   17   18 1
    31   18   19 1
    32   18   40 1
    33   18   41 1
    34   19   20 1
    35   19   42 1
    36   19   43 1
    37   20   21 1
    38   20   44 1
    39   21   22 1
    40   21   23 1
    41   21   28 1
    42   23   24 1
    43   23   25 1
    44   25   26 2
    45   25   27 1
    46   27   45 1
    47   28   29 2
    48   28   30 1
@<TRIPOS>MOLECULE
ZINC04785698
   50    53     0     0     0
SMALL
USER_CHARGES
2-(4-benzyl-1-piperidyl)-1-(1H-indol-3-yl)ethanone
@<TRIPOS>ATOM
      1 C1         -7.7372   -5.1077    4.4925 C.ar      1 <0>        -0.1166
      2 C2         -7.8130   -4.0916    3.5584 C.ar      1 <0>        -0.1160
      3 C3         -7.1404   -4.2064    2.3562 C.ar      1 <0>        -0.1205
      4 C4         -6.3913   -5.3369    2.0885 C.ar      1 <0>        -0.0946
      5 C5         -6.3194   -6.3551    3.0206 C.ar      1 <0>        -0.1163
      6 C6         -6.9885   -6.2384    4.2246 C.ar      1 <0>        -0.1147
      7 C7         -5.6580   -5.4620    0.7779 C.3       1 <0>        -0.0745
      8 C8         -4.2519   -4.8763    0.9222 C.3       1 <0>        -0.0945
      9 C9         -3.4634   -5.1143   -0.3686 C.3       1 <0>        -0.1436
     10 C10        -2.0790   -4.4747   -0.2402 C.3       1 <0>        -0.0019
     11 C11        -2.9377   -2.7813    1.2656 C.3       1 <0>        -0.0081
     12 C12        -4.3477   -3.3704    1.1822 C.3       1 <0>        -0.1431
     13 C13        -0.9178   -2.3640   -0.0019 C.3       1 <0>        -0.0368
     14 C14        -1.1194   -0.8706    0.0081 C.2       1 <0>         0.4191
     15 O1         -2.2425   -0.4097    0.0213 O.2       1 <0>        -0.4591
     16 C15         0.0021   -0.0041    0.0020 C.2       1 <0>        -0.2976
     17 C16         1.3311   -0.3701   -0.0126 C.2       1 <0>         0.1591
     18 N1          2.1041    0.7326   -0.0141 N.pl3     1 <0>        -0.5513
     19 H1          3.0740    0.7262   -0.0229 H         1 <0>         0.4298
     20 C17         1.3271    1.8734   -0.0006 C.ar      1 <0>         0.0688
     21 C18        -0.0179    1.4720    0.0101 C.ar      1 <0>        -0.0515
     22 C19        -1.0319    2.4248    0.0299 C.ar      1 <0>        -0.0801
     23 C20        -0.7090    3.7649    0.0282 C.ar      1 <0>        -0.1169
     24 C21         0.6191    4.1639    0.0177 C.ar      1 <0>        -0.0948
     25 C22         1.6328    3.2304    0.0034 C.ar      1 <0>        -0.1117
     26 H2         -8.2627   -5.0181    5.4318 H         1 <0>         0.1249
     27 H3         -8.3980   -3.2082    3.7677 H         1 <0>         0.1245
     28 H4         -7.1999   -3.4126    1.6262 H         1 <0>         0.1203
     29 H5         -5.7377   -7.2403    2.8097 H         1 <0>         0.1213
     30 H6         -6.9290   -7.0322    4.9546 H         1 <0>         0.1248
     31 H7         -6.2005   -4.9181    0.0046 H         1 <0>         0.0786
     32 H8         -5.5868   -6.5136    0.5003 H         1 <0>         0.0826
     33 H9         -3.7405   -5.3580    1.7556 H         1 <0>         0.0903
     34 H10        -3.9951   -4.6658   -1.2077 H         1 <0>         0.0901
     35 H11        -3.3551   -6.1858   -0.5365 H         1 <0>         0.1142
     36 H12        -1.5202   -4.6301   -1.1631 H         1 <0>         0.1294
     37 H13        -1.5427   -4.9334    0.5905 H         1 <0>         0.1317
     38 H14        -2.3973   -3.2479    2.0893 H         1 <0>         0.1268
     39 H15        -3.0025   -1.7068    1.4364 H         1 <0>         0.1397
     40 H16        -4.8933   -2.8944    0.3674 H         1 <0>         0.0894
     41 H17        -4.8718   -3.1959    2.1219 H         1 <0>         0.1147
     42 H18        -0.4073   -2.6259   -0.8209 H         1 <0>         0.1370
     43 H19        -0.3515   -2.6601    0.8812 H         1 <0>         0.1592
     44 H20         1.6966   -1.3863   -0.0219 H         1 <0>         0.1880
     45 H21        -2.0667    2.1159    0.0431 H         1 <0>         0.1333
     46 H22        -1.4935    4.5071    0.0394 H         1 <0>         0.1335
     47 H23         0.8613    5.2164    0.0204 H         1 <0>         0.1365
     48 H24         2.6638    3.5521   -0.0051 H         1 <0>         0.1300
     49 N2         -2.2404   -3.0223   -0.0155 N.4       1 <0>        -0.3858
     50 H25        -2.8015   -2.6275   -0.7794 H         1 <0>         0.4324
@<TRIPOS>BOND
     1    1    6 ar
     2    1    2 ar
     3    1   26 1
     4    2    3 ar
     5    2   27 1
     6    3    4 ar
     7    3   28 1
     8    4    5 ar
     9    4    7 1
    10    5    6 ar
    11    5   29 1
    12    6   30 1
    13    7    8 1
    14    7   31 1
    15    7   32 1
    16    8   12 1
    17    8    9 1
    18    8   33 1
    19    9   10 1
    20    9   34 1
    21    9   35 1
    22   10   36 1
    23   10   37 1
    24   10   49 1
    25   11   12 1
    26   11   38 1
    27   11   39 1
    28   11   49 1
    29   12   40 1
    30   12   41 1
    31   13   14 1
    32   13   42 1
    33   13   43 1
    34   13   49 1
    35   14   15 2
    36   14   16 1
    37   16   21 1
    38   16   17 2
    39   17   18 1
    40   17   44 1
    41   18   19 1
    42   18   20 1
    43   20   25 ar
    44   20   21 ar
    45   21   22 ar
    46   22   23 ar
    47   22   45 1
    48   23   24 ar
    49   23   46 1
    50   24   25 ar
    51   24   47 1
    52   25   48 1
    53   49   50 1
@<TRIPOS>MOLECULE
ZINC13489844
   34    36     0     0     0
SMALL
USER_CHARGES
2-(2-methyl-4-pyridyl)-3,4-dihydro-1H-isoquinoline
@<TRIPOS>ATOM
      1 C1         -4.2009    1.6778   -2.5678 C.3       1 <0>        -0.1520
      2 C2         -2.7680    2.0857   -2.3411 C.ar      1 <0>         0.2000
      3 C3         -2.0744    1.5677   -1.2675 C.ar      1 <0>        -0.1680
      4 C4         -0.7507    1.9568   -1.0646 C.ar      1 <0>         0.2512
      5 C5         -0.1786    2.8505   -1.9701 C.ar      1 <0>        -0.2002
      6 C6         -0.9386    3.3173   -3.0214 C.ar      1 <0>         0.1720
      7 N1         -0.0178    1.4621    0.0101 N.pl3     1 <0>        -0.4671
      8 C7          1.3555    1.9907   -0.0002 C.3       1 <0>         0.0333
      9 C8          1.9891    1.7224    1.3651 C.3       1 <0>        -0.0806
     10 C9          1.8074    0.2741    1.7407 C.ar      1 <0>        -0.0741
     11 C10         2.5980   -0.2512    2.7517 C.ar      1 <0>        -0.1145
     12 C11         2.4578   -1.5705    3.1325 C.ar      1 <0>        -0.1046
     13 C12         1.5244   -2.3726    2.5024 C.ar      1 <0>        -0.1138
     14 C13         0.7387   -1.8514    1.4945 C.ar      1 <0>        -0.1073
     15 C14         0.8791   -0.5259    1.1098 C.ar      1 <0>        -0.1024
     16 C15         0.0021   -0.0041    0.0020 C.3       1 <0>         0.1018
     17 H1         -4.2305    0.7911   -3.2009 H         1 <0>         0.1151
     18 H2         -4.6715    1.4562   -1.6099 H         1 <0>         0.1144
     19 H3         -4.7372    2.4912   -3.0565 H         1 <0>         0.0981
     20 H4         -2.5511    0.8740   -0.5907 H         1 <0>         0.1842
     21 H5          0.8454    3.1718   -1.8495 H         1 <0>         0.1873
     22 H6         -0.5039    4.0095   -3.7274 H         1 <0>         0.1975
     23 H7          1.9344    1.4910   -0.7769 H         1 <0>         0.0763
     24 H8          1.3334    3.0639   -0.1892 H         1 <0>         0.1025
     25 H9          1.5126    2.3533    2.1155 H         1 <0>         0.0931
     26 H10         3.0532    1.9539    1.3204 H         1 <0>         0.0977
     27 H11         3.3271    0.3754    3.2439 H         1 <0>         0.1284
     28 H12         3.0757   -1.9752    3.9204 H         1 <0>         0.1302
     29 H13         1.4102   -3.4049    2.7985 H         1 <0>         0.1304
     30 H14         0.0103   -2.4790    1.0026 H         1 <0>         0.1262
     31 H15        -1.0123   -0.3783    0.1398 H         1 <0>         0.1065
     32 H16         0.3873   -0.3533   -0.9560 H         1 <0>         0.0777
     33 N2         -2.2335    2.9582   -3.2384 N.ar      1 <0>        -0.5121
     34 H17        -2.7742    3.3236   -4.0310 H         1 <0>         0.4731
@<TRIPOS>BOND
     1    1    2 1
     2    1   17 1
     3    1   18 1
     4    1   19 1
     5    2    3 ar
     6    2   33 ar
     7    3    4 ar
     8    3   20 1
     9    4    5 ar
    10    4    7 1
    11    5    6 ar
    12    5   21 1
    13    6   22 1
    14    6   33 ar
    15    7   16 1
    16    7    8 1
    17    8    9 1
    18    8   23 1
    19    8   24 1
    20    9   10 1
    21    9   25 1
    22    9   26 1
    23   10   15 ar
    24   10   11 ar
    25   11   12 ar
    26   11   27 1
    27   12   13 ar
    28   12   28 1
    29   13   14 ar
    30   13   29 1
    31   14   15 ar
    32   14   30 1
    33   15   16 1
    34   16   31 1
    35   16   32 1
    36   33   34 1
@<TRIPOS>MOLECULE
ZINC00014669
   52    54     0     0     0
SMALL
USER_CHARGES

@<TRIPOS>ATOM
      1 C1         -0.0187    1.5258    0.0104 C.3       1 <0>        -0.1955
      2 C2          0.0021   -0.0041    0.0020 C.3       1 <0>        -0.0083
      3 H1         -1.0205   -0.3814    0.0098 H         1 <0>         0.1468
      4 C3          0.7182   -0.4975   -1.2568 C.3       1 <0>         0.1400
      5 H2          0.8116   -1.5829   -1.2198 H         1 <0>         0.1310
      6 C4         -0.0771   -0.1029   -2.4745 C.ar      1 <0>        -0.1512
      7 C5          0.0941    1.1497   -3.0345 C.ar      1 <0>        -0.0890
      8 C6         -0.6341    1.5140   -4.1505 C.ar      1 <0>        -0.1398
      9 C7         -1.5374    0.6217   -4.7096 C.ar      1 <0>         0.1316
     10 C8         -1.7070   -0.6346   -4.1460 C.ar      1 <0>        -0.1402
     11 C9         -0.9726   -0.9960   -3.0331 C.ar      1 <0>        -0.0838
     12 O1         -2.2553    0.9780   -5.8071 O.3       1 <0>        -0.4970
     13 O2          2.0188    0.0904   -1.3262 O.3       1 <0>        -0.5453
     14 N1          0.7126   -0.4907    1.1921 N.4       1 <0>        -0.3761
     15 C10         0.7394   -1.9582    1.1781 C.3       1 <0>        -0.0130
     16 C11         1.5480   -2.4687    2.3727 C.3       1 <0>        -0.1408
     17 C12         0.8958   -1.9809    3.6696 C.3       1 <0>        -0.0939
     18 C13         0.8055   -0.4524    3.6405 C.3       1 <0>        -0.1446
     19 C14         0.0245   -0.0166    2.3989 C.3       1 <0>        -0.0111
     20 C15         1.7430   -2.4207    4.8653 C.3       1 <0>        -0.0745
     21 C16         1.0387   -2.0476    6.1443 C.ar      1 <0>        -0.0945
     22 C17         1.2668   -0.8138    6.7244 C.ar      1 <0>        -0.1215
     23 C18         0.6208   -0.4716    7.8976 C.ar      1 <0>        -0.1162
     24 C19        -0.2537   -1.3631    8.4905 C.ar      1 <0>        -0.1164
     25 C20        -0.4825   -2.5965    7.9099 C.ar      1 <0>        -0.1138
     26 C21         0.1602   -2.9370    6.7344 C.ar      1 <0>        -0.1161
     27 H3          1.0039    1.9031    0.0027 H         1 <0>         0.0830
     28 H4         -0.5459    1.8868   -0.8726 H         1 <0>         0.1122
     29 H5         -0.5289    1.8773    0.9072 H         1 <0>         0.0916
     30 H6          0.7975    1.8439   -2.5989 H         1 <0>         0.1273
     31 H7         -0.5005    2.4927   -4.5871 H         1 <0>         0.1383
     32 H8         -2.4096   -1.3309   -4.5794 H         1 <0>         0.1385
     33 H9         -1.1011   -1.9755   -2.5967 H         1 <0>         0.1312
     34 H10        -1.8251    0.7616   -6.6457 H         1 <0>         0.4023
     35 H11         2.0123    1.0567   -1.3619 H         1 <0>         0.3863
     36 H12        -0.2795   -2.3404    1.2397 H         1 <0>         0.1288
     37 H13         1.2010   -2.3039    0.2532 H         1 <0>         0.1321
     38 H14         1.5652   -3.5585    2.3616 H         1 <0>         0.1138
     39 H15         2.5673   -2.0873    2.3121 H         1 <0>         0.0906
     40 H16        -0.1053   -2.4035    3.7555 H         1 <0>         0.0907
     41 H17         0.2921   -0.1010    4.5354 H         1 <0>         0.1157
     42 H18         1.8094   -0.0291    3.6061 H         1 <0>         0.0886
     43 H19        -0.0418    1.0711    2.3751 H         1 <0>         0.1320
     44 H20        -0.9792   -0.4402    2.4344 H         1 <0>         0.1280
     45 H21         1.8865   -3.5007    4.8312 H         1 <0>         0.0833
     46 H22         2.7124   -1.9239    4.8261 H         1 <0>         0.0787
     47 H23         1.9500   -0.1173    6.2612 H         1 <0>         0.1195
     48 H24         0.7995    0.4921    8.3512 H         1 <0>         0.1244
     49 H25        -0.7579   -1.0960    9.4075 H         1 <0>         0.1252
     50 H26        -1.1655   -3.2931    8.3733 H         1 <0>         0.1252
     51 H27        -0.0214   -3.8992    6.2788 H         1 <0>         0.1215
     52 H28         1.6582   -0.1389    1.1853 H         1 <0>         0.4240
@<TRIPOS>BOND
     1    1    2 1
     2    1   27 1
     3    1   28 1
     4    1   29 1
     5    2    3 1
     6    2    4 1
     7    2   14 1
     8    4    5 1
     9    4    6 1
    10    4   13 1
    11    6   11 ar
    12    6    7 ar
    13    7    8 ar
    14    7   30 1
    15    8    9 ar
    16    8   31 1
    17    9   10 ar
    18    9   12 1
    19   10   11 ar
    20   10   32 1
    21   11   33 1
    22   12   34 1
    23   13   35 1
    24   14   19 1
    25   14   15 1
    26   14   52 1
    27   15   16 1
    28   15   36 1
    29   15   37 1
    30   16   17 1
    31   16   38 1
    32   16   39 1
    33   17   18 1
    34   17   20 1
    35   17   40 1
    36   18   19 1
    37   18   41 1
    38   18   42 1
    39   19   43 1
    40   19   44 1
    41   20   21 1
    42   20   45 1
    43   20   46 1
    44   21   26 ar
    45   21   22 ar
    46   22   23 ar
    47   22   47 1
    48   23   24 ar
    49   23   48 1
    50   24   25 ar
    51   24   49 1
    52   25   26 ar
    53   25   50 1
    54   26   51 1
@<TRIPOS>MOLECULE
ZINC00000596
   49    51     0     0     0
SMALL
USER_CHARGES
dimethyl-(3-methylbut-2-enyl)BLAHol
@<TRIPOS>ATOM
      1 C1          1.1810    0.6734   -0.4602 C.3       1 <0>        -0.1552
      2 C2         -0.3103    0.3734   -0.2964 C.3       1 <0>        -0.0889
      3 H1         -0.4566   -0.6974   -0.1546 H         1 <0>         0.1007
      4 C3         -0.8596    1.1333    0.9106 C.3       1 <0>         0.0339
      5 H2         -0.3716    0.7400    1.8024 H         1 <0>         0.1315
      6 C4         -0.4886    2.6026    0.8088 C.3       1 <0>        -0.0890
      7 C5         -0.7124    3.1461   -0.5773 C.ar      1 <0>        -0.1105
      8 C6         -0.6417    4.5245   -0.7476 C.ar      1 <0>        -0.0947
      9 C7         -0.8037    5.0868   -1.9953 C.ar      1 <0>        -0.1368
     10 C8         -1.0399    4.2730   -3.0941 C.ar      1 <0>         0.1240
     11 C9         -1.1181    2.9007   -2.9238 C.ar      1 <0>        -0.1397
     12 C10        -0.9596    2.3404   -1.6653 C.ar      1 <0>        -0.0583
     13 C11        -1.0712    0.8387   -1.5424 C.3       1 <0>        -0.0213
     14 C12        -2.5604    0.5047   -1.3358 C.3       1 <0>        -0.1334
     15 C13        -3.0578    1.3124   -0.1317 C.3       1 <0>        -0.0053
     16 C14        -2.8018    1.6243    2.2533 C.3       1 <0>         0.0259
     17 C15        -4.2991    1.4695    2.3258 C.2       1 <0>        -0.2563
     18 C16        -5.0630    2.5289    2.4263 C.2       1 <0>        -0.0381
     19 C17        -4.4429    3.8911    2.6019 C.3       1 <0>        -0.1488
     20 C18        -6.5620    2.3854    2.3663 C.3       1 <0>        -0.1379
     21 C19        -0.5306    0.1432   -2.7933 C.3       1 <0>        -0.1469
     22 O1         -1.1938    4.8189   -4.3291 O.3       1 <0>        -0.4948
     23 H3          1.7168    0.3508    0.4325 H         1 <0>         0.0686
     24 H4          1.5661    0.1382   -1.3282 H         1 <0>         0.0801
     25 H5          1.3227    1.7449   -0.6017 H         1 <0>         0.0720
     26 H6         -1.0945    3.1709    1.5146 H         1 <0>         0.0928
     27 H7          0.5628    2.7216    1.0708 H         1 <0>         0.1221
     28 H8         -0.4582    5.1602    0.1059 H         1 <0>         0.1313
     29 H9         -0.7465    6.1583   -2.1177 H         1 <0>         0.1363
     30 H10        -1.3033    2.2635   -3.7759 H         1 <0>         0.1374
     31 H11        -2.6758   -0.5611   -1.1388 H         1 <0>         0.0935
     32 H12        -3.1280    0.7795   -2.2249 H         1 <0>         0.1121
     33 H13        -4.1155    1.1061    0.0322 H         1 <0>         0.1284
     34 H14        -2.9211    2.3761   -0.3263 H         1 <0>         0.1309
     35 H15        -2.3482    1.1918    3.1451 H         1 <0>         0.1302
     36 H16        -2.5484    2.6828    2.1938 H         1 <0>         0.1348
     37 H17        -4.7423    0.4851    2.2948 H         1 <0>         0.1345
     38 H18        -4.1823    4.3003    1.6258 H         1 <0>         0.0808
     39 H19        -5.1543    4.5533    3.0953 H         1 <0>         0.0842
     40 H20        -3.5435    3.8050    3.2116 H         1 <0>         0.0726
     41 H21        -6.8215    1.3347    2.2372 H         1 <0>         0.0712
     42 H22        -6.9998    2.7566    3.2929 H         1 <0>         0.0829
     43 H23        -6.9487    2.9612    1.5255 H         1 <0>         0.0838
     44 H24        -0.6488   -0.9354   -2.6891 H         1 <0>         0.0700
     45 H25        -1.0835    0.4866   -3.6676 H         1 <0>         0.0708
     46 H26         0.5259    0.3828   -2.9143 H         1 <0>         0.0738
     47 H27        -2.1084    5.0436   -4.5486 H         1 <0>         0.3984
     48 N1         -2.3079    0.8926    1.0783 N.4       1 <0>        -0.3801
     49 H28        -2.4589   -0.1122    1.2258 H         1 <0>         0.4267
@<TRIPOS>BOND
     1    1    2 1
     2    1   23 1
     3    1   24 1
     4    1   25 1
     5    2    3 1
     6    2   13 1
     7    2    4 1
     8    4    5 1
     9    4    6 1
    10    4   48 1
    11    6    7 1
    12    6   26 1
    13    6   27 1
    14    7   12 ar
    15    7    8 ar
    16    8    9 ar
    17    8   28 1
    18    9   10 ar
    19    9   29 1
    20   10   11 ar
    21   10   22 1
    22   11   12 ar
    23   11   30 1
    24   12   13 1
    25   13   14 1
    26   13   21 1
    27   14   15 1
    28   14   31 1
    29   14   32 1
    30   15   33 1
    31   15   34 1
    32   15   48 1
    33   16   17 1
    34   16   35 1
    35   16   36 1
    36   16   48 1
    37   17   18 2
    38   17   37 1
    39   18   19 1
    40   18   20 1
    41   19   38 1
    42   19   39 1
    43   19   40 1
    44   20   41 1
    45   20   42 1
    46   20   43 1
    47   21   44 1
    48   21   45 1
    49   21   46 1
    50   22   47 1
    51   48   49 1
@<TRIPOS>MOLECULE
ZINC03830613
   46    49     0     0     0
SMALL
USER_CHARGES

@<TRIPOS>ATOM
      1 C1         -0.3045    1.4999   -0.1559 C.3       1 <0>        -0.1545
      2 C2         -0.1403   -0.0193   -0.0800 C.3       1 <0>        -0.0889
      3 H1         -1.1203   -0.4924   -0.0160 H         1 <0>         0.1013
      4 C3          0.5943   -0.5212   -1.3221 C.3       1 <0>         0.0286
      5 H2         -0.0471   -0.3336   -2.1832 H         1 <0>         0.1368
      6 C4          1.8757    0.2680   -1.5223 C.3       1 <0>        -0.0946
      7 C5          2.6291    0.4612   -0.2339 C.ar      1 <0>        -0.1122
      8 C6          3.9306    0.9446   -0.3149 C.ar      1 <0>        -0.0943
      9 C7          4.6722    1.1594    0.8266 C.ar      1 <0>        -0.1367
     10 C8          4.1174    0.8937    2.0704 C.ar      1 <0>         0.1249
     11 C9          2.8234    0.4066    2.1516 C.ar      1 <0>        -0.1399
     12 C10         2.0851    0.1837    0.9993 C.ar      1 <0>        -0.0588
     13 C11         0.6938   -0.3887    1.1516 C.3       1 <0>        -0.0221
     14 C12         0.8320   -1.9218    1.1810 C.3       1 <0>        -0.1320
     15 C13         1.5913   -2.3444   -0.0815 C.3       1 <0>        -0.0206
     16 N1          0.8425   -1.9546   -1.2597 N.4       1 <0>        -0.3638
     17 C14         1.5793   -2.3654   -2.4623 C.3       1 <0>         0.0196
     18 C15         1.7041   -3.8901   -2.4880 C.3       1 <0>        -0.2098
     19 C16         3.1111   -4.4853   -2.4046 C.3       1 <0>        -0.1679
     20 C17         2.3402   -4.5260   -3.7256 C.3       1 <0>        -0.1485
     21 C18         0.0309    0.1321    2.4285 C.3       1 <0>        -0.1463
     22 O1          4.8391    1.1098    3.2015 O.3       1 <0>        -0.4966
     23 H3          0.6775    1.9687   -0.2197 H         1 <0>         0.0719
     24 H4         -0.8887    1.7587   -1.0389 H         1 <0>         0.0687
     25 H5         -0.8191    1.8548    0.7371 H         1 <0>         0.0800
     26 H6          2.5128   -0.2644   -2.2285 H         1 <0>         0.0953
     27 H7          1.6285    1.2449   -1.9378 H         1 <0>         0.1211
     28 H8          4.3644    1.1534   -1.2817 H         1 <0>         0.1314
     29 H9          5.6828    1.5332    0.7533 H         1 <0>         0.1366
     30 H10         2.3872    0.1992    3.1176 H         1 <0>         0.1377
     31 H11         1.3897   -2.2257    2.0668 H         1 <0>         0.1134
     32 H12        -0.1561   -2.3819    1.1895 H         1 <0>         0.0943
     33 H13         2.5640   -1.8529   -0.1017 H         1 <0>         0.1304
     34 H14         1.7315   -3.4254   -0.0760 H         1 <0>         0.1339
     35 H15         1.0426   -2.0297   -3.3496 H         1 <0>         0.1343
     36 H16         2.5740   -1.9196   -2.4489 H         1 <0>         0.1310
     37 H17         0.8965   -4.4361   -2.0003 H         1 <0>         0.1248
     38 H18         3.9479   -3.7907   -2.3314 H         1 <0>         0.1051
     39 H19         3.2294   -5.4231   -1.8618 H         1 <0>         0.1100
     40 H20         1.9515   -5.4907   -4.0519 H         1 <0>         0.1124
     41 H21         2.6699   -3.8582   -4.5215 H         1 <0>         0.1073
     42 H22        -0.9608   -0.3092    2.5289 H         1 <0>         0.0701
     43 H23         0.6390   -0.1408    3.2909 H         1 <0>         0.0713
     44 H24        -0.0579    1.2171    2.3752 H         1 <0>         0.0737
     45 H25         4.7394    1.9991    3.5678 H         1 <0>         0.4007
     46 H26        -0.0415   -2.4404   -1.2356 H         1 <0>         0.4206
@<TRIPOS>BOND
     1    1    2 1
     2    1   23 1
     3    1   24 1
     4    1   25 1
     5    2    3 1
     6    2   13 1
     7    2    4 1
     8    4    5 1
     9    4   16 1
    10    4    6 1
    11    6    7 1
    12    6   26 1
    13    6   27 1
    14    7   12 ar
    15    7    8 ar
    16    8    9 ar
    17    8   28 1
    18    9   10 ar
    19    9   29 1
    20   10   11 ar
    21   10   22 1
    22   11   12 ar
    23   11   30 1
    24   12   13 1
    25   13   14 1
    26   13   21 1
    27   14   15 1
    28   14   31 1
    29   14   32 1
    30   15   16 1
    31   15   33 1
    32   15   34 1
    33   16   17 1
    34   16   46 1
    35   17   18 1
    36   17   35 1
    37   17   36 1
    38   18   20 1
    39   18   19 1
    40   18   37 1
    41   19   20 1
    42   19   38 1
    43   19   39 1
    44   20   40 1
    45   20   41 1
    46   21   42 1
    47   21   43 1
    48   21   44 1
    49   22   45 1
@<TRIPOS>MOLECULE
ZINC02015833
   49    51     0     0     0
SMALL
USER_CHARGES
dimethyl-(3-methylbut-2-enyl)BLAHol
@<TRIPOS>ATOM
      1 C1          0.7871    0.1681   -2.3664 C.3       1 <0>        -0.1543
      2 C2          1.0290   -0.5044   -1.0136 C.3       1 <0>        -0.0895
      3 H1          0.9448   -1.5859   -1.1195 H         1 <0>         0.1004
      4 C3          0.0021   -0.0041    0.0020 C.3       1 <0>         0.0336
      5 H2         -0.9756   -0.3489   -0.3348 H         1 <0>         0.1315
      6 C4         -0.0185    1.5145    0.0104 C.3       1 <0>        -0.0878
      7 C5          1.3688    2.0979    0.0003 C.ar      1 <0>        -0.1107
      8 C6          1.4961    3.4605    0.2480 C.ar      1 <0>        -0.0947
      9 C7          2.7354    4.0629    0.2406 C.ar      1 <0>        -0.1368
     10 C8          3.8693    3.3057   -0.0171 C.ar      1 <0>         0.1241
     11 C9          3.7439    1.9476   -0.2579 C.ar      1 <0>        -0.1402
     12 C10         2.4949    1.3454   -0.2437 C.ar      1 <0>        -0.0591
     13 C11         2.4261   -0.1424   -0.4986 C.3       1 <0>        -0.0216
     14 C12         2.6280   -0.8493    0.8536 C.3       1 <0>        -0.1333
     15 C13         1.5895   -0.2893    1.8323 C.3       1 <0>        -0.0057
     16 C14        -0.7814   -0.1176    2.2799 C.3       1 <0>         0.0302
     17 C15        -0.6498   -0.9004    3.5609 C.2       1 <0>        -0.2601
     18 C16        -0.5056   -0.2716    4.7010 C.2       1 <0>        -0.0349
     19 C17        -0.4712    1.2347    4.7315 C.3       1 <0>        -0.1490
     20 C18        -0.3740   -1.0544    5.9819 C.3       1 <0>        -0.1387
     21 C19         3.5063   -0.5678   -1.4950 C.3       1 <0>        -0.1465
     22 O1          5.0948    3.8930   -0.0336 O.3       1 <0>        -0.4968
     23 H3          0.8836    1.2483   -2.2576 H         1 <0>         0.0720
     24 H4          1.5214   -0.1915   -3.0873 H         1 <0>         0.0794
     25 H5         -0.2159   -0.0736   -2.7181 H         1 <0>         0.0685
     26 H6         -0.5573    1.8664   -0.8694 H         1 <0>         0.1214
     27 H7         -0.5404    1.8569    0.9040 H         1 <0>         0.0930
     28 H8          0.6150    4.0523    0.4477 H         1 <0>         0.1314
     29 H9          2.8240    5.1215    0.4351 H         1 <0>         0.1363
     30 H10         4.6239    1.3543   -0.4581 H         1 <0>         0.1374
     31 H11         3.6325   -0.6513    1.2276 H         1 <0>         0.1128
     32 H12         2.4822   -1.9229    0.7346 H         1 <0>         0.0938
     33 H13         1.7273    0.7874    1.9314 H         1 <0>         0.1312
     34 H14         1.7154   -0.7629    2.8059 H         1 <0>         0.1266
     35 H15        -0.6455    0.9439    2.4872 H         1 <0>         0.1326
     36 H16        -1.7715   -0.2808    1.8543 H         1 <0>         0.1321
     37 H17        -0.6745   -1.9799    3.5390 H         1 <0>         0.1342
     38 H18        -1.4054    1.6277    4.3304 H         1 <0>         0.0808
     39 H19        -0.3457    1.5745    5.7596 H         1 <0>         0.0815
     40 H20         0.3625    1.5915    4.1267 H         1 <0>         0.0749
     41 H21         0.6784   -1.2641    6.1732 H         1 <0>         0.0847
     42 H22        -0.7844   -0.4724    6.8072 H         1 <0>         0.0790
     43 H23        -0.9210   -1.9929    5.8920 H         1 <0>         0.0755
     44 H24         3.4546   -1.6456   -1.6488 H         1 <0>         0.0698
     45 H25         3.3461   -0.0572   -2.4446 H         1 <0>         0.0731
     46 H26         4.4879   -0.3036   -1.1015 H         1 <0>         0.0712
     47 H27         5.3605    4.2244   -0.9024 H         1 <0>         0.4006
     48 N1          0.2298   -0.6075    1.3328 N.4       1 <0>        -0.3809
     49 H28         0.1410   -1.6271    1.2509 H         1 <0>         0.4267
@<TRIPOS>BOND
     1    1    2 1
     2    1   23 1
     3    1   24 1
     4    1   25 1
     5    2    3 1
     6    2   13 1
     7    2    4 1
     8    4    5 1
     9    4    6 1
    10    4   48 1
    11    6    7 1
    12    6   26 1
    13    6   27 1
    14    7   12 ar
    15    7    8 ar
    16    8    9 ar
    17    8   28 1
    18    9   10 ar
    19    9   29 1
    20   10   11 ar
    21   10   22 1
    22   11   12 ar
    23   11   30 1
    24   12   13 1
    25   13   14 1
    26   13   21 1
    27   14   15 1
    28   14   31 1
    29   14   32 1
    30   15   33 1
    31   15   34 1
    32   15   48 1
    33   16   17 1
    34   16   35 1
    35   16   36 1
    36   16   48 1
    37   17   18 2
    38   17   37 1
    39   18   19 1
    40   18   20 1
    41   19   38 1
    42   19   39 1
    43   19   40 1
    44   20   41 1
    45   20   42 1
    46   20   43 1
    47   21   44 1
    48   21   45 1
    49   21   46 1
    50   22   47 1
    51   48   49 1
@<TRIPOS>MOLECULE
ZINC07996680
   43    45     0     0     0
SMALL
USER_CHARGES

@<TRIPOS>ATOM
      1 C1         -0.0103    1.5223    0.1872 C.3       1 <0>        -0.1551
      2 C2          0.0058   -0.0045    0.0900 C.3       1 <0>        -0.0890
      3 H1          0.4977   -0.3090   -0.8338 H         1 <0>         0.1014
      4 C3         -1.4258   -0.5377    0.1119 C.3       1 <0>         0.0284
      5 H2         -1.9224   -0.1869   -0.7928 H         1 <0>         0.1372
      6 C4         -2.1759    0.0364    1.3005 C.3       1 <0>        -0.0946
      7 C5         -1.3488    0.0124    2.5576 C.ar      1 <0>        -0.1124
      8 C6         -1.9966    0.2742    3.7601 C.ar      1 <0>        -0.0946
      9 C7         -1.2967    0.2838    4.9471 C.ar      1 <0>        -0.1368
     10 C8          0.0678    0.0318    4.9460 C.ar      1 <0>         0.1247
     11 C9          0.7124   -0.2355    3.7496 C.ar      1 <0>        -0.1398
     12 C10         0.0016   -0.2523    2.5593 C.ar      1 <0>        -0.0592
     13 C11         0.7539   -0.5914    1.2921 C.3       1 <0>        -0.0222
     14 C12         0.7397   -2.1243    1.1496 C.3       1 <0>        -0.1312
     15 C13        -0.7221   -2.5823    1.1989 C.3       1 <0>        -0.0200
     16 N1         -1.4596   -1.9932    0.0988 N.4       1 <0>        -0.3644
     17 C14        -2.8578   -2.4399    0.1563 C.3       1 <0>         0.0215
     18 C15        -2.9149   -3.9357   -0.0177 C.2       1 <0>        -0.2330
     19 C16        -3.5151   -4.6771    0.8802 C.2       1 <0>        -0.1062
     20 C17         2.1852   -0.0541    1.3520 C.3       1 <0>        -0.1465
     21 O1          0.7672    0.0476    6.1111 O.3       1 <0>        -0.4947
     22 H3          1.0130    1.8976    0.1823 H         1 <0>         0.0802
     23 H4         -0.5526    1.9348   -0.6636 H         1 <0>         0.0689
     24 H5         -0.5029    1.8224    1.1121 H         1 <0>         0.0721
     25 H6         -2.4542    1.0668    1.0794 H         1 <0>         0.1214
     26 H7         -3.0826   -0.5467    1.4621 H         1 <0>         0.0954
     27 H8         -3.0583    0.4722    3.7636 H         1 <0>         0.1316
     28 H9         -1.8089    0.4873    5.8759 H         1 <0>         0.1367
     29 H10         1.7745   -0.4311    3.7438 H         1 <0>         0.1379
     30 H11         1.1850   -2.4111    0.1969 H         1 <0>         0.0946
     31 H12         1.2967   -2.5770    1.9700 H         1 <0>         0.1126
     32 H13        -0.7645   -3.6693    1.1296 H         1 <0>         0.1326
     33 H14        -1.1716   -2.2611    2.1385 H         1 <0>         0.1292
     34 H15        -3.2862   -2.1697    1.1214 H         1 <0>         0.1311
     35 H16        -3.4257   -1.9595   -0.6406 H         1 <0>         0.1375
     36 H17        -2.4610   -4.3965   -0.8825 H         1 <0>         0.1350
     37 H18        -3.9691   -4.2163    1.7451 H         1 <0>         0.1104
     38 H19        -3.5560   -5.7491    0.7556 H         1 <0>         0.1236
     39 H20         2.1621    1.0315    1.4468 H         1 <0>         0.0743
     40 H21         2.6987   -0.4831    2.2124 H         1 <0>         0.0712
     41 H22         2.7145   -0.3279    0.4393 H         1 <0>         0.0701
     42 H23         0.8105   -0.8101    6.5556 H         1 <0>         0.3987
     43 H24        -1.0454   -2.3239   -0.7598 H         1 <0>         0.4213
@<TRIPOS>BOND
     1    1    2 1
     2    1   22 1
     3    1   23 1
     4    1   24 1
     5    2    3 1
     6    2   13 1
     7    2    4 1
     8    4    5 1
     9    4   16 1
    10    4    6 1
    11    6    7 1
    12    6   25 1
    13    6   26 1
    14    7   12 ar
    15    7    8 ar
    16    8    9 ar
    17    8   27 1
    18    9   10 ar
    19    9   28 1
    20   10   11 ar
    21   10   21 1
    22   11   12 ar
    23   11   29 1
    24   12   13 1
    25   13   14 1
    26   13   20 1
    27   14   15 1
    28   14   30 1
    29   14   31 1
    30   15   16 1
    31   15   32 1
    32   15   33 1
    33   16   17 1
    34   16   43 1
    35   17   18 1
    36   17   34 1
    37   17   35 1
    38   18   19 2
    39   18   36 1
    40   19   37 1
    41   19   38 1
    42   20   39 1
    43   20   40 1
    44   20   41 1
    45   21   42 1
@<TRIPOS>MOLECULE
ZINC00895124
   18    17     0     0     0
SMALL
USER_CHARGES

@<TRIPOS>ATOM
      1 C1         -0.0187    1.5258    0.0104 C.3       1 <0>        -0.1010
      2 C2          0.0021   -0.0041    0.0020 C.3       1 <0>        -0.1959
      3 C3         -1.4117   -0.5257    0.0127 C.2       1 <0>         0.4893
      4 O1         -2.3491    0.2539    0.0259 O.co2     1 <0>        -0.6871
      5 O2         -1.6182   -1.7273    0.0082 O.co2     1 <0>        -0.7016
      6 C4          1.4167    2.0553   -0.0004 C.3       1 <0>        -0.0510
      7 H1          1.9696    1.6236    0.8338 H         1 <0>         0.1263
      8 C5          1.3993    3.5565    0.1316 C.2       1 <0>         0.4931
      9 O3          1.4342    4.0717    1.2361 O.co2     1 <0>        -0.6465
     10 O4          1.3504    4.2557   -0.8660 O.co2     1 <0>        -0.6784
     11 N1          2.0667    1.6824   -1.2639 N.4       1 <0>        -0.6121
     12 H2         -0.5459    1.8868   -0.8726 H         1 <0>         0.0805
     13 H3         -0.5289    1.8773    0.9072 H         1 <0>         0.1026
     14 H4          0.5123   -0.3556   -0.8948 H         1 <0>         0.0475
     15 H5          0.5293   -0.3651    0.8851 H         1 <0>         0.0673
     16 H6          3.0133    2.0317   -1.2711 H         1 <0>         0.4211
     17 H7          2.0783    0.6774   -1.3524 H         1 <0>         0.4148
     18 H8          1.5549    2.0821   -2.0362 H         1 <0>         0.4310
@<TRIPOS>BOND
     1    1    2 1
     2    1    6 1
     3    1   12 1
     4    1   13 1
     5    2    3 1
     6    2   14 1
     7    2   15 1
     8    3    4 2
     9    3    5 1
    10    6    7 1
    11    6    8 1
    12    6   11 1
    13    8    9 2
    14    8   10 1
    15   11   16 1
    16   11   17 1
    17   11   18 1
@<TRIPOS>MOLECULE
ZINC01687741
   39    41     0     0     0
SMALL
USER_CHARGES
trimethylBLAHol
@<TRIPOS>ATOM
      1 C1          3.1952   -2.0055   -2.0328 C.3       1 <0>        -0.1555
      2 C2          3.5913   -2.0969   -0.5578 C.3       1 <0>        -0.0902
      3 H1          4.5361   -2.6321   -0.4627 H         1 <0>         0.1006
      4 C3          2.5021   -2.8305    0.2241 C.3       1 <0>         0.0345
      5 H2          2.4710   -3.8599   -0.1329 H         1 <0>         0.1314
      6 C4          1.1495   -2.1993   -0.0572 C.3       1 <0>        -0.0887
      7 C5          1.2083   -0.6961   -0.0124 C.ar      1 <0>        -0.1127
      8 C6          0.0021   -0.0041    0.0020 C.ar      1 <0>        -0.0941
      9 C7         -0.0166    1.3739    0.0096 C.ar      1 <0>        -0.1367
     10 C8          1.1776    2.0805    0.0020 C.ar      1 <0>         0.1246
     11 C9          2.3792    1.3919   -0.0054 C.ar      1 <0>        -0.1402
     12 C10         2.3923    0.0053   -0.0044 C.ar      1 <0>        -0.0603
     13 C11         3.7343   -0.6879    0.0273 C.3       1 <0>        -0.0217
     14 C12         4.1438   -0.8298    1.5040 C.3       1 <0>        -0.1336
     15 C13         3.0063   -1.5493    2.2374 C.3       1 <0>        -0.0083
     16 C14         1.7814   -3.6302    2.3823 C.3       1 <0>        -0.0491
     17 C15         4.7732    0.1164   -0.7566 C.3       1 <0>        -0.1471
     18 O1          1.1681    3.4395    0.0022 O.3       1 <0>        -0.4948
     19 H3          3.9640   -1.4624   -2.5825 H         1 <0>         0.0803
     20 H4          3.0946   -3.0095   -2.4449 H         1 <0>         0.0688
     21 H5          2.2448   -1.4793   -2.1218 H         1 <0>         0.0721
     22 H6          0.4339   -2.5483    0.6873 H         1 <0>         0.0954
     23 H7          0.8113   -2.5115   -1.0452 H         1 <0>         0.1220
     24 H8         -0.9288   -0.5517    0.0077 H         1 <0>         0.1319
     25 H9         -0.9584    1.9024    0.0169 H         1 <0>         0.1369
     26 H10         3.3110    1.9378   -0.0116 H         1 <0>         0.1377
     27 H11         5.0600   -1.4155    1.5786 H         1 <0>         0.0946
     28 H12         4.2988    0.1568    1.9407 H         1 <0>         0.1134
     29 H13         2.0887   -0.9688    2.1430 H         1 <0>         0.1336
     30 H14         3.2629   -1.6542    3.2916 H         1 <0>         0.1271
     31 H15         1.7370   -4.6503    2.0008 H         1 <0>         0.1232
     32 H16         2.0337   -3.6494    3.4425 H         1 <0>         0.1234
     33 H17         0.8124   -3.1496    2.2481 H         1 <0>         0.1250
     34 H18         4.8763    1.1067   -0.3130 H         1 <0>         0.0710
     35 H19         5.7331   -0.3989   -0.7222 H         1 <0>         0.0699
     36 H20         4.4504    0.2144   -1.7931 H         1 <0>         0.0742
     37 H21         1.1710    3.8327    0.8856 H         1 <0>         0.3989
     38 N1          2.8383   -2.9058    1.6622 N.4       1 <0>        -0.3871
     39 H22         3.7219   -3.4182    1.7669 H         1 <0>         0.4299
@<TRIPOS>BOND
     1    1    2 1
     2    1   19 1
     3    1   20 1
     4    1   21 1
     5    2    3 1
     6    2   13 1
     7    2    4 1
     8    4    5 1
     9    4    6 1
    10    4   38 1
    11    6    7 1
    12    6   22 1
    13    6   23 1
    14    7   12 ar
    15    7    8 ar
    16    8    9 ar
    17    8   24 1
    18    9   10 ar
    19    9   25 1
    20   10   11 ar
    21   10   18 1
    22   11   12 ar
    23   11   26 1
    24   12   13 1
    25   13   14 1
    26   13   17 1
    27   14   15 1
    28   14   27 1
    29   14   28 1
    30   15   29 1
    31   15   30 1
    32   15   38 1
    33   16   31 1
    34   16   32 1
    35   16   33 1
    36   16   38 1
    37   17   34 1
    38   17   35 1
    39   17   36 1
    40   18   37 1
    41   38   39 1
