@<TRIPOS>MOLECULE
ZINC22028288
   32    32     0     0     0
SMALL
USER_CHARGES

@<TRIPOS>ATOM
      1 C1         -0.0178    1.4646    0.0101 C.3       1 <0>        -0.0021
      2 C2          1.4177    1.9945   -0.0008 C.3       1 <0>         0.0195
      3 N1          2.1091    1.5033   -1.2012 N.3       1 <0>        -0.5387
      4 C3          2.1152    0.0340   -1.2356 C.3       1 <0>         0.0516
      5 C4          0.6738   -0.4797   -1.2145 C.3       1 <0>        -0.0413
      6 H1          0.1431   -0.1087   -2.0913 H         1 <0>         0.1387
      7 N2          0.0021   -0.0041    0.0020 N.4       1 <0>        -0.4837
      8 C5          0.6774   -1.9866   -1.2299 C.2       1 <0>         0.4937
      9 O1          0.3358   -2.6072   -0.2376 O.co2     1 <0>        -0.6772
     10 O2          1.0218   -2.5852   -2.2347 O.co2     1 <0>        -0.6364
     11 C6          3.4755    2.0374   -1.2772 C.3       1 <0>         0.0599
     12 C7          3.4202    3.5524   -1.4833 C.3       1 <0>        -0.0877
     13 C8          4.8433    4.1086   -1.5626 C.3       1 <0>        -0.7296
     14 P1          4.7774    5.9138   -1.8081 P.3       1 <0>         2.2588
     15 O3          3.9209    6.2332   -3.0537 O.2       1 <0>        -1.0956
     16 O4          4.1468    6.5799   -0.5649 O.3       1 <0>        -1.0987
     17 O5          6.2688    6.4810   -2.0225 O.3       1 <0>        -0.9059
     18 H2         -0.5281    1.8161    0.9069 H         1 <0>         0.1295
     19 H3         -0.5451    1.8257   -0.8730 H         1 <0>         0.1332
     20 H4          1.4031    3.0843   -0.0098 H         1 <0>         0.1256
     21 H5          1.9412    1.6448    0.8891 H         1 <0>         0.0535
     22 H6          2.6093   -0.3064   -2.1455 H         1 <0>         0.1178
     23 H7          2.6501   -0.3479   -0.3661 H         1 <0>         0.0497
     24 H8          0.5002   -0.3379    0.8135 H         1 <0>         0.4219
     25 H9          4.0043    1.8158   -0.3502 H         1 <0>         0.0346
     26 H10         3.9999    1.5758   -2.1139 H         1 <0>         0.0787
     27 H11         2.8913    3.7739   -2.4103 H         1 <0>         0.0847
     28 H12         2.8957    4.0140   -0.6466 H         1 <0>         0.0686
     29 H13         5.3721    3.8871   -0.6355 H         1 <0>         0.0680
     30 H14         5.3677    3.6470   -2.3992 H         1 <0>         0.0706
     31 H15         6.3100    7.4374   -2.1595 H         1 <0>         0.4126
     32 H16        -0.9444   -0.3532    0.0217 H         1 <0>         0.4258
@<TRIPOS>BOND
     1    1    7 1
     2    1    2 1
     3    1   18 1
     4    1   19 1
     5    2    3 1
     6    2   20 1
     7    2   21 1
     8    3    4 1
     9    3   11 1
    10    4    5 1
    11    4   22 1
    12    4   23 1
    13    5    6 1
    14    5    7 1
    15    5    8 1
    16    7   24 1
    17    7   32 1
    18    8    9 2
    19    8   10 1
    20   11   12 1
    21   11   25 1
    22   11   26 1
    23   12   13 1
    24   12   27 1
    25   12   28 1
    26   13   14 1
    27   13   29 1
    28   13   30 1
    29   14   15 2
    30   14   16 1
    31   14   17 1
    32   17   31 1
@<TRIPOS>MOLECULE
ZINC22028288
   31    31     0     0     0
SMALL
USER_CHARGES

@<TRIPOS>ATOM
      1 C1         -0.0178    1.4646    0.0101 C.3       1 <0>        -0.0013
      2 C2          1.4177    1.9945   -0.0008 C.3       1 <0>         0.0193
      3 N1          2.1091    1.5033   -1.2012 N.3       1 <0>        -0.5378
      4 C3          2.1152    0.0340   -1.2356 C.3       1 <0>         0.0504
      5 C4          0.6738   -0.4797   -1.2145 C.3       1 <0>        -0.0405
      6 H1          0.1431   -0.1087   -2.0913 H         1 <0>         0.1377
      7 N2          0.0021   -0.0041    0.0020 N.4       1 <0>        -0.4825
      8 C5          0.6774   -1.9866   -1.2299 C.2       1 <0>         0.4958
      9 O1          0.3358   -2.6072   -0.2376 O.co2     1 <0>        -0.6821
     10 O2          1.0218   -2.5852   -2.2347 O.co2     1 <0>        -0.6392
     11 C6          3.4755    2.0374   -1.2772 C.3       1 <0>         0.0593
     12 C7          3.4202    3.5524   -1.4833 C.3       1 <0>        -0.0800
     13 C8          4.8433    4.1086   -1.5626 C.3       1 <0>        -0.7273
     14 P1          4.7774    5.9138   -1.8081 P.3       1 <0>         2.2121
     15 O3          3.9089    6.2377   -3.0711 O.2       1 <0>        -1.1806
     16 O4          4.1380    6.5893   -0.5474 O.3       1 <0>        -1.1837
     17 O5          6.2287    6.4657   -2.0167 O.3       1 <0>        -1.1866
     18 H2         -0.5281    1.8161    0.9069 H         1 <0>         0.1273
     19 H3         -0.5451    1.8257   -0.8730 H         1 <0>         0.1326
     20 H4          1.4031    3.0843   -0.0098 H         1 <0>         0.1290
     21 H5          1.9412    1.6448    0.8891 H         1 <0>         0.0510
     22 H6          2.6093   -0.3064   -2.1455 H         1 <0>         0.1156
     23 H7          2.6501   -0.3479   -0.3661 H         1 <0>         0.0460
     24 H8          0.5002   -0.3379    0.8135 H         1 <0>         0.4207
     25 H9          4.0043    1.8158   -0.3502 H         1 <0>         0.0297
     26 H10         3.9999    1.5758   -2.1139 H         1 <0>         0.0741
     27 H11         2.8913    3.7739   -2.4103 H         1 <0>         0.0737
     28 H12         2.8957    4.0140   -0.6466 H         1 <0>         0.0572
     29 H13         5.3721    3.8871   -0.6355 H         1 <0>         0.0419
     30 H14         5.3677    3.6470   -2.3992 H         1 <0>         0.0461
     31 H15        -0.9444   -0.3532    0.0217 H         1 <0>         0.4219
@<TRIPOS>BOND
     1    1    7 1
     2    1    2 1
     3    1   18 1
     4    1   19 1
     5    2    3 1
     6    2   20 1
     7    2   21 1
     8    3    4 1
     9    3   11 1
    10    4    5 1
    11    4   22 1
    12    4   23 1
    13    5    6 1
    14    5    7 1
    15    5    8 1
    16    7   24 1
    17    7   31 1
    18    8    9 2
    19    8   10 1
    20   11   12 1
    21   11   25 1
    22   11   26 1
    23   12   13 1
    24   12   27 1
    25   12   28 1
    26   13   14 1
    27   13   29 1
    28   13   30 1
    29   14   15 2
    30   14   16 1
    31   14   17 1
@<TRIPOS>MOLECULE
ZINC22033348
   32    32     0     0     0
SMALL
USER_CHARGES

@<TRIPOS>ATOM
      1 C1         -0.0178    1.4646    0.0101 C.3       1 <0>        -0.0020
      2 C2          1.4177    1.9945   -0.0008 C.3       1 <0>         0.0198
      3 N1          2.1318    1.4905    1.1809 N.3       1 <0>        -0.5385
      4 C3          2.1384    0.0209    1.1994 C.3       1 <0>         0.0499
      5 C4          0.6969   -0.4926    1.2004 C.3       1 <0>        -0.0402
      6 H1          0.1830   -0.1311    2.0910 H         1 <0>         0.1380
      7 N2          0.0021   -0.0041    0.0020 N.4       1 <0>        -0.4854
      8 C5          0.7006   -1.9996    1.1995 C.2       1 <0>         0.4915
      9 O1          0.7030   -2.6099    2.2550 O.co2     1 <0>        -0.6375
     10 O2          0.7011   -2.6086    0.1432 O.co2     1 <0>        -0.6728
     11 C6          3.4995    2.0239    1.2366 C.3       1 <0>         0.0598
     12 C7          3.4483    3.5366    1.4599 C.3       1 <0>        -0.0878
     13 C8          4.8727    4.0921    1.5180 C.3       1 <0>        -0.7296
     14 P1          4.8117    5.8945    1.7841 P.3       1 <0>         2.2588
     15 O3          3.9400    6.5476    0.6884 O.2       1 <0>        -1.0979
     16 O4          4.2010    6.1898    3.1722 O.3       1 <0>        -1.0962
     17 O5          6.3027    6.4980    1.7143 O.3       1 <0>        -0.9060
     18 H2         -0.5281    1.8161    0.9069 H         1 <0>         0.1335
     19 H3         -0.5451    1.8257   -0.8730 H         1 <0>         0.1295
     20 H4          1.9241    1.6544   -0.9041 H         1 <0>         0.0538
     21 H5          1.4034    3.0842    0.0203 H         1 <0>         0.1261
     22 H6          2.6566   -0.3516    0.3158 H         1 <0>         0.0531
     23 H7          2.6498   -0.3292    2.0960 H         1 <0>         0.1143
     24 H8         -0.9446   -0.3530   -0.0034 H         1 <0>         0.4239
     25 H9          4.0397    1.5534    2.0581 H         1 <0>         0.0785
     26 H10         4.0105    1.8123    0.2973 H         1 <0>         0.0348
     27 H11         2.9080    4.0071    0.6384 H         1 <0>         0.0717
     28 H12         2.9373    3.7481    2.3992 H         1 <0>         0.0818
     29 H13         5.4130    3.6216    2.3395 H         1 <0>         0.0721
     30 H14         5.3837    3.8805    0.5787 H         1 <0>         0.0665
     31 H15         6.3463    7.4548    1.8476 H         1 <0>         0.4126
     32 H16         0.4846   -0.3292   -0.8223 H         1 <0>         0.4236
@<TRIPOS>BOND
     1    1    7 1
     2    1    2 1
     3    1   18 1
     4    1   19 1
     5    2    3 1
     6    2   20 1
     7    2   21 1
     8    3    4 1
     9    3   11 1
    10    4    5 1
    11    4   22 1
    12    4   23 1
    13    5    6 1
    14    5    7 1
    15    5    8 1
    16    7   24 1
    17    7   32 1
    18    8    9 2
    19    8   10 1
    20   11   12 1
    21   11   25 1
    22   11   26 1
    23   12   13 1
    24   12   27 1
    25   12   28 1
    26   13   14 1
    27   13   29 1
    28   13   30 1
    29   14   15 2
    30   14   16 1
    31   14   17 1
    32   17   31 1
@<TRIPOS>MOLECULE
ZINC22033348
   31    31     0     0     0
SMALL
USER_CHARGES

@<TRIPOS>ATOM
      1 C1         -0.0178    1.4646    0.0101 C.3       1 <0>        -0.0011
      2 C2          1.4177    1.9945   -0.0008 C.3       1 <0>         0.0195
      3 N1          2.1318    1.4905    1.1809 N.3       1 <0>        -0.5376
      4 C3          2.1384    0.0209    1.1994 C.3       1 <0>         0.0487
      5 C4          0.6969   -0.4926    1.2004 C.3       1 <0>        -0.0393
      6 H1          0.1830   -0.1311    2.0910 H         1 <0>         0.1370
      7 N2          0.0021   -0.0041    0.0020 N.4       1 <0>        -0.4842
      8 C5          0.7006   -1.9996    1.1995 C.2       1 <0>         0.4938
      9 O1          0.7030   -2.6099    2.2550 O.co2     1 <0>        -0.6413
     10 O2          0.7011   -2.6086    0.1432 O.co2     1 <0>        -0.6768
     11 C6          3.4995    2.0239    1.2366 C.3       1 <0>         0.0592
     12 C7          3.4483    3.5366    1.4599 C.3       1 <0>        -0.0801
     13 C8          4.8727    4.0921    1.5180 C.3       1 <0>        -0.7273
     14 P1          4.8117    5.8945    1.7841 P.3       1 <0>         2.2124
     15 O3          3.9277    6.5568    0.6730 O.2       1 <0>        -1.1828
     16 O4          4.1924    6.1939    3.1916 O.3       1 <0>        -1.1815
     17 O5          6.2625    6.4818    1.7162 O.3       1 <0>        -1.1868
     18 H2         -0.5281    1.8161    0.9069 H         1 <0>         0.1328
     19 H3         -0.5451    1.8257   -0.8730 H         1 <0>         0.1274
     20 H4          1.9241    1.6544   -0.9041 H         1 <0>         0.0515
     21 H5          1.4034    3.0842    0.0203 H         1 <0>         0.1298
     22 H6          2.6566   -0.3516    0.3158 H         1 <0>         0.0496
     23 H7          2.6498   -0.3292    2.0960 H         1 <0>         0.1120
     24 H8         -0.9446   -0.3530   -0.0034 H         1 <0>         0.4198
     25 H9          4.0397    1.5534    2.0581 H         1 <0>         0.0736
     26 H10         4.0105    1.8123    0.2973 H         1 <0>         0.0302
     27 H11         2.9080    4.0071    0.6384 H         1 <0>         0.0611
     28 H12         2.9373    3.7481    2.3992 H         1 <0>         0.0701
     29 H13         5.4130    3.6216    2.3395 H         1 <0>         0.0460
     30 H14         5.3837    3.8805    0.5787 H         1 <0>         0.0421
     31 H15         0.4846   -0.3292   -0.8223 H         1 <0>         0.4224
@<TRIPOS>BOND
     1    1    7 1
     2    1    2 1
     3    1   18 1
     4    1   19 1
     5    2    3 1
     6    2   20 1
     7    2   21 1
     8    3    4 1
     9    3   11 1
    10    4    5 1
    11    4   22 1
    12    4   23 1
    13    5    6 1
    14    5    7 1
    15    5    8 1
    16    7   24 1
    17    7   31 1
    18    8    9 2
    19    8   10 1
    20   11   12 1
    21   11   25 1
    22   11   26 1
    23   12   13 1
    24   12   27 1
    25   12   28 1
    26   13   14 1
    27   13   29 1
    28   13   30 1
    29   14   15 2
    30   14   16 1
    31   14   17 1
@<TRIPOS>MOLECULE
ZINC19632753
   29    28     0     0     0
SMALL
USER_CHARGES

@<TRIPOS>ATOM
      1 C1         -0.0187    1.5258    0.0104 C.3       1 <0>        -0.1166
      2 C2          0.0021   -0.0041    0.0020 C.3       1 <0>        -0.1322
      3 C3         -1.4333   -0.5336    0.0129 C.3       1 <0>        -0.1273
      4 C4         -1.4126   -2.0635    0.0045 C.3       1 <0>        -0.0483
      5 H1         -0.8102   -2.4233    0.8386 H         1 <0>         0.1330
      6 C5         -2.8198   -2.5857    0.1389 C.2       1 <0>         0.4896
      7 O1         -3.4911   -2.7925   -0.8576 O.co2     1 <0>        -0.6734
      8 O2         -3.2870   -2.8013    1.2443 O.co2     1 <0>        -0.6411
      9 N1         -0.8327   -2.5384   -1.2589 N.4       1 <0>        -0.6145
     10 C6          1.4167    2.0553   -0.0004 C.3       1 <0>        -0.0935
     11 C7          1.3960    3.5852    0.0080 C.3       1 <0>        -0.7309
     12 P1          3.1062    4.2162   -0.0050 P.3       1 <0>         2.2581
     13 O3          3.8899    3.6042    1.1776 O.2       1 <0>        -1.0979
     14 O4          3.7898    3.8240   -1.3338 O.3       1 <0>        -1.0994
     15 O5          3.0877    5.8199    0.1361 O.3       1 <0>        -0.9057
     16 H2         -0.5459    1.8868   -0.8726 H         1 <0>         0.0572
     17 H3         -0.5289    1.8773    0.9072 H         1 <0>         0.0611
     18 H4          0.5123   -0.3556   -0.8948 H         1 <0>         0.0555
     19 H5          0.5293   -0.3651    0.8851 H         1 <0>         0.0766
     20 H6         -1.9435   -0.1821    0.9097 H         1 <0>         0.1036
     21 H7         -1.9605   -0.1726   -0.8702 H         1 <0>         0.0813
     22 H8         -1.3902   -2.2053   -2.0311 H         1 <0>         0.4317
     23 H9          0.1095   -2.1887   -1.3490 H         1 <0>         0.4169
     24 H10         1.9439    1.6943    0.8826 H         1 <0>         0.0733
     25 H11         1.9269    1.7038   -0.8972 H         1 <0>         0.0677
     26 H12         0.8688    3.9463   -0.8751 H         1 <0>         0.0681
     27 H13         0.8858    3.9367    0.9048 H         1 <0>         0.0678
     28 H14         3.9658    6.2249    0.1366 H         1 <0>         0.4121
     29 H15        -0.8190   -3.5473   -1.2645 H         1 <0>         0.4273
@<TRIPOS>BOND
     1    1    2 1
     2    1   10 1
     3    1   16 1
     4    1   17 1
     5    2    3 1
     6    2   18 1
     7    2   19 1
     8    3    4 1
     9    3   20 1
    10    3   21 1
    11    4    5 1
    12    4    6 1
    13    4    9 1
    14    6    7 2
    15    6    8 1
    16    9   22 1
    17    9   23 1
    18    9   29 1
    19   10   11 1
    20   10   24 1
    21   10   25 1
    22   11   12 1
    23   11   26 1
    24   11   27 1
    25   12   13 2
    26   12   14 1
    27   12   15 1
    28   15   28 1
@<TRIPOS>MOLECULE
ZINC19632758
   29    28     0     0     0
SMALL
USER_CHARGES

@<TRIPOS>ATOM
      1 C1         -0.0187    1.5258    0.0104 C.3       1 <0>        -0.1166
      2 C2          0.0021   -0.0041    0.0020 C.3       1 <0>        -0.1324
      3 C3         -1.4333   -0.5336    0.0129 C.3       1 <0>        -0.1263
      4 C4         -1.4126   -2.0635    0.0045 C.3       1 <0>        -0.0493
      5 H1         -0.8263   -2.4142   -0.8449 H         1 <0>         0.1336
      6 C5         -2.8221   -2.5844   -0.1087 C.2       1 <0>         0.4915
      7 O1         -3.4399   -2.4497   -1.1512 O.co2     1 <0>        -0.6389
      8 O2         -3.3448   -3.1404    0.8422 O.co2     1 <0>        -0.6788
      9 N1         -0.8087   -2.5519    1.2514 N.4       1 <0>        -0.6130
     10 C6          1.4167    2.0553   -0.0004 C.3       1 <0>        -0.0935
     11 C7          1.3960    3.5852    0.0080 C.3       1 <0>        -0.7309
     12 P1          3.1062    4.2162   -0.0050 P.3       1 <0>         2.2581
     13 O3          3.8899    3.6042    1.1776 O.2       1 <0>        -1.0989
     14 O4          3.7898    3.8240   -1.3338 O.3       1 <0>        -1.0984
     15 O5          3.0877    5.8199    0.1361 O.3       1 <0>        -0.9057
     16 H2         -0.5459    1.8868   -0.8726 H         1 <0>         0.0615
     17 H3         -0.5289    1.8773    0.9072 H         1 <0>         0.0567
     18 H4          0.5123   -0.3556   -0.8948 H         1 <0>         0.0764
     19 H5          0.5293   -0.3651    0.8851 H         1 <0>         0.0551
     20 H6         -1.9435   -0.1821    0.9097 H         1 <0>         0.0781
     21 H7         -1.9605   -0.1726   -0.8702 H         1 <0>         0.1075
     22 H8         -1.3514   -2.2272    2.0376 H         1 <0>         0.4301
     23 H9         -0.7950   -3.5608    1.2458 H         1 <0>         0.4289
     24 H10         1.9439    1.6943    0.8826 H         1 <0>         0.0705
     25 H11         1.9269    1.7038   -0.8972 H         1 <0>         0.0703
     26 H12         0.8688    3.9463   -0.8751 H         1 <0>         0.0695
     27 H13         0.8858    3.9367    0.9048 H         1 <0>         0.0664
     28 H14         3.9658    6.2249    0.1366 H         1 <0>         0.4121
     29 H15         0.1351   -2.2031    1.3272 H         1 <0>         0.4163
@<TRIPOS>BOND
     1    1    2 1
     2    1   10 1
     3    1   16 1
     4    1   17 1
     5    2    3 1
     6    2   18 1
     7    2   19 1
     8    3    4 1
     9    3   20 1
    10    3   21 1
    11    4    5 1
    12    4    6 1
    13    4    9 1
    14    6    7 2
    15    6    8 1
    16    9   22 1
    17    9   23 1
    18    9   29 1
    19   10   11 1
    20   10   24 1
    21   10   25 1
    22   11   12 1
    23   11   26 1
    24   11   27 1
    25   12   13 2
    26   12   14 1
    27   12   15 1
    28   15   28 1
@<TRIPOS>MOLECULE
ZINC00968311
   44    46     0     0     0
SMALL
USER_CHARGES
1-(1-phenylcyclohexyl)piperidine
@<TRIPOS>ATOM
      1 C1         -6.8504    0.6158   -1.3000 C.ar      1 <0>        -0.0983
      2 C2         -5.9618   -0.3997   -1.0001 C.ar      1 <0>        -0.0987
      3 C3         -4.6847   -0.0953   -0.5672 C.ar      1 <0>        -0.0916
      4 C4         -4.2963    1.2246   -0.4342 C.ar      1 <0>        -0.1122
      5 C5         -5.1866    2.2402   -0.7291 C.ar      1 <0>        -0.1651
      6 C6         -6.4619    1.9358   -1.1669 C.ar      1 <0>        -0.1010
      7 C7         -2.9042    1.5565    0.0381 C.3       1 <0>         0.1193
      8 C8         -1.8862    0.7425   -0.7631 C.3       1 <0>        -0.1361
      9 C9         -0.4729    1.0794   -0.2835 C.3       1 <0>        -0.1341
     10 C10        -0.3434    0.7376    1.2022 C.3       1 <0>        -0.1320
     11 C11        -1.3614    1.5516    2.0034 C.3       1 <0>        -0.1367
     12 C12        -2.7747    1.2147    1.5238 C.3       1 <0>        -0.1352
     13 C13        -3.4122    3.7968    0.8019 C.3       1 <0>        -0.0359
     14 C14        -3.0128    5.2678    0.6650 C.3       1 <0>        -0.1453
     15 C15        -3.2968    5.7378   -0.7643 C.3       1 <0>        -0.1398
     16 C16        -2.5281    4.8504   -1.7473 C.3       1 <0>        -0.1447
     17 C17        -2.9415    3.3915   -1.5404 C.3       1 <0>        -0.0394
     18 H1         -7.8482    0.3780   -1.6378 H         1 <0>         0.1358
     19 H2         -6.2654   -1.4310   -1.1036 H         1 <0>         0.1373
     20 H3         -3.9906   -0.8888   -0.3326 H         1 <0>         0.1331
     21 H4         -4.8845    3.2714   -0.6209 H         1 <0>         0.1421
     22 H5         -7.1563    2.7292   -1.4009 H         1 <0>         0.1351
     23 H6         -1.9784    0.9860   -1.8215 H         1 <0>         0.0898
     24 H7         -2.0755   -0.3209   -0.6171 H         1 <0>         0.1120
     25 H8         -0.2835    2.1429   -0.4295 H         1 <0>         0.0554
     26 H9          0.2524    0.4995   -0.8543 H         1 <0>         0.0955
     27 H10        -0.5328   -0.3259    1.3482 H         1 <0>         0.0810
     28 H11         0.6635    0.9776    1.5438 H         1 <0>         0.0819
     29 H12        -1.2692    1.3081    3.0618 H         1 <0>         0.0942
     30 H13        -1.1721    2.6150    1.8574 H         1 <0>         0.0570
     31 H14        -3.5000    1.7946    2.0946 H         1 <0>         0.0914
     32 H15        -2.9641    0.1512    1.6698 H         1 <0>         0.1109
     33 H16        -4.4780    3.6896    0.6004 H         1 <0>         0.1454
     34 H17        -3.1980    3.4551    1.8145 H         1 <0>         0.1336
     35 H18        -1.9499    5.3779    0.8798 H         1 <0>         0.0864
     36 H19        -3.5902    5.8691    1.3673 H         1 <0>         0.1130
     37 H20        -2.9737    6.7726   -0.8785 H         1 <0>         0.0959
     38 H21        -4.3653    5.6654   -0.9671 H         1 <0>         0.0810
     39 H22        -1.4576    4.9538   -1.5704 H         1 <0>         0.0851
     40 H23        -2.7597    5.1530   -2.7685 H         1 <0>         0.1123
     41 H24        -2.3855    2.7553   -2.2290 H         1 <0>         0.1276
     42 H25        -4.0096    3.2863   -1.7309 H         1 <0>         0.1542
     43 N1         -2.6198    2.9937   -0.1533 N.4       1 <0>        -0.3833
     44 H26        -1.6215    3.1617    0.0183 H         1 <0>         0.4232
@<TRIPOS>BOND
     1    1    6 ar
     2    1    2 ar
     3    1   18 1
     4    2    3 ar
     5    2   19 1
     6    3    4 ar
     7    3   20 1
     8    4    5 ar
     9    4    7 1
    10    5    6 ar
    11    5   21 1
    12    6   22 1
    13    7   12 1
    14    7    8 1
    15    7   43 1
    16    8    9 1
    17    8   23 1
    18    8   24 1
    19    9   10 1
    20    9   25 1
    21    9   26 1
    22   10   11 1
    23   10   27 1
    24   10   28 1
    25   11   12 1
    26   11   29 1
    27   11   30 1
    28   12   31 1
    29   12   32 1
    30   13   14 1
    31   13   33 1
    32   13   34 1
    33   13   43 1
    34   14   15 1
    35   14   35 1
    36   14   36 1
    37   15   16 1
    38   15   37 1
    39   15   38 1
    40   16   17 1
    41   16   39 1
    42   16   40 1
    43   17   41 1
    44   17   42 1
    45   17   43 1
    46   43   44 1
@<TRIPOS>MOLECULE
ZINC25757829
   32    35     0     0     0
SMALL
USER_CHARGES

@<TRIPOS>ATOM
      1 C1         -0.0187    1.5258    0.0104 C.3       1 <0>        -0.1252
      2 C2          0.0021   -0.0041    0.0020 C.3       1 <0>         0.1700
      3 C3          0.7167   -0.5895   -1.2034 C.ar      1 <0>        -0.1069
      4 C4          0.8979    0.1802   -2.3343 C.ar      1 <0>        -0.1048
      5 C5          1.5405   -0.3573   -3.4350 C.ar      1 <0>        -0.1212
      6 C6          1.9955   -1.6623   -3.3949 C.ar      1 <0>        -0.1154
      7 C7          1.8143   -2.4276   -2.2597 C.ar      1 <0>        -0.1172
      8 C8          1.1755   -1.8892   -1.1532 C.ar      1 <0>        -0.0768
      9 C9          1.0113   -2.7345    0.0833 C.3       1 <0>        -0.1060
     10 C10         0.1766   -2.0033    1.1369 C.3       1 <0>         0.1001
     11 H1          0.2513   -2.4929    2.1079 H         1 <0>         0.1081
     12 N1          0.6774   -0.5970    1.1980 N.3       1 <0>        -0.6342
     13 C11        -1.2530   -1.8806    0.6988 C.ar      1 <0>        -0.0952
     14 C12        -1.3755   -0.6242    0.0348 C.ar      1 <0>        -0.0809
     15 C13        -2.5771   -0.1782   -0.4723 C.ar      1 <0>        -0.0931
     16 C14        -3.6801   -1.0063   -0.2906 C.ar      1 <0>        -0.1176
     17 C15        -3.5744   -2.2154    0.3646 C.ar      1 <0>        -0.1209
     18 C16        -2.3295   -2.7288    0.8705 C.ar      1 <0>        -0.0946
     19 H2          1.0039    1.9031    0.0027 H         1 <0>         0.0650
     20 H3         -0.5459    1.8868   -0.8726 H         1 <0>         0.0670
     21 H4         -0.5289    1.8773    0.9072 H         1 <0>         0.0732
     22 H5          0.5390    1.1985   -2.3601 H         1 <0>         0.1272
     23 H6          1.6860    0.2402   -4.3228 H         1 <0>         0.1244
     24 H7          2.4941   -2.0848   -4.2547 H         1 <0>         0.1231
     25 H8          2.1706   -3.4468   -2.2339 H         1 <0>         0.1229
     26 H9          0.5143   -3.6672   -0.1835 H         1 <0>         0.0854
     27 H10         1.9944   -2.9588    0.4973 H         1 <0>         0.0869
     28 H11         1.6807   -0.5800    1.0922 H         1 <0>         0.3441
     29 H12        -2.6584    0.7686   -0.9856 H         1 <0>         0.1300
     30 H13        -4.6417   -0.6950   -0.6711 H         1 <0>         0.1239
     31 H14        -4.4549   -2.8304    0.4782 H         1 <0>         0.1194
     32 H15        -2.2281   -3.6740    1.3830 H         1 <0>         0.1394
@<TRIPOS>BOND
     1    1    2 1
     2    1   19 1
     3    1   20 1
     4    1   21 1
     5    2   12 1
     6    2   14 1
     7    2    3 1
     8    3    8 ar
     9    3    4 ar
    10    4    5 ar
    11    4   22 1
    12    5    6 ar
    13    5   23 1
    14    6    7 ar
    15    6   24 1
    16    7    8 ar
    17    7   25 1
    18    8    9 1
    19    9   10 1
    20    9   26 1
    21    9   27 1
    22   10   11 1
    23   10   12 1
    24   10   13 1
    25   12   28 1
    26   13   18 ar
    27   13   14 ar
    28   14   15 ar
    29   15   16 ar
    30   15   29 1
    31   16   17 ar
    32   16   30 1
    33   17   18 ar
    34   17   31 1
    35   18   32 1
@<TRIPOS>MOLECULE
ZINC06116353
   38    40     0     0     0
SMALL
USER_CHARGES
8a-phenyl-2,3,4,4a,5,6,7,8-octahydro-1H-quinoline
@<TRIPOS>ATOM
      1 C1         -0.0167    1.3781    0.0096 C.ar      1 <0>        -0.0959
      2 C2          1.1709    2.0855    0.0021 C.ar      1 <0>        -0.1024
      3 C3          2.3773    1.4107   -0.0141 C.ar      1 <0>        -0.0927
      4 C4          2.3960    0.0285   -0.0212 C.ar      1 <0>        -0.1197
      5 C5          1.2084   -0.6789   -0.0136 C.ar      1 <0>        -0.1315
      6 C6          0.0021   -0.0041    0.0020 C.ar      1 <0>        -0.1014
      7 C7          3.7112   -0.7071   -0.0378 C.3       1 <0>         0.1244
      8 C8          4.1413   -0.9486   -1.4857 C.3       1 <0>        -0.1327
      9 C9          5.4765   -1.6907   -1.5071 C.3       1 <0>        -0.1346
     10 C10         6.5379   -0.8515   -0.7927 C.3       1 <0>        -0.1332
     11 C11         6.1094   -0.6134    0.6565 C.3       1 <0>        -0.1300
     12 C12         4.7727    0.1311    0.6781 C.3       1 <0>        -0.0952
     13 H1          4.8779    1.0927    0.1759 H         1 <0>         0.1180
     14 C13         4.3418    0.3560    2.1306 C.3       1 <0>        -0.1354
     15 C14         4.1435   -1.0016    2.8105 C.3       1 <0>        -0.1441
     16 C15         3.1027   -1.8097    2.0322 C.3       1 <0>        -0.0101
     17 H2         -0.9592    1.9054    0.0170 H         1 <0>         0.1356
     18 H3          1.1563    3.1654    0.0081 H         1 <0>         0.1368
     19 H4          3.3051    1.9634   -0.0200 H         1 <0>         0.1341
     20 H5          1.2231   -1.7588   -0.0196 H         1 <0>         0.1156
     21 H6         -0.9258   -0.5567    0.0079 H         1 <0>         0.1350
     22 H7          3.3849   -1.5460   -1.9946 H         1 <0>         0.0895
     23 H8          4.2523    0.0082   -1.9961 H         1 <0>         0.1115
     24 H9          5.7820   -1.8607   -2.5395 H         1 <0>         0.0940
     25 H10         5.3671   -2.6482   -0.9980 H         1 <0>         0.0569
     26 H11         6.6468    0.1063   -1.3015 H         1 <0>         0.0797
     27 H12         7.4904   -1.3812   -0.8076 H         1 <0>         0.0819
     28 H13         6.8661   -0.0163    1.1656 H         1 <0>         0.0936
     29 H14         6.0000   -1.5713    1.1651 H         1 <0>         0.0603
     30 H15         5.1134    0.9179    2.6568 H         1 <0>         0.0949
     31 H16         3.4062    0.9149    2.1507 H         1 <0>         0.0861
     32 H17         5.0892   -1.5435    2.8238 H         1 <0>         0.0888
     33 H18         3.7969   -0.8495    3.8327 H         1 <0>         0.1117
     34 H19         2.9707   -2.7828    2.5052 H         1 <0>         0.1321
     35 H20         2.1532   -1.2744    2.0324 H         1 <0>         0.1328
     36 N1          3.5611   -2.0067    0.6439 N.4       1 <0>        -0.5121
     37 H21         4.4665   -2.4909    0.6521 H         1 <0>         0.4300
     38 H22         2.8728   -2.5765    0.1380 H         1 <0>         0.4276
@<TRIPOS>BOND
     1    1    6 ar
     2    1    2 ar
     3    1   17 1
     4    2    3 ar
     5    2   18 1
     6    3    4 ar
     7    3   19 1
     8    4    5 ar
     9    4    7 1
    10    5    6 ar
    11    5   20 1
    12    6   21 1
    13    7   12 1
    14    7    8 1
    15    7   36 1
    16    8    9 1
    17    8   22 1
    18    8   23 1
    19    9   10 1
    20    9   24 1
    21    9   25 1
    22   10   11 1
    23   10   26 1
    24   10   27 1
    25   11   12 1
    26   11   28 1
    27   11   29 1
    28   12   13 1
    29   12   14 1
    30   14   15 1
    31   14   30 1
    32   14   31 1
    33   15   16 1
    34   15   32 1
    35   15   33 1
    36   16   34 1
    37   16   35 1
    38   16   36 1
    39   36   37 1
    40   36   38 1
@<TRIPOS>MOLECULE
ZINC06116555
   38    40     0     0     0
SMALL
USER_CHARGES
8a-phenyl-2,3,4,4a,5,6,7,8-octahydro-1H-quinoline
@<TRIPOS>ATOM
      1 C1          0.7921   -4.7681   -1.2716 C.ar      1 <0>        -0.0959
      2 C2          0.7755   -4.0719   -2.4657 C.ar      1 <0>        -0.1014
      3 C3          0.7544   -2.6897   -2.4597 C.ar      1 <0>        -0.1316
      4 C4          0.7490   -2.0037   -1.2596 C.ar      1 <0>        -0.1200
      5 C5          0.7704   -2.6999   -0.0655 C.ar      1 <0>        -0.0925
      6 C6          0.7871   -4.0821   -0.0715 C.ar      1 <0>        -0.1024
      7 C7          0.7259   -0.4969   -1.2530 C.3       1 <0>         0.1246
      8 C8          2.1604    0.0342   -1.2577 C.3       1 <0>        -0.1324
      9 C9          2.1385    1.5640   -1.2495 C.3       1 <0>        -0.1342
     10 C10         1.4163    2.0562   -0.0004 C.3       1 <0>        -0.1338
     11 C11        -0.0187    1.5259    0.0104 C.3       1 <0>        -0.1298
     12 C12         0.0021   -0.0041    0.0020 C.3       1 <0>        -0.0958
     13 H1          0.5219   -0.3666    0.8889 H         1 <0>         0.1176
     14 C13        -1.4363   -0.5302    0.0002 C.3       1 <0>        -0.1342
     15 C14        -2.1359   -0.0558   -1.2835 C.3       1 <0>        -0.1448
     16 C15        -1.3496   -0.5438   -2.5022 C.3       1 <0>        -0.0097
     17 H2          0.8085   -5.8479   -1.2763 H         1 <0>         0.1356
     18 H3          0.7793   -4.6078   -3.4034 H         1 <0>         0.1350
     19 H4          0.7417   -2.1458   -3.3926 H         1 <0>         0.1156
     20 H5          0.7706   -2.1639    0.8721 H         1 <0>         0.1340
     21 H6          0.7998   -4.6260    0.8615 H         1 <0>         0.1368
     22 H7          2.6842   -0.3264   -0.3724 H         1 <0>         0.1116
     23 H8          2.6749   -0.3169   -2.1522 H         1 <0>         0.0895
     24 H9          3.1607    1.9422   -1.2527 H         1 <0>         0.0941
     25 H10         1.6147    1.9247   -2.1348 H         1 <0>         0.0567
     26 H11         1.4010    3.1461    0.0063 H         1 <0>         0.0822
     27 H12         1.9439    1.6947    0.8822 H         1 <0>         0.0792
     28 H13        -0.5460    1.8869   -0.8726 H         1 <0>         0.0604
     29 H14        -0.5290    1.8774    0.9072 H         1 <0>         0.0937
     30 H15        -1.4258   -1.6198    0.0267 H         1 <0>         0.0858
     31 H16        -1.9650   -0.1484    0.8736 H         1 <0>         0.0954
     32 H17        -2.1799    1.0333   -1.2911 H         1 <0>         0.0887
     33 H18        -3.1471   -0.4615   -1.3165 H         1 <0>         0.1114
     34 H19        -1.8371   -0.1945   -3.4124 H         1 <0>         0.1322
     35 H20        -1.3192   -1.6334   -2.5018 H         1 <0>         0.1329
     36 N1          0.0245   -0.0088   -2.4554 N.4       1 <0>        -0.5121
     37 H21         0.5351   -0.3142   -3.2922 H         1 <0>         0.4275
     38 H22        -0.0125    1.0170   -2.4324 H         1 <0>         0.4300
@<TRIPOS>BOND
     1    1    6 ar
     2    1    2 ar
     3    1   17 1
     4    2    3 ar
     5    2   18 1
     6    3    4 ar
     7    3   19 1
     8    4    5 ar
     9    4    7 1
    10    5    6 ar
    11    5   20 1
    12    6   21 1
    13    7   12 1
    14    7    8 1
    15    7   36 1
    16    8    9 1
    17    8   22 1
    18    8   23 1
    19    9   10 1
    20    9   24 1
    21    9   25 1
    22   10   11 1
    23   10   26 1
    24   10   27 1
    25   11   12 1
    26   11   28 1
    27   11   29 1
    28   12   13 1
    29   12   14 1
    30   14   15 1
    31   14   30 1
    32   14   31 1
    33   15   16 1
    34   15   32 1
    35   15   33 1
    36   16   34 1
    37   16   35 1
    38   16   36 1
    39   36   37 1
    40   36   38 1
@<TRIPOS>MOLECULE
ZINC28768623
   27    27     0     0     0
SMALL
USER_CHARGES
(2S,4R)-4-(phosphonomethyl)piperidine-2-carboxylic acid
@<TRIPOS>ATOM
      1 C1         -1.3745   -2.5417   -1.5677 C.3       1 <0>        -0.1674
      2 C2         -1.4183   -4.0649   -1.7090 C.3       1 <0>         0.0024
      3 N1         -2.7510   -4.5544   -1.3342 N.4       1 <0>        -0.5170
      4 C3         -3.0574   -4.2401    0.0671 C.3       1 <0>        -0.0095
      5 H1         -2.2856   -4.7142    0.6913 H         1 <0>         0.1270
      6 C4         -3.0626   -2.7222    0.2615 C.3       1 <0>        -0.1168
      7 C5         -1.6905   -2.1591   -0.1191 C.3       1 <0>        -0.0753
      8 H2         -0.9216   -2.5732    0.5497 H         1 <0>         0.0782
      9 C6         -1.7082   -0.6351    0.0149 C.3       1 <0>        -0.7309
     10 P1          0.0021   -0.0041    0.0020 P.3       1 <0>         2.2817
     11 O1          0.6948   -0.4814   -1.2156 O.2       1 <0>        -1.0838
     12 O2         -0.0198    1.6058    0.0109 O.3       1 <0>        -1.1192
     13 O3          0.7807   -0.5374    1.3064 O.3       1 <0>        -0.9391
     14 C7         -4.4124   -4.7964    0.4218 C.2       1 <0>         0.4598
     15 O4         -5.2035   -5.0629   -0.4516 O.co2     1 <0>        -0.6242
     16 O5         -4.7403   -4.9958    1.7081 O.co2     1 <0>        -0.7122
     17 H3         -2.1197   -2.0880   -2.2377 H         1 <0>         0.0765
     18 H4         -0.3717   -2.1757   -1.8332 H         1 <0>         0.1550
     19 H5         -1.2061   -4.3426   -2.7520 H         1 <0>         0.1238
     20 H6         -0.6633   -4.5163   -1.0486 H         1 <0>         0.1187
     21 H7         -3.5093   -4.0797   -1.9742 H         1 <0>         0.4435
     22 H8         -3.8358   -2.2731   -0.3792 H         1 <0>         0.0761
     23 H9         -3.2777   -2.4881    1.3146 H         1 <0>         0.0998
     24 H10        -2.2661   -0.1995   -0.8271 H         1 <0>         0.0895
     25 H11        -2.1950   -0.3558    0.9610 H         1 <0>         0.0777
     26 H12         1.8317   -0.2583    1.4720 H         1 <0>         0.4463
     27 H13        -2.7912   -5.6457   -1.4659 H         1 <0>         0.4396
@<TRIPOS>BOND
     1    1    7 1
     2    1    2 1
     3    1   17 1
     4    1   18 1
     5    2    3 1
     6    2   19 1
     7    2   20 1
     8    3    4 1
     9    3   21 1
    10    3   27 1
    11    4    5 1
    12    4    6 1
    13    4   14 1
    14    6    7 1
    15    6   22 1
    16    6   23 1
    17    7    8 1
    18    7    9 1
    19    9   10 1
    20    9   24 1
    21    9   25 1
    22   10   11 2
    23   10   12 1
    24   10   13 1
    25   13   26 1
    26   14   15 2
    27   14   16 1
@<TRIPOS>MOLECULE
ZINC29324836
   33    33     0     0     0
SMALL
USER_CHARGES

@<TRIPOS>ATOM
      1 C1         -0.0187    1.5272    0.0104 C.3       1 <0>        -0.1457
      2 C2          1.4189    2.0514   -0.0005 C.3       1 <0>        -0.0059
      3 N1          2.1075    1.5766   -1.2066 N.4       1 <0>        -0.4804
      4 C3          2.1945    0.1115   -1.1863 C.3       1 <0>        -0.0469
      5 H1          2.7030   -0.2093   -0.2771 H         1 <0>         0.1286
      6 C4          0.7868   -0.4874   -1.2210 C.3       1 <0>        -0.1148
      7 C5          0.0021   -0.0041    0.0020 C.3       1 <0>        -0.1011
      8 H2          0.4829   -0.3671    0.9104 H         1 <0>         0.0866
      9 C6         -1.4312   -0.5348   -0.0673 C.3       1 <0>        -0.1106
     10 C7         -2.1806   -0.1480    1.2093 C.3       1 <0>        -0.0931
     11 C8         -3.6139   -0.6787    1.1400 C.3       1 <0>        -0.7311
     12 P1         -4.5068   -0.2178    2.6611 P.3       1 <0>         2.2576
     13 O1         -3.7218   -0.7228    3.8922 O.2       1 <0>        -1.0977
     14 O2         -4.6432    1.3196    2.7324 O.3       1 <0>        -1.0992
     15 O3         -5.9713   -0.8864    2.6472 O.3       1 <0>        -0.9058
     16 C9          2.9702   -0.3618   -2.3885 C.2       1 <0>         0.4924
     17 O4          3.4095    0.4473   -3.1878 O.co2     1 <0>        -0.6803
     18 O5          3.1585   -1.5539   -2.5619 O.co2     1 <0>        -0.6396
     19 H3         -0.5277    1.8794    0.9076 H         1 <0>         0.1142
     20 H4         -0.5447    1.8889   -0.8730 H         1 <0>         0.0834
     21 H5          1.4077    3.1413    0.0057 H         1 <0>         0.1238
     22 H6          1.9439    1.6893    0.8835 H         1 <0>         0.1227
     23 H7          1.5938    1.8706   -2.0238 H         1 <0>         0.4221
     24 H8          0.2775   -0.1675   -2.1300 H         1 <0>         0.0765
     25 H9          0.8535   -1.5752   -1.2040 H         1 <0>         0.1071
     26 H10        -1.9373   -0.1029   -0.9307 H         1 <0>         0.0582
     27 H11        -1.4125   -1.6205   -0.1627 H         1 <0>         0.0636
     28 H12        -1.6746   -0.5799    2.0727 H         1 <0>         0.0732
     29 H13        -2.1994    0.9377    1.3048 H         1 <0>         0.0693
     30 H14        -4.1200   -0.2468    0.2766 H         1 <0>         0.0682
     31 H15        -3.5952   -1.7643    1.0446 H         1 <0>         0.0680
     32 H16        -6.5039   -0.6831    3.4283 H         1 <0>         0.4121
     33 H17         3.0373    1.9673   -1.2377 H         1 <0>         0.4248
@<TRIPOS>BOND
     1    1    7 1
     2    1    2 1
     3    1   19 1
     4    1   20 1
     5    2    3 1
     6    2   21 1
     7    2   22 1
     8    3    4 1
     9    3   23 1
    10    3   33 1
    11    4    5 1
    12    4    6 1
    13    4   16 1
    14    6    7 1
    15    6   24 1
    16    6   25 1
    17    7    8 1
    18    7    9 1
    19    9   10 1
    20    9   26 1
    21    9   27 1
    22   10   11 1
    23   10   28 1
    24   10   29 1
    25   11   12 1
    26   11   30 1
    27   11   31 1
    28   12   13 2
    29   12   14 1
    30   12   15 1
    31   15   32 1
    32   16   17 2
    33   16   18 1
@<TRIPOS>MOLECULE
ZINC06116354
   38    40     0     0     0
SMALL
USER_CHARGES
8a-phenyl-2,3,4,4a,5,6,7,8-octahydro-1H-quinoline
@<TRIPOS>ATOM
      1 C1         -0.8258    5.8638   -1.1960 C.ar      1 <0>        -0.0909
      2 C2          0.3792    5.1922   -1.1065 C.ar      1 <0>        -0.1083
      3 C3          0.4027    3.8101   -1.1181 C.ar      1 <0>        -0.1141
      4 C4         -0.7788    3.0996   -1.2183 C.ar      1 <0>        -0.1250
      5 C5         -1.9833    3.7711   -1.3126 C.ar      1 <0>        -0.1224
      6 C6         -2.0072    5.1532   -1.2966 C.ar      1 <0>        -0.1127
      7 C7         -0.7531    1.5928   -1.2309 C.3       1 <0>         0.1172
      8 C8         -0.1296    1.0833    0.0698 C.3       1 <0>        -0.1296
      9 C9         -0.9582    1.5758    1.2582 C.3       1 <0>        -0.1152
     10 C10        -2.3883    1.0455    1.1367 C.3       1 <0>        -0.1261
     11 C11        -3.0116    1.5539   -0.1651 C.3       1 <0>        -0.1428
     12 C12        -2.1827    1.0600   -1.3520 C.3       1 <0>        -0.0903
     13 H1         -2.1656   -0.0299   -1.3554 H         1 <0>         0.0971
     14 C13        -2.8006    1.5653   -2.6582 C.3       1 <0>        -0.1633
     15 C14        -1.9289    1.1121   -3.8330 C.3       1 <0>        -0.1406
     16 C15        -0.5051    1.6387   -3.6399 C.3       1 <0>        -0.0038
     17 H2         -0.8442    6.9436   -1.1870 H         1 <0>         0.1343
     18 H3          1.3022    5.7474   -1.0280 H         1 <0>         0.1341
     19 H4          1.3442    3.2855   -1.0486 H         1 <0>         0.1228
     20 H5         -2.9061    3.2160   -1.3952 H         1 <0>         0.1697
     21 H6         -2.9487    5.6778   -1.3662 H         1 <0>         0.1355
     22 H7         -0.1150   -0.0066    0.0634 H         1 <0>         0.0886
     23 H8          0.8896    1.4599    0.1563 H         1 <0>         0.0862
     24 H9         -0.5149    1.2125    2.1854 H         1 <0>         0.0830
     25 H10        -0.9715    2.6656    1.2649 H         1 <0>         0.0760
     26 H11        -2.9778    1.3975    1.9833 H         1 <0>         0.0790
     27 H12        -2.3751   -0.0444    1.1315 H         1 <0>         0.0695
     28 H13        -3.0257    2.6438   -0.1600 H         1 <0>         0.0983
     29 H14        -4.0308    1.1773   -0.2516 H         1 <0>         0.0853
     30 H15        -3.8042    1.1548   -2.7694 H         1 <0>         0.0960
     31 H16        -2.8508    2.6540   -2.6404 H         1 <0>         0.1051
     32 H17        -1.9115    0.0230   -3.8741 H         1 <0>         0.0867
     33 H18        -2.3391    1.5052   -4.7632 H         1 <0>         0.1117
     34 H19         0.1211    1.3037   -4.4668 H         1 <0>         0.1313
     35 H20        -0.5213    2.7283   -3.6151 H         1 <0>         0.1291
     36 N1          0.0504    1.1224   -2.3745 N.4       1 <0>        -0.5104
     37 H21         0.0414    0.0959   -2.3949 H         1 <0>         0.4305
     38 H22         1.0163    1.4541   -2.2686 H         1 <0>         0.4285
@<TRIPOS>BOND
     1    1    6 ar
     2    1    2 ar
     3    1   17 1
     4    2    3 ar
     5    2   18 1
     6    3    4 ar
     7    3   19 1
     8    4    5 ar
     9    4    7 1
    10    5    6 ar
    11    5   20 1
    12    6   21 1
    13    7   12 1
    14    7    8 1
    15    7   36 1
    16    8    9 1
    17    8   22 1
    18    8   23 1
    19    9   10 1
    20    9   24 1
    21    9   25 1
    22   10   11 1
    23   10   26 1
    24   10   27 1
    25   11   12 1
    26   11   28 1
    27   11   29 1
    28   12   13 1
    29   12   14 1
    30   14   15 1
    31   14   30 1
    32   14   31 1
    33   15   16 1
    34   15   32 1
    35   15   33 1
    36   16   34 1
    37   16   35 1
    38   16   36 1
    39   36   37 1
    40   36   38 1
@<TRIPOS>MOLECULE
ZINC06116554
   38    40     0     0     0
SMALL
USER_CHARGES
8a-phenyl-2,3,4,4a,5,6,7,8-octahydro-1H-quinoline
@<TRIPOS>ATOM
      1 C1         -0.0113    1.0759    0.0038 C.ar      1 <0>        -0.0908
      2 C2          0.9617    1.7760    0.6922 C.ar      1 <0>        -0.1084
      3 C3          0.9450    3.1583    0.6979 C.ar      1 <0>        -0.1138
      4 C4         -0.0501    3.8402    0.0228 C.ar      1 <0>        -0.1251
      5 C5         -1.0261    3.1400   -0.6612 C.ar      1 <0>        -0.1225
      6 C6         -1.0068    1.7578   -0.6706 C.ar      1 <0>        -0.1128
      7 C7         -0.0705    5.3471    0.0321 C.3       1 <0>         0.1173
      8 C8         -0.1904    5.8457    1.4733 C.3       1 <0>        -0.1296
      9 C9         -1.4827    5.3077    2.0915 C.3       1 <0>        -0.1153
     10 C10        -2.6820    5.7990    1.2788 C.3       1 <0>        -0.1261
     11 C11        -2.5600    5.3036   -0.1639 C.3       1 <0>        -0.1429
     12 C12        -1.2686    5.8453   -0.7794 C.3       1 <0>        -0.0905
     13 H1         -1.2887    6.9351   -0.7667 H         1 <0>         0.0973
     14 C13        -1.1411    5.3514   -2.2227 C.3       1 <0>        -0.1633
     15 C14         0.1830    5.8509   -2.8081 C.3       1 <0>        -0.1407
     16 C15         1.3401    5.3570   -1.9370 C.3       1 <0>        -0.0036
     17 H2          0.0038   -0.0040   -0.0035 H         1 <0>         0.1342
     18 H3          1.7369    1.2432    1.2228 H         1 <0>         0.1341
     19 H4          1.7077    3.7054    1.2320 H         1 <0>         0.1229
     20 H5         -1.8035    3.6728   -1.1887 H         1 <0>         0.1698
     21 H6         -1.7694    1.2107   -1.2050 H         1 <0>         0.1355
     22 H7          0.6635    5.4937    2.0521 H         1 <0>         0.0864
     23 H8         -0.2103    6.9355    1.4804 H         1 <0>         0.0886
     24 H9         -1.4618    4.2179    2.0854 H         1 <0>         0.0757
     25 H10        -1.5695    5.6632    3.1182 H         1 <0>         0.0831
     26 H11        -3.6015    5.4130    1.7188 H         1 <0>         0.0791
     27 H12        -2.7048    6.8888    1.2877 H         1 <0>         0.0692
     28 H13        -2.5381    4.2139   -0.1734 H         1 <0>         0.0985
     29 H14        -3.4140    5.6554   -0.7426 H         1 <0>         0.0853
     30 H15        -1.1582    4.2616   -2.2378 H         1 <0>         0.1051
     31 H16        -1.9711    5.7372   -2.8146 H         1 <0>         0.0960
     32 H17         0.3007    5.4667   -3.8213 H         1 <0>         0.1117
     33 H18         0.1831    6.9407   -2.8295 H         1 <0>         0.0867
     34 H19         1.3493    4.2671   -1.9294 H         1 <0>         0.1293
     35 H20         2.2825    5.7251   -2.3425 H         1 <0>         0.1312
     36 N1          1.1771    5.8634   -0.5608 N.4       1 <0>        -0.5104
     37 H21         1.9745    5.5573    0.0091 H         1 <0>         0.4285
     38 H22         1.1436    6.8894   -0.5795 H         1 <0>         0.4306
@<TRIPOS>BOND
     1    1    6 ar
     2    1    2 ar
     3    1   17 1
     4    2    3 ar
     5    2   18 1
     6    3    4 ar
     7    3   19 1
     8    4    5 ar
     9    4    7 1
    10    5    6 ar
    11    5   20 1
    12    6   21 1
    13    7   12 1
    14    7    8 1
    15    7   36 1
    16    8    9 1
    17    8   22 1
    18    8   23 1
    19    9   10 1
    20    9   24 1
    21    9   25 1
    22   10   11 1
    23   10   26 1
    24   10   27 1
    25   11   12 1
    26   11   28 1
    27   11   29 1
    28   12   13 1
    29   12   14 1
    30   14   15 1
    31   14   30 1
    32   14   31 1
    33   15   16 1
    34   15   32 1
    35   15   33 1
    36   16   34 1
    37   16   35 1
    38   16   36 1
    39   36   37 1
    40   36   38 1
