@<TRIPOS>MOLECULE
ZINC19796181
   29    28     0     0     0
SMALL
USER_CHARGES

@<TRIPOS>ATOM
      1 C1         -0.0225    1.8097    0.0120 C.3       1 <0>        -0.1867
      2 S1          0.0021   -0.0041    0.0020 S.3       1 <0>         0.0842
      3 C2          0.8767   -0.4266    1.4721 C.cat     1 <0>         0.4673
      4 N1          1.3244    0.5135    2.2576 N.pl3     1 <0>        -0.7494
      5 N2          1.0873   -1.7480    1.7914 N.pl3     1 <0>        -0.6502
      6 C3          1.8145   -2.0993    3.0137 C.3       1 <0>         0.0784
      7 C4          1.9093   -3.6219    3.1309 C.3       1 <0>        -0.1472
      8 C5          2.6688   -3.9888    4.4075 C.3       1 <0>        -0.1247
      9 C6          2.7636   -5.5113    4.5247 C.3       1 <0>        -0.0510
     10 H1          3.2136   -5.9182    3.6191 H         1 <0>         0.1376
     11 C7          3.6155   -5.8715    5.7145 C.2       1 <0>         0.4861
     12 O1          3.1042   -6.3737    6.7008 O.co2     1 <0>        -0.6640
     13 O2          4.8162   -5.6606    5.6907 O.co2     1 <0>        -0.6295
     14 N3          1.4177   -6.0738    4.6980 N.4       1 <0>        -0.6149
     15 H2          1.0001    2.1870    0.0043 H         1 <0>         0.1129
     16 H3         -0.5497    2.1708   -0.8711 H         1 <0>         0.1554
     17 H4         -0.5327    2.1613    0.9088 H         1 <0>         0.1125
     18 H5          1.8059    0.2809    3.0669 H         1 <0>         0.4320
     19 H6          0.7544   -2.4472    1.2072 H         1 <0>         0.4425
     20 H7          2.8177   -1.6748    2.9743 H         1 <0>         0.1041
     21 H8          1.2849   -1.7006    3.8789 H         1 <0>         0.1002
     22 H9          0.9062   -4.0464    3.1703 H         1 <0>         0.0749
     23 H10         2.4390   -4.0207    2.2657 H         1 <0>         0.0972
     24 H11         3.6720   -3.5643    4.3681 H         1 <0>         0.1189
     25 H12         2.1392   -3.5900    5.2727 H         1 <0>         0.0903
     26 H13         0.8472   -5.8327    3.9014 H         1 <0>         0.4086
     27 H14         1.4802   -7.0779    4.7753 H         1 <0>         0.4386
     28 H15         1.1759    1.4452    2.0324 H         1 <0>         0.4427
     29 H16         1.0011   -5.6972    5.5363 H         1 <0>         0.4331
@<TRIPOS>BOND
     1    1    2 1
     2    1   15 1
     3    1   16 1
     4    1   17 1
     5    2    3 1
     6    3    4 2
     7    3    5 1
     8    4   18 1
     9    4   28 1
    10    5    6 1
    11    5   19 1
    12    6    7 1
    13    6   20 1
    14    6   21 1
    15    7    8 1
    16    7   22 1
    17    7   23 1
    18    8    9 1
    19    8   24 1
    20    8   25 1
    21    9   10 1
    22    9   11 1
    23    9   14 1
    24   11   12 2
    25   11   13 1
    26   14   26 1
    27   14   27 1
    28   14   29 1
@<TRIPOS>MOLECULE
ZINC19796181
   29    28     0     0     0
SMALL
USER_CHARGES

@<TRIPOS>ATOM
      1 C1         -0.0225    1.8097    0.0120 C.3       1 <0>        -0.1809
      2 S1          0.0021   -0.0041    0.0020 S.3       1 <0>         0.0776
      3 C2          0.8484   -0.4107   -1.4889 C.cat     1 <0>         0.4656
      4 N1          1.0422   -1.6602   -1.8089 N.pl3     1 <0>        -0.6057
      5 C3          1.7459   -1.9983   -3.0485 C.3       1 <0>         0.0674
      6 C4          1.8383   -3.5195   -3.1839 C.3       1 <0>        -0.1494
      7 C5          2.5732   -3.8726   -4.4786 C.3       1 <0>        -0.1257
      8 C6          2.6656   -5.3938   -4.6140 C.3       1 <0>        -0.0501
      9 H1          1.6668   -5.8256   -4.5495 H         1 <0>         0.1373
     10 C7          3.2790   -5.7433   -5.9454 C.2       1 <0>         0.4837
     11 O1          4.4879   -5.8652   -6.0464 O.co2     1 <0>        -0.6606
     12 O2          2.5664   -5.9040   -6.9215 O.co2     1 <0>        -0.6284
     13 N2          3.5023   -5.9317   -3.5330 N.4       1 <0>        -0.6164
     14 N3          1.3049    0.5897   -2.3156 N.pl3     1 <0>        -0.7948
     15 H2          1.0001    2.1870    0.0043 H         1 <0>         0.1126
     16 H3         -0.5497    2.1708   -0.8711 H         1 <0>         0.1130
     17 H4         -0.5327    2.1613    0.9088 H         1 <0>         0.1529
     18 H5          1.1999   -1.5903   -3.8991 H         1 <0>         0.1126
     19 H6          2.7497   -1.5741   -3.0238 H         1 <0>         0.1093
     20 H7          2.3843   -3.9275   -2.3333 H         1 <0>         0.0765
     21 H8          0.8345   -3.9437   -3.2086 H         1 <0>         0.0986
     22 H9          2.0272   -3.4646   -5.3292 H         1 <0>         0.1161
     23 H10         3.5770   -3.4484   -4.4538 H         1 <0>         0.0942
     24 H11         3.0916   -5.6977   -2.6416 H         1 <0>         0.4089
     25 H12         3.5632   -6.9349   -3.6223 H         1 <0>         0.4375
     26 H13         1.1608    1.5190   -2.0776 H         1 <0>         0.4387
     27 H14         1.7708    0.3659   -3.1364 H         1 <0>         0.4289
     28 H15         0.7204   -2.3656   -1.2260 H         1 <0>         0.4460
     29 H16         4.4268   -5.5320   -3.5927 H         1 <0>         0.4349
@<TRIPOS>BOND
     1    1    2 1
     2    1   15 1
     3    1   16 1
     4    1   17 1
     5    2    3 1
     6    3    4 2
     7    3   14 1
     8    4    5 1
     9    4   28 1
    10    5    6 1
    11    5   18 1
    12    5   19 1
    13    6    7 1
    14    6   20 1
    15    6   21 1
    16    7    8 1
    17    7   22 1
    18    7   23 1
    19    8    9 1
    20    8   10 1
    21    8   13 1
    22   10   11 2
    23   10   12 1
    24   13   24 1
    25   13   25 1
    26   13   29 1
    27   14   26 1
    28   14   27 1
@<TRIPOS>MOLECULE
ZINC15682449
   31    30     0     0     0
SMALL
USER_CHARGES

@<TRIPOS>ATOM
      1 C1         -0.0160    1.3301    0.0094 C.2       1 <0>        -0.2469
      2 C2          0.0021   -0.0041    0.0020 C.2       1 <0>        -0.0662
      3 C3         -1.2548   -0.7527    0.0100 C.2       1 <0>        -0.3733
      4 C4         -1.2364   -2.1062    0.0026 C.2       1 <0>         0.4508
      5 N1         -0.0307   -2.7807   -0.0126 N.pl3     1 <0>        -0.8741
      6 N2         -2.4234   -2.8132    0.0101 N.pl3     1 <0>        -0.7496
      7 C5         -2.4035   -4.2781    0.0020 C.3       1 <0>         0.1154
      8 C6         -3.8389   -4.8077    0.0129 C.3       1 <0>        -0.1416
      9 C7         -3.8182   -6.3375    0.0045 C.3       1 <0>        -0.1250
     10 C8         -5.2536   -6.8671    0.0153 C.3       1 <0>        -0.0485
     11 H1         -5.8064   -6.4353   -0.8189 H         1 <0>         0.1340
     12 C9         -5.2362   -8.3682   -0.1167 C.2       1 <0>         0.4867
     13 O1         -5.1872   -9.0674    0.8809 O.co2     1 <0>        -0.6674
     14 O2         -5.2710   -8.8834   -1.2212 O.co2     1 <0>        -0.6351
     15 N3         -5.9035   -6.4942    1.2788 N.4       1 <0>        -0.6152
     16 H2          0.9118    1.8828    0.0035 H         1 <0>         0.0891
     17 H3         -0.9586    1.8573    0.0167 H         1 <0>         0.0898
     18 H4          0.9446   -0.5313   -0.0098 H         1 <0>         0.0920
     19 H5         -2.1973   -0.2255    0.0218 H         1 <0>         0.1130
     20 H6         -0.0175   -3.7505   -0.0179 H         1 <0>         0.3931
     21 H7          0.8027   -2.2843   -0.0179 H         1 <0>         0.4130
     22 H8         -3.2699   -2.3397    0.0207 H         1 <0>         0.4117
     23 H9         -1.8933   -4.6296   -0.8948 H         1 <0>         0.0672
     24 H10        -1.8764   -4.6391    0.8851 H         1 <0>         0.0638
     25 H11        -4.3491   -4.4561    0.9097 H         1 <0>         0.0631
     26 H12        -4.3661   -4.4466   -0.8702 H         1 <0>         0.0843
     27 H13        -3.3080   -6.6890   -0.8923 H         1 <0>         0.1102
     28 H14        -3.2910   -6.6986    0.8875 H         1 <0>         0.0881
     29 H15        -5.9152   -5.4891    1.3673 H         1 <0>         0.4124
     30 H16        -6.8501   -6.8434    1.2860 H         1 <0>         0.4316
     31 H17        -5.3917   -6.8938    2.0511 H         1 <0>         0.4334
@<TRIPOS>BOND
     1    1    2 2
     2    1   16 1
     3    1   17 1
     4    2    3 1
     5    2   18 1
     6    3    4 2
     7    3   19 1
     8    4    5 1
     9    4    6 1
    10    5   21 1
    11    5   20 1
    12    6    7 1
    13    6   22 1
    14    7    8 1
    15    7   23 1
    16    7   24 1
    17    8    9 1
    18    8   25 1
    19    8   26 1
    20    9   10 1
    21    9   27 1
    22    9   28 1
    23   10   11 1
    24   10   12 1
    25   10   15 1
    26   12   13 2
    27   12   14 1
    28   15   29 1
    29   15   30 1
    30   15   31 1
@<TRIPOS>MOLECULE
ZINC03806239
   38    38     0     0     0
SMALL
USER_CHARGES

@<TRIPOS>ATOM
      1 C1         -0.0167    1.3781    0.0096 C.ar      1 <0>        -0.1076
      2 C2          1.1709    2.0855    0.0021 C.ar      1 <0>        -0.1008
      3 C3          2.3773    1.4107   -0.0130 C.ar      1 <0>        -0.0892
      4 C4          2.3960    0.0285   -0.0201 C.ar      1 <0>        -0.1032
      5 C5          1.2084   -0.6789   -0.0117 C.ar      1 <0>        -0.0889
      6 C6          0.0021   -0.0041    0.0020 C.ar      1 <0>        -0.0999
      7 C7          1.2289   -2.1857   -0.0199 C.3       1 <0>        -0.0681
      8 C8          1.2506   -2.7033    1.4197 C.3       1 <0>        -0.1282
      9 S1          1.2752   -4.5172    1.4098 S.3       1 <0>         0.0628
     10 C9          1.2986   -4.9525    3.1170 C.cat     1 <0>         0.4862
     11 N1          0.7410   -6.0937    3.5216 N.pl3     1 <0>        -0.7315
     12 N2          1.8739   -4.1406    4.0040 N.pl3     1 <0>        -0.7684
     13 C10         3.6720    2.1819   -0.0222 C.3       1 <0>        -0.0681
     14 C11         4.1244    2.4362    1.4171 C.3       1 <0>        -0.1285
     15 S2          5.6829    3.3645    1.4060 S.3       1 <0>         0.0633
     16 C12         6.0660    3.5746    3.1129 C.cat     1 <0>         0.4852
     17 N3          7.3373    3.6558    3.5056 N.pl3     1 <0>        -0.7337
     18 N4          5.0846    3.6525    4.0116 N.pl3     1 <0>        -0.7668
     19 H1         -0.9591    1.9053    0.0259 H         1 <0>         0.1340
     20 H2          1.1563    3.1654    0.0076 H         1 <0>         0.1302
     21 H3          3.3385   -0.4987   -0.0326 H         1 <0>         0.1271
     22 H4         -0.9258   -0.5567    0.0082 H         1 <0>         0.1303
     23 H5          0.3387   -2.5584   -0.5266 H         1 <0>         0.1001
     24 H6          2.1184   -2.5342   -0.5448 H         1 <0>         0.0973
     25 H7          2.1409   -2.3307    1.9264 H         1 <0>         0.1053
     26 H8          0.3612   -2.3549    1.9446 H         1 <0>         0.1182
     27 H9          0.3224   -6.6844    2.8761 H         1 <0>         0.4534
     28 H10         2.2797   -3.3102    3.7097 H         1 <0>         0.4399
     29 H11         1.8868   -4.3803    4.9439 H         1 <0>         0.4322
     30 H12         4.4344    1.6056   -0.5463 H         1 <0>         0.0981
     31 H13         3.5237    3.1349   -0.5302 H         1 <0>         0.0992
     32 H14         3.3620    3.0125    1.9412 H         1 <0>         0.1092
     33 H15         4.2728    1.4832    1.9250 H         1 <0>         0.1145
     34 H16         8.0514    3.5991    2.8516 H         1 <0>         0.4527
     35 H17         4.1595    3.5934    3.7259 H         1 <0>         0.4419
     36 H18         5.2955    3.7682    4.9513 H         1 <0>         0.4324
     37 H19         0.7539   -6.3333    4.4614 H         1 <0>         0.4349
     38 H20         7.5482    3.7715    4.4453 H         1 <0>         0.4346
@<TRIPOS>BOND
     1    1    6 ar
     2    1    2 ar
     3    1   19 1
     4    2    3 ar
     5    2   20 1
     6    3    4 ar
     7    3   13 1
     8    4    5 ar
     9    4   21 1
    10    5    6 ar
    11    5    7 1
    12    6   22 1
    13    7    8 1
    14    7   23 1
    15    7   24 1
    16    8    9 1
    17    8   25 1
    18    8   26 1
    19    9   10 1
    20   10   11 2
    21   10   12 1
    22   11   27 1
    23   11   37 1
    24   12   28 1
    25   12   29 1
    26   13   14 1
    27   13   30 1
    28   13   31 1
    29   14   15 1
    30   14   32 1
    31   14   33 1
    32   15   16 1
    33   16   17 2
    34   16   18 1
    35   17   34 1
    36   17   38 1
    37   18   35 1
    38   18   36 1
@<TRIPOS>MOLECULE
ZINC03951312
   30    30     0     0     0
SMALL
USER_CHARGES

@<TRIPOS>ATOM
      1 C1         -0.0184    1.5028    0.0103 C.3       1 <0>        -0.1669
      2 C2          0.0021   -0.0041    0.0020 C.cat     1 <0>         0.5375
      3 N1          0.0215   -0.6566    1.1184 N.pl3     1 <0>        -0.7278
      4 N2          0.0000   -0.6826   -1.1881 N.pl3     1 <0>        -0.6718
      5 C3          0.0199   -2.1475   -1.1962 C.3       1 <0>         0.1171
      6 C4          0.0132   -2.6421   -2.6197 C.ar      1 <0>        -0.1278
      7 C5         -1.1872   -2.8799   -3.2632 C.ar      1 <0>        -0.0578
      8 C6         -1.1934   -3.3336   -4.5687 C.ar      1 <0>        -0.1079
      9 C7          0.0008   -3.5492   -5.2313 C.ar      1 <0>        -0.0657
     10 C8          1.2007   -3.3106   -4.5883 C.ar      1 <0>        -0.1654
     11 C9          1.2069   -2.8527   -3.2838 C.ar      1 <0>        -0.0698
     12 C10         2.5023   -3.5460   -5.3104 C.3       1 <0>         0.0438
     13 N3          2.9092   -2.3146   -6.0004 N.4       1 <0>        -0.6372
     14 H1          1.0042    1.8801    0.0026 H         1 <0>         0.1366
     15 H2         -0.5455    1.8639   -0.8728 H         1 <0>         0.1239
     16 H3         -0.5286    1.8543    0.9071 H         1 <0>         0.1280
     17 H4          0.0230   -0.1762    1.9610 H         1 <0>         0.4537
     18 H5         -0.0146   -0.1932   -2.0255 H         1 <0>         0.4397
     19 H6          0.9196   -2.5014   -0.6928 H         1 <0>         0.1063
     20 H7         -0.8601   -2.5256   -0.6760 H         1 <0>         0.1086
     21 H8         -2.1200   -2.7115   -2.7456 H         1 <0>         0.1412
     22 H9         -2.1310   -3.5200   -5.0711 H         1 <0>         0.1479
     23 H10        -0.0041   -3.9043   -6.2512 H         1 <0>         0.1436
     24 H11         2.1445   -2.6626   -2.7826 H         1 <0>         0.1371
     25 H12         3.2705   -3.8303   -4.5913 H         1 <0>         0.1435
     26 H13         2.3737   -4.3456   -6.0399 H         1 <0>         0.1468
     27 H14         2.1981   -2.0514   -6.6661 H         1 <0>         0.4368
     28 H15         3.0283   -1.5743   -5.3251 H         1 <0>         0.4322
     29 H16         0.0347   -1.6265    1.1130 H         1 <0>         0.4296
     30 H17         3.7807   -2.4722   -6.4839 H         1 <0>         0.4441
@<TRIPOS>BOND
     1    1    2 1
     2    1   14 1
     3    1   15 1
     4    1   16 1
     5    2    3 2
     6    2    4 1
     7    3   17 1
     8    3   29 1
     9    4    5 1
    10    4   18 1
    11    5    6 1
    12    5   19 1
    13    5   20 1
    14    6   11 ar
    15    6    7 ar
    16    7    8 ar
    17    7   21 1
    18    8    9 ar
    19    8   22 1
    20    9   10 ar
    21    9   23 1
    22   10   11 ar
    23   10   12 1
    24   11   24 1
    25   12   13 1
    26   12   25 1
    27   12   26 1
    28   13   27 1
    29   13   28 1
    30   13   30 1
@<TRIPOS>MOLECULE
ZINC06643273
   17    17     0     0     0
SMALL
USER_CHARGES
4-methoxypyridin-2-amine
@<TRIPOS>ATOM
      1 C1          3.5465   -2.0636   -0.0438 C.3       1 <0>         0.0259
      2 O1          3.5862   -0.6352   -0.0360 O.3       1 <0>        -0.3121
      3 C2          2.3943    0.0143   -0.0207 C.ar      1 <0>         0.2063
      4 C3          1.1938   -0.6959   -0.0131 C.ar      1 <0>        -0.3186
      5 C4          0.0021   -0.0041    0.0020 C.ar      1 <0>         0.1851
      6 N1         -0.0158    1.3163    0.0093 N.ar      1 <0>        -0.5668
      7 C5          1.1011    2.0290    0.0024 C.ar      1 <0>         0.4342
      8 C6          2.3407    1.4024   -0.0128 C.ar      1 <0>        -0.2784
      9 N2          1.0317    3.4174    0.0101 N.pl3     1 <0>        -0.8476
     10 H1          4.5636   -2.4553   -0.0559 H         1 <0>         0.1035
     11 H2          3.0315   -2.4176    0.8492 H         1 <0>         0.0596
     12 H3          3.0142   -2.4075   -0.9306 H         1 <0>         0.0596
     13 H4          1.1982   -1.7758   -0.0193 H         1 <0>         0.1367
     14 H5         -0.9302   -0.5493    0.0084 H         1 <0>         0.1596
     15 H6          3.2495    1.9859   -0.0179 H         1 <0>         0.1369
     16 H7          0.1685    3.8599    0.0204 H         1 <0>         0.4066
     17 H8          1.8465    3.9438    0.0051 H         1 <0>         0.4095
@<TRIPOS>BOND
     1    1    2 1
     2    1   10 1
     3    1   11 1
     4    1   12 1
     5    2    3 1
     6    3    8 ar
     7    3    4 ar
     8    4    5 ar
     9    4   13 1
    10    5    6 ar
    11    5   14 1
    12    6    7 ar
    13    7    8 ar
    14    7    9 1
    15    8   15 1
    16    9   16 1
    17    9   17 1
@<TRIPOS>MOLECULE
ZINC06643273
   18    18     0     0     0
SMALL
USER_CHARGES
4-methoxypyridin-2-amine
@<TRIPOS>ATOM
      1 C1          3.5465   -2.0636   -0.0438 C.3       1 <0>         0.0088
      2 O1          3.5862   -0.6352   -0.0360 O.3       1 <0>        -0.2777
      3 C2          2.3943    0.0143   -0.0207 C.ar      1 <0>         0.2839
      4 C3          1.1938   -0.6959   -0.0131 C.ar      1 <0>        -0.2511
      5 C4          0.0021   -0.0041    0.0020 C.ar      1 <0>         0.1930
      6 C5          1.1011    2.0290    0.0024 C.ar      1 <0>         0.4839
      7 C6          2.3407    1.4024   -0.0128 C.ar      1 <0>        -0.2465
      8 N1          1.0317    3.4174    0.0101 N.pl3     1 <0>        -0.8205
      9 H1          4.5636   -2.4553   -0.0559 H         1 <0>         0.1259
     10 H2          3.0315   -2.4176    0.8492 H         1 <0>         0.0772
     11 H3          3.0142   -2.4075   -0.9306 H         1 <0>         0.0772
     12 H4          1.1982   -1.7758   -0.0193 H         1 <0>         0.1856
     13 H5         -0.9302   -0.5493    0.0084 H         1 <0>         0.1999
     14 H6          3.2495    1.9859   -0.0179 H         1 <0>         0.1866
     15 H7          0.1685    3.8599    0.0204 H         1 <0>         0.4228
     16 H8          1.8465    3.9438    0.0051 H         1 <0>         0.4389
     17 N2         -0.0862    1.3542    0.0102 N.ar      1 <0>        -0.5575
     18 H9         -0.9899    1.8415    0.0215 H         1 <0>         0.4699
@<TRIPOS>BOND
     1    1    2 1
     2    1    9 1
     3    1   10 1
     4    1   11 1
     5    2    3 1
     6    3    7 ar
     7    3    4 ar
     8    4    5 ar
     9    4   12 1
    10    5   13 1
    11    5   17 ar
    12    6    7 ar
    13    6    8 1
    14    6   17 ar
    15    7   14 1
    16    8   15 1
    17    8   16 1
    18   17   18 1
@<TRIPOS>MOLECULE
ZINC03804505
   28    27     0     0     0
SMALL
USER_CHARGES

@<TRIPOS>ATOM
      1 C1         -0.0184    1.5028    0.0103 C.3       1 <0>        -0.1654
      2 C2          0.0021   -0.0041    0.0020 C.cat     1 <0>         0.5348
      3 N1          0.0215   -0.6566    1.1184 N.pl3     1 <0>        -0.7306
      4 N2          0.0000   -0.6826   -1.1881 N.pl3     1 <0>        -0.6699
      5 C3          0.0199   -2.1475   -1.1962 C.3       1 <0>         0.0710
      6 C4          0.0130   -2.6497   -2.6414 C.3       1 <0>        -0.1468
      7 C5          0.0338   -4.1795   -2.6498 C.3       1 <0>        -0.1263
      8 C6          0.0269   -4.6817   -4.0950 C.3       1 <0>        -0.0501
      9 H1          0.8576   -4.2328   -4.6396 H         1 <0>         0.1368
     10 C7          0.1711   -6.1817   -4.1063 C.2       1 <0>         0.4835
     11 O1         -0.8208   -6.8898   -4.0707 O.co2     1 <0>        -0.6608
     12 O2          1.2797   -6.6873   -4.1510 O.co2     1 <0>        -0.6287
     13 N3         -1.2397   -4.3067   -4.7377 N.4       1 <0>        -0.6162
     14 H2          1.0042    1.8801    0.0026 H         1 <0>         0.1363
     15 H3         -0.5455    1.8639   -0.8728 H         1 <0>         0.1231
     16 H4         -0.5286    1.8543    0.9071 H         1 <0>         0.1248
     17 H5          0.0230   -0.1762    1.9610 H         1 <0>         0.4512
     18 H6         -0.0146   -0.1932   -2.0255 H         1 <0>         0.4409
     19 H7          0.9196   -2.5014   -0.6928 H         1 <0>         0.1030
     20 H8         -0.8601   -2.5256   -0.6760 H         1 <0>         0.0999
     21 H9         -0.8866   -2.2957   -3.1448 H         1 <0>         0.0744
     22 H10         0.8931   -2.2715   -3.1616 H         1 <0>         0.0961
     23 H11         0.9335   -4.5334   -2.1464 H         1 <0>         0.1150
     24 H12        -0.8462   -4.5577   -2.1296 H         1 <0>         0.0931
     25 H13        -2.0086   -4.7222   -4.2336 H         1 <0>         0.4348
     26 H14        -1.3362   -3.3023   -4.7302 H         1 <0>         0.4089
     27 H15         0.0347   -1.6265    1.1130 H         1 <0>         0.4300
     28 H16        -1.2442   -4.6379   -5.6908 H         1 <0>         0.4372
@<TRIPOS>BOND
     1    1    2 1
     2    1   14 1
     3    1   15 1
     4    1   16 1
     5    2    3 2
     6    2    4 1
     7    3   17 1
     8    3   27 1
     9    4    5 1
    10    4   18 1
    11    5    6 1
    12    5   19 1
    13    5   20 1
    14    6    7 1
    15    6   21 1
    16    6   22 1
    17    7    8 1
    18    7   23 1
    19    7   24 1
    20    8    9 1
    21    8   10 1
    22    8   13 1
    23   10   11 2
    24   10   12 1
    25   13   25 1
    26   13   26 1
    27   13   28 1
@<TRIPOS>MOLECULE
ZINC13585233
   32    33     0     0     0
SMALL
USER_CHARGES

@<TRIPOS>ATOM
      1 C1         -0.0187    1.5258    0.0104 C.3       1 <0>        -0.1815
      2 C2          0.0021   -0.0041    0.0020 C.3       1 <0>         0.0755
      3 H1          0.5123   -0.3556   -0.8948 H         1 <0>         0.0954
      4 C3          0.7421   -0.5109    1.2415 C.3       1 <0>         0.0659
      5 H2          0.2319   -0.1594    2.1383 H         1 <0>         0.0982
      6 C4          0.7628   -2.0407    1.2331 C.3       1 <0>         0.1138
      7 H3          1.2721   -2.3976    0.3380 H         1 <0>         0.0965
      8 C5          1.4882   -2.5576    2.4847 C.3       1 <0>         0.1254
      9 N1          0.7114   -2.1531    3.6655 N.pl3     1 <0>        -0.7304
     10 C6         -0.6591   -2.3202    3.6590 C.2       1 <0>         0.3300
     11 C7         -1.3246   -2.5160    2.4829 C.2       1 <0>        -0.0452
     12 C8         -2.7246   -2.6779    2.5064 C.2       1 <0>         0.5381
     13 O1         -3.3435   -2.8520    1.4657 O.2       1 <0>        -0.5223
     14 N2         -3.3730   -2.6389    3.6822 N.2       1 <0>        -0.6309
     15 C9         -2.7217   -2.4523    4.8099 C.2       1 <0>         0.6556
     16 N3         -1.3706   -2.2911    4.8305 N.pl3     1 <0>        -0.6366
     17 H4         -0.9110   -2.1552    5.6739 H         1 <0>         0.4110
     18 N4         -3.4194   -2.4195    5.9902 N.pl3     1 <0>        -0.8248
     19 N5         -0.6150   -2.5576    1.2616 N.pl3     1 <0>        -0.7055
     20 O2          2.0827   -0.0163    1.2314 O.3       1 <0>        -0.5532
     21 O3         -1.3386   -0.4987    0.0122 O.3       1 <0>        -0.5370
     22 H5          1.0039    1.9031    0.0027 H         1 <0>         0.0701
     23 H6         -0.5459    1.8868   -0.8726 H         1 <0>         0.0635
     24 H7         -0.5289    1.8773    0.9072 H         1 <0>         0.0540
     25 H8          1.5594   -3.6445    2.4460 H         1 <0>         0.0692
     26 H9          2.4873   -2.1247    2.5358 H         1 <0>         0.0987
     27 H10         1.1562   -1.7739    4.4397 H         1 <0>         0.4010
     28 H11        -4.3827   -2.5333    5.9874 H         1 <0>         0.4312
     29 H12        -2.9495   -2.2825    6.8277 H         1 <0>         0.4099
     30 H13        -1.0256   -2.9189    0.4604 H         1 <0>         0.4158
     31 H14         2.5972   -0.2904    0.4599 H         1 <0>         0.3756
     32 H15        -1.8531   -0.2245    0.7836 H         1 <0>         0.3732
@<TRIPOS>BOND
     1    1    2 1
     2    1   22 1
     3    1   23 1
     4    1   24 1
     5    2    3 1
     6    2    4 1
     7    2   21 1
     8    4    5 1
     9    4    6 1
    10    4   20 1
    11    6    7 1
    12    6   19 1
    13    6    8 1
    14    8    9 1
    15    8   25 1
    16    8   26 1
    17    9   10 1
    18    9   27 1
    19   10   16 1
    20   10   11 2
    21   11   12 1
    22   11   19 1
    23   12   13 2
    24   12   14 1
    25   14   15 2
    26   15   16 1
    27   15   18 1
    28   16   17 1
    29   18   28 1
    30   18   29 1
    31   19   30 1
    32   20   31 1
    33   21   32 1
@<TRIPOS>MOLECULE
ZINC13585233
   32    33     0     0     0
SMALL
USER_CHARGES

@<TRIPOS>ATOM
      1 C1         -0.0187    1.5258    0.0104 C.3       1 <0>        -0.1815
      2 C2          0.0021   -0.0041    0.0020 C.3       1 <0>         0.0764
      3 H1          0.5123   -0.3556   -0.8948 H         1 <0>         0.0949
      4 C3          0.7421   -0.5109    1.2415 C.3       1 <0>         0.0650
      5 H2          0.2319   -0.1594    2.1383 H         1 <0>         0.0992
      6 C4          0.7628   -2.0407    1.2331 C.3       1 <0>         0.1208
      7 H3          1.2722   -2.3972    0.3378 H         1 <0>         0.0941
      8 C5          1.4895   -2.5567    2.4838 C.3       1 <0>         0.1192
      9 N1          0.7255   -2.1394    3.6682 N.pl3     1 <0>        -0.7088
     10 C6         -0.6508   -2.3035    3.6739 C.2       1 <0>         0.3972
     11 C7         -1.3275   -2.5090    2.4797 C.2       1 <0>        -0.0966
     12 C8         -2.7169   -2.6691    2.5041 C.2       1 <0>         0.5409
     13 O1         -3.3427   -2.8511    1.4708 O.2       1 <0>        -0.5448
     14 N2         -3.3512   -2.6184    3.6958 N.am      1 <0>        -0.6514
     15 H4         -4.3143   -2.7263    3.7362 H         1 <0>         0.4121
     16 C9         -2.6420   -2.4167    4.8397 C.2       1 <0>         0.6288
     17 N3         -1.3349   -2.2650    4.8235 N.2       1 <0>        -0.5927
     18 N4         -3.3062   -2.3699    6.0393 N.pl3     1 <0>        -0.8267
     19 N5         -0.6152   -2.5570    1.2601 N.pl3     1 <0>        -0.7095
     20 O2          2.0827   -0.0163    1.2314 O.3       1 <0>        -0.5525
     21 O3         -1.3386   -0.4987    0.0122 O.3       1 <0>        -0.5376
     22 H5          1.0039    1.9031    0.0027 H         1 <0>         0.0706
     23 H6         -0.5459    1.8868   -0.8726 H         1 <0>         0.0623
     24 H7         -0.5289    1.8773    0.9072 H         1 <0>         0.0541
     25 H8          1.5503   -3.6445    2.4505 H         1 <0>         0.0675
     26 H9          2.4930   -2.1334    2.5262 H         1 <0>         0.0969
     27 H10         1.1782   -1.7550    4.4351 H         1 <0>         0.4068
     28 H11        -4.2696   -2.4800    6.0649 H         1 <0>         0.4135
     29 H12        -2.8124   -2.2268    6.8618 H         1 <0>         0.4266
     30 H13        -1.0240   -2.9219    0.4597 H         1 <0>         0.4095
     31 H14         2.5972   -0.2904    0.4599 H         1 <0>         0.3745
     32 H15        -1.8531   -0.2245    0.7836 H         1 <0>         0.3711
@<TRIPOS>BOND
     1    1    2 1
     2    1   22 1
     3    1   23 1
     4    1   24 1
     5    2    3 1
     6    2    4 1
     7    2   21 1
     8    4    5 1
     9    4    6 1
    10    4   20 1
    11    6    7 1
    12    6   19 1
    13    6    8 1
    14    8    9 1
    15    8   25 1
    16    8   26 1
    17    9   10 1
    18    9   27 1
    19   10   17 1
    20   10   11 2
    21   11   12 1
    22   11   19 1
    23   12   13 2
    24   12   14 am
    25   14   15 1
    26   14   16 1
    27   16   17 2
    28   16   18 1
    29   18   28 1
    30   18   29 1
    31   19   30 1
    32   20   31 1
    33   21   32 1
@<TRIPOS>MOLECULE
ZINC15987659
   31    30     0     0     0
SMALL
USER_CHARGES

@<TRIPOS>ATOM
      1 C1         -0.0397    1.4238    0.0121 C.3       1 <0>         0.0329
      2 O1         -0.0198   -0.0050    0.0041 O.3       1 <0>        -0.3540
      3 C2         -1.2072   -0.6310    0.0074 C.2       1 <0>         0.4643
      4 O2         -2.2296    0.0129    0.0168 O.2       1 <0>        -0.4909
      5 C3         -1.2652   -2.1369   -0.0006 C.3       1 <0>         0.1053
      6 H1         -0.4887   -2.5338    0.6534 H         1 <0>         0.1214
      7 C4         -1.0426   -2.6483   -1.4253 C.3       1 <0>        -0.1488
      8 C5         -0.9770   -4.1768   -1.4141 C.3       1 <0>        -0.1340
      9 C6         -0.7544   -4.6882   -2.8388 C.3       1 <0>         0.1004
     10 N1         -0.6917   -6.1519   -2.8280 N.pl3     1 <0>        -0.7247
     11 C7         -0.5002   -6.8271   -3.9798 C.2       1 <0>         0.7146
     12 N2         -0.4715   -6.1637   -5.1538 N.pl3     1 <0>        -0.7928
     13 N3         -0.3378   -8.1640   -3.9576 N.2       1 <0>        -0.5041
     14 N4         -0.4610   -8.8103   -2.8481 N.pl3     1 <0>         0.1952
     15 O3         -1.6150   -9.3599   -2.5307 O.2       1 <0>        -0.2362
     16 O4          0.5673   -8.9207   -2.0326 O.3       1 <0>        -0.2506
     17 N5         -2.5818   -2.5788    0.4782 N.3       1 <0>        -0.8300
     18 H2          0.9828    1.8014    0.0083 H         1 <0>         0.1050
     19 H3         -0.5636    1.7849   -0.8730 H         1 <0>         0.0612
     20 H4         -0.5535    1.7750    0.9070 H         1 <0>         0.0631
     21 H5         -1.8671   -2.3246   -2.0605 H         1 <0>         0.0783
     22 H6         -0.1061   -2.2473   -1.8131 H         1 <0>         0.0888
     23 H7         -0.1525   -4.5005   -0.7789 H         1 <0>         0.0880
     24 H8         -1.9135   -4.5778   -1.0262 H         1 <0>         0.0793
     25 H9         -1.5790   -4.3646   -3.4740 H         1 <0>         0.0826
     26 H10         0.1820   -4.2873   -3.2266 H         1 <0>         0.0869
     27 H11        -0.5884   -5.2009   -5.1697 H         1 <0>         0.4253
     28 H12        -0.3338   -6.6493   -5.9821 H         1 <0>         0.4361
     29 H13        -3.3191   -2.2235   -0.1119 H         1 <0>         0.3551
     30 H14        -2.6238   -3.5848    0.5434 H         1 <0>         0.3569
     31 H15        -0.7878   -6.6353   -1.9926 H         1 <0>         0.4254
@<TRIPOS>BOND
     1    1    2 1
     2    1   18 1
     3    1   19 1
     4    1   20 1
     5    2    3 1
     6    3    4 2
     7    3    5 1
     8    5    6 1
     9    5    7 1
    10    5   17 1
    11    7    8 1
    12    7   21 1
    13    7   22 1
    14    8    9 1
    15    8   23 1
    16    8   24 1
    17    9   10 1
    18    9   25 1
    19    9   26 1
    20   10   11 1
    21   10   31 1
    22   11   12 1
    23   11   13 2
    24   12   27 1
    25   12   28 1
    26   13   14 1
    27   14   15 2
    28   14   16 1
    29   17   29 1
    30   17   30 1
@<TRIPOS>MOLECULE
ZINC15987659
   31    30     0     0     0
SMALL
USER_CHARGES

@<TRIPOS>ATOM
      1 C1          0.4127    1.3688    0.0527 C.3       1 <0>         0.0299
      2 O1          0.3593   -0.0592    0.0390 O.3       1 <0>        -0.3520
      3 C2         -0.8586   -0.6235    0.0358 C.2       1 <0>         0.4233
      4 O2         -1.8466    0.0719    0.0443 O.2       1 <0>        -0.5072
      5 C3         -0.9936   -2.1243    0.0216 C.3       1 <0>         0.1037
      6 H1         -0.2409   -2.5631    0.6767 H         1 <0>         0.1224
      7 C4         -0.7923   -2.6411   -1.4044 C.3       1 <0>        -0.1045
      8 C5         -0.8053   -4.1710   -1.3990 C.3       1 <0>        -0.1229
      9 C6         -0.6040   -4.6877   -2.8250 C.3       1 <0>         0.1008
     10 N1         -0.6164   -6.1526   -2.8198 N.pl3     1 <0>        -0.6759
     11 C7         -0.4557   -6.8325   -3.9736 C.2       1 <0>         0.7149
     12 N2         -0.2835   -6.1636   -5.1322 N.pl3     1 <0>        -0.8416
     13 N3         -0.4671   -8.1792   -3.9689 N.2       1 <0>        -0.5055
     14 N4         -0.2193   -8.8302   -5.0547 N.pl3     1 <0>         0.1963
     15 O3          1.0093   -9.2224   -5.3216 O.2       1 <0>        -0.2403
     16 O4         -1.1950   -9.1025   -5.8964 O.3       1 <0>        -0.2493
     17 N5         -2.3328   -2.5000    0.4941 N.3       1 <0>        -0.8133
     18 H2          1.4532    1.6935    0.0539 H         1 <0>         0.1049
     19 H3         -0.0888    1.7596   -0.8327 H         1 <0>         0.0615
     20 H4         -0.0856    1.7425    0.9472 H         1 <0>         0.0613
     21 H5         -1.5969   -2.2731   -2.0411 H         1 <0>         0.0768
     22 H6          0.1648   -2.2871   -1.7874 H         1 <0>         0.0852
     23 H7         -0.0007   -4.5389   -0.7623 H         1 <0>         0.0829
     24 H8         -1.7624   -4.5249   -1.0160 H         1 <0>         0.0957
     25 H9         -1.4086   -4.3198   -3.4617 H         1 <0>         0.0814
     26 H10         0.3531   -4.3338   -3.2080 H         1 <0>         0.0826
     27 H11        -0.7402   -6.6337   -1.9867 H         1 <0>         0.4350
     28 H12        -0.3671   -5.1974   -5.1514 H         1 <0>         0.4194
     29 H13        -2.4668   -2.2265    1.4561 H         1 <0>         0.3531
     30 H14        -3.0488   -2.1052   -0.0971 H         1 <0>         0.3548
     31 H15        -0.0761   -6.6487   -5.9461 H         1 <0>         0.4264
@<TRIPOS>BOND
     1    1    2 1
     2    1   18 1
     3    1   19 1
     4    1   20 1
     5    2    3 1
     6    3    4 2
     7    3    5 1
     8    5    6 1
     9    5    7 1
    10    5   17 1
    11    7    8 1
    12    7   21 1
    13    7   22 1
    14    8    9 1
    15    8   23 1
    16    8   24 1
    17    9   10 1
    18    9   25 1
    19    9   26 1
    20   10   11 1
    21   10   27 1
    22   11   12 1
    23   11   13 2
    24   12   28 1
    25   12   31 1
    26   13   14 1
    27   14   15 2
    28   14   16 1
    29   17   29 1
    30   17   30 1
@<TRIPOS>MOLECULE
ZINC15987659
   30    29     0     0     0
SMALL
USER_CHARGES

@<TRIPOS>ATOM
      1 C1          0.0296    1.2356    0.5551 C.3       1 <0>         0.0308
      2 O1          0.0805   -0.1882    0.4438 O.3       1 <0>        -0.3510
      3 C2         -1.0882   -0.8460    0.5008 C.2       1 <0>         0.4279
      4 O2         -2.1201   -0.2333    0.6405 O.2       1 <0>        -0.5175
      5 C3         -1.1131   -2.3488    0.3904 C.3       1 <0>         0.1047
      6 H1         -0.2756   -2.7680    0.9480 H         1 <0>         0.1198
      7 C4         -1.0004   -2.7541   -1.0806 C.3       1 <0>        -0.1035
      8 C5         -0.9002   -4.2773   -1.1837 C.3       1 <0>        -0.0970
      9 C6         -0.7874   -4.6826   -2.6547 C.3       1 <0>         0.0713
     10 N1         -0.6915   -6.1411   -2.7534 N.2       1 <0>        -0.6543
     11 C7         -1.6245   -6.8157   -3.3644 C.2       1 <0>         0.5594
     12 N2         -2.6275   -6.1528   -4.0313 N.pl3     1 <0>        -0.8834
     13 N3         -1.6056   -8.1903   -3.3420 N.2       1 <0>        -0.5273
     14 N4         -0.5163   -8.8668   -2.7776 N.pl3     1 <0>         0.2272
     15 O3          0.3508   -8.2466   -2.2073 O.2       1 <0>        -0.2859
     16 O4         -0.4434  -10.0707   -2.8608 O.3       1 <0>        -0.3339
     17 N5         -2.3744   -2.8595    0.9438 N.3       1 <0>        -0.8063
     18 H2          1.0395    1.6411    0.4937 H         1 <0>         0.1010
     19 H3         -0.5751    1.6420   -0.2556 H         1 <0>         0.0586
     20 H4         -0.4144    1.5096    1.5122 H         1 <0>         0.0574
     21 H5         -1.8826   -2.4106   -1.6207 H         1 <0>         0.0622
     22 H6         -0.1092   -2.3011   -1.5150 H         1 <0>         0.0742
     23 H7         -0.0179   -4.6208   -0.6435 H         1 <0>         0.0671
     24 H8         -1.7914   -4.7303   -0.7493 H         1 <0>         0.0681
     25 H9         -1.6697   -4.3391   -3.1948 H         1 <0>         0.0096
     26 H10         0.1038   -4.2296   -3.0891 H         1 <0>         0.0443
     27 H11        -2.5662   -5.1949   -4.1710 H         1 <0>         0.3940
     28 H12        -2.4431   -2.6606    1.9306 H         1 <0>         0.3449
     29 H13        -3.1666   -2.4852    0.4435 H         1 <0>         0.3512
     30 H14        -3.3963   -6.6430   -4.3621 H         1 <0>         0.3864
@<TRIPOS>BOND
     1    1    2 1
     2    1   18 1
     3    1   19 1
     4    1   20 1
     5    2    3 1
     6    3    4 2
     7    3    5 1
     8    5    6 1
     9    5    7 1
    10    5   17 1
    11    7    8 1
    12    7   21 1
    13    7   22 1
    14    8    9 1
    15    8   23 1
    16    8   24 1
    17    9   10 1
    18    9   25 1
    19    9   26 1
    20   10   11 2
    21   11   12 1
    22   11   13 1
    23   12   27 1
    24   12   30 1
    25   13   14 1
    26   14   15 2
    27   14   16 1
    28   17   28 1
    29   17   29 1
@<TRIPOS>MOLECULE
ZINC15987659
   31    30     0     0     0
SMALL
USER_CHARGES

@<TRIPOS>ATOM
      1 C1         -0.0173    1.4248    0.0099 C.3       1 <0>         0.0300
      2 O1          0.0021   -0.0041    0.0020 O.3       1 <0>        -0.3275
      3 C2          0.5984   -0.5997   -1.0427 C.2       1 <0>         0.4553
      4 O2          1.0877    0.0699   -1.9214 O.2       1 <0>        -0.4913
      5 C3          0.6575   -2.1036   -1.1196 C.3       1 <0>         0.0433
      6 H1         -0.2893   -2.5224   -0.7788 H         1 <0>         0.1811
      7 C4          1.7916   -2.6155   -0.2294 C.3       1 <0>        -0.1430
      8 C5          1.7732   -4.1453   -0.2092 C.3       1 <0>        -0.1067
      9 C6          2.9073   -4.6573    0.6811 C.3       1 <0>         0.0576
     10 N1          2.8897   -6.1220    0.7004 N.2       1 <0>        -0.6272
     11 C7          3.8049   -6.7980    1.4248 C.2       1 <0>         0.5571
     12 N2          4.7363   -6.1254    2.1314 N.pl3     1 <0>        -0.8527
     13 N3          3.7887   -8.1446    1.4426 N.2       1 <0>        -0.4294
     14 N4          2.8979   -8.7879    0.7668 N.pl3     1 <0>         0.2680
     15 O3          2.0042   -8.1279    0.0595 O.2       1 <0>        -0.3849
     16 O4          2.8820  -10.1047    0.7842 O.3       1 <0>        -0.4199
     17 N5          0.9024   -2.5135   -2.5089 N.4       1 <0>        -0.6234
     18 H2          1.0053    1.8021    0.0021 H         1 <0>         0.0727
     19 H3         -0.5445    1.7859   -0.8732 H         1 <0>         0.0716
     20 H4         -0.5275    1.7763    0.9067 H         1 <0>         0.1189
     21 H5          2.7472   -2.2688   -0.6228 H         1 <0>         0.0945
     22 H6          1.6572   -2.2372    0.7840 H         1 <0>         0.1207
     23 H7          0.8177   -4.4920    0.1843 H         1 <0>         0.0860
     24 H8          1.9077   -4.5237   -1.2225 H         1 <0>         0.0635
     25 H9          3.8629   -4.3106    0.2877 H         1 <0>         0.0265
     26 H10         2.7728   -4.2789    1.6944 H         1 <0>         0.0312
     27 H11         4.7480   -5.1555    2.1186 H         1 <0>         0.3987
     28 H12         5.3945   -6.6115    2.6523 H         1 <0>         0.3977
     29 H13         0.9421   -3.5204   -2.5604 H         1 <0>         0.4527
     30 H14         0.1545   -2.1759   -3.0960 H         1 <0>         0.4381
     31 H15         1.7789   -2.1258   -2.8244 H         1 <0>         0.4407
@<TRIPOS>BOND
     1    1    2 1
     2    1   18 1
     3    1   19 1
     4    1   20 1
     5    2    3 1
     6    3    4 2
     7    3    5 1
     8    5    6 1
     9    5    7 1
    10    5   17 1
    11    7    8 1
    12    7   21 1
    13    7   22 1
    14    8    9 1
    15    8   23 1
    16    8   24 1
    17    9   10 1
    18    9   25 1
    19    9   26 1
    20   10   11 1
    21   11   12 1
    22   11   13 2
    23   12   27 1
    24   12   28 1
    25   13   14 1
    26   14   15 2
    27   14   16 1
    28   17   29 1
    29   17   30 1
    30   17   31 1
@<TRIPOS>MOLECULE
ZINC15987659
   30    29     0     0     0
SMALL
USER_CHARGES

@<TRIPOS>ATOM
      1 C1         -0.0173    1.4248    0.0099 C.3       1 <0>         0.0339
      2 O1          0.0021   -0.0041    0.0020 O.3       1 <0>        -0.3540
      3 C2          0.6181   -0.6108    1.0287 C.2       1 <0>         0.4686
      4 O2          1.1242    0.0494    1.9050 O.2       1 <0>        -0.5003
      5 C3          0.6786   -2.1154    1.0883 C.3       1 <0>         0.1046
      6 H1          0.8631   -2.5115    0.0898 H         1 <0>         0.1183
      7 C4         -0.6512   -2.6588    1.6149 C.3       1 <0>        -0.1483
      8 C5         -0.6356   -4.1877    1.5583 C.3       1 <0>        -0.0932
      9 C6         -1.9654   -4.7311    2.0849 C.3       1 <0>         0.0601
     10 N1         -1.9505   -6.1950    2.0307 N.2       1 <0>        -0.6078
     11 C7         -3.0247   -6.8963    2.4474 C.2       1 <0>         0.5400
     12 N2         -4.1125   -6.2497    2.9141 N.pl3     1 <0>        -0.8558
     13 N3         -3.0110   -8.2421    2.3976 N.2       1 <0>        -0.4295
     14 N4         -1.9706   -8.8604    1.9513 N.pl3     1 <0>         0.2681
     15 O3         -0.9217   -8.1757    1.5444 O.2       1 <0>        -0.3826
     16 O4         -1.9572  -10.1765    1.9026 O.3       1 <0>        -0.4375
     17 N5          1.7658   -2.5265    1.9867 N.3       1 <0>        -0.8316
     18 H2          1.0053    1.8021    0.0021 H         1 <0>         0.0594
     19 H3         -0.5445    1.7859   -0.8732 H         1 <0>         0.1009
     20 H4         -0.5275    1.7763    0.9067 H         1 <0>         0.0585
     21 H5         -0.7933   -2.3348    2.6459 H         1 <0>         0.0655
     22 H6         -1.4674   -2.2807    0.9994 H         1 <0>         0.0750
     23 H7         -0.4934   -4.5117    0.5273 H         1 <0>         0.0703
     24 H8          0.1807   -4.5658    2.1738 H         1 <0>         0.0645
     25 H9         -2.1076   -4.4071    3.1159 H         1 <0>         0.0238
     26 H10        -2.7817   -4.3530    1.4694 H         1 <0>         0.0259
     27 H11        -4.1224   -5.2804    2.9500 H         1 <0>         0.3988
     28 H12        -4.8850   -6.7540    3.2138 H         1 <0>         0.3924
     29 H13         1.6178   -2.1715    2.9195 H         1 <0>         0.3497
     30 H14         1.8688   -3.5302    1.9940 H         1 <0>         0.3624
@<TRIPOS>BOND
     1    1    2 1
     2    1   18 1
     3    1   19 1
     4    1   20 1
     5    2    3 1
     6    3    4 2
     7    3    5 1
     8    5    6 1
     9    5    7 1
    10    5   17 1
    11    7    8 1
    12    7   21 1
    13    7   22 1
    14    8    9 1
    15    8   23 1
    16    8   24 1
    17    9   10 1
    18    9   25 1
    19    9   26 1
    20   10   11 1
    21   11   12 1
    22   11   13 2
    23   12   27 1
    24   12   28 1
    25   13   14 1
    26   14   15 2
    27   14   16 1
    28   17   29 1
    29   17   30 1
@<TRIPOS>MOLECULE
ZINC15987659
   32    31     0     0     0
SMALL
USER_CHARGES

@<TRIPOS>ATOM
      1 C1         -0.0397    1.4238    0.0121 C.3       1 <0>         0.0286
      2 O1         -0.0198   -0.0050    0.0041 O.3       1 <0>        -0.3268
      3 C2         -1.2072   -0.6310    0.0074 C.2       1 <0>         0.4508
      4 O2         -2.2296    0.0129    0.0168 O.2       1 <0>        -0.4815
      5 C3         -1.2652   -2.1369   -0.0006 C.3       1 <0>         0.0421
      6 H1         -0.4887   -2.5338    0.6534 H         1 <0>         0.1844
      7 C4         -1.0426   -2.6483   -1.4253 C.3       1 <0>        -0.1405
      8 C5         -0.9770   -4.1768   -1.4141 C.3       1 <0>        -0.1486
      9 C6         -0.7544   -4.6882   -2.8388 C.3       1 <0>         0.1004
     10 N1         -0.6917   -6.1519   -2.8280 N.pl3     1 <0>        -0.7324
     11 C7         -0.5002   -6.8271   -3.9798 C.2       1 <0>         0.7150
     12 N2         -0.4715   -6.1637   -5.1538 N.pl3     1 <0>        -0.7908
     13 N3         -0.3378   -8.1640   -3.9576 N.2       1 <0>        -0.4921
     14 N4         -0.4610   -8.8103   -2.8481 N.pl3     1 <0>         0.1913
     15 O3         -1.6150   -9.3599   -2.5307 O.2       1 <0>        -0.2316
     16 O4          0.5673   -8.9207   -2.0326 O.3       1 <0>        -0.2466
     17 N5         -2.5818   -2.5788    0.4782 N.4       1 <0>        -0.6259
     18 H2          0.9828    1.8014    0.0083 H         1 <0>         0.1230
     19 H3         -0.5636    1.7849   -0.8730 H         1 <0>         0.0755
     20 H4         -0.5535    1.7750    0.9070 H         1 <0>         0.0753
     21 H5         -1.8671   -2.3246   -2.0605 H         1 <0>         0.1073
     22 H6         -0.1061   -2.2473   -1.8131 H         1 <0>         0.1335
     23 H7         -0.1525   -4.5005   -0.7789 H         1 <0>         0.1037
     24 H8         -1.9135   -4.5778   -1.0262 H         1 <0>         0.0781
     25 H9         -1.5790   -4.3646   -3.4740 H         1 <0>         0.0877
     26 H10         0.1820   -4.2873   -3.2266 H         1 <0>         0.0937
     27 H11        -0.5884   -5.2009   -5.1697 H         1 <0>         0.4243
     28 H12        -0.3338   -6.6493   -5.9821 H         1 <0>         0.4401
     29 H13        -2.6206   -3.5870    0.4729 H         1 <0>         0.4467
     30 H14        -2.7286   -2.2415    1.4178 H         1 <0>         0.4459
     31 H15        -0.7878   -6.6353   -1.9926 H         1 <0>         0.4253
     32 H16        -3.3005   -2.2113   -0.1272 H         1 <0>         0.4441
@<TRIPOS>BOND
     1    1    2 1
     2    1   18 1
     3    1   19 1
     4    1   20 1
     5    2    3 1
     6    3    4 2
     7    3    5 1
     8    5    6 1
     9    5    7 1
    10    5   17 1
    11    7    8 1
    12    7   21 1
    13    7   22 1
    14    8    9 1
    15    8   23 1
    16    8   24 1
    17    9   10 1
    18    9   25 1
    19    9   26 1
    20   10   11 1
    21   10   31 1
    22   11   12 1
    23   11   13 2
    24   12   27 1
    25   12   28 1
    26   13   14 1
    27   14   15 2
    28   14   16 1
    29   17   29 1
    30   17   30 1
    31   17   32 1
@<TRIPOS>MOLECULE
ZINC15987659
   32    31     0     0     0
SMALL
USER_CHARGES

@<TRIPOS>ATOM
      1 C1         -0.1937    1.3629   -0.3837 C.3       1 <0>         0.0286
      2 O1         -0.1430   -0.0640   -0.3257 O.3       1 <0>        -0.3269
      3 C2          0.4770   -0.6092    0.7327 C.2       1 <0>         0.4501
      4 O2          0.9606    0.1015    1.5817 O.2       1 <0>        -0.4812
      5 C3          0.5698   -2.1078    0.8619 C.3       1 <0>         0.0428
      6 H1          0.7718   -2.5450   -0.1159 H         1 <0>         0.1844
      7 C4         -0.7524   -2.6560    1.4024 C.3       1 <0>        -0.1423
      8 C5         -0.7029   -4.1851    1.4162 C.3       1 <0>        -0.1460
      9 C6         -2.0251   -4.7333    1.9567 C.3       1 <0>         0.1041
     10 N1         -1.9777   -6.1975    1.9700 N.pl3     1 <0>        -0.6865
     11 C7         -3.0400   -6.9026    2.4100 C.2       1 <0>         0.7133
     12 N2         -4.1459   -6.2598    2.8377 N.pl3     1 <0>        -0.8397
     13 N3         -2.9964   -8.2487    2.4222 N.2       1 <0>        -0.4972
     14 N4         -4.0440   -8.9250    2.7528 N.pl3     1 <0>         0.1864
     15 O3         -4.8792   -9.3415    1.8236 O.2       1 <0>        -0.2262
     16 O4         -4.2783   -9.1988    4.0195 O.3       1 <0>        -0.2369
     17 N5          1.6576   -2.4530    1.7868 N.4       1 <0>        -0.6260
     18 H2          0.8204    1.7622   -0.4007 H         1 <0>         0.0753
     19 H3         -0.7208    1.6714   -1.2866 H         1 <0>         0.1232
     20 H4         -0.7195    1.7437    0.4919 H         1 <0>         0.0757
     21 H5         -0.9109   -2.2883    2.4162 H         1 <0>         0.1076
     22 H6         -1.5712   -2.3247    0.7637 H         1 <0>         0.1336
     23 H7         -0.5445   -4.5527    0.4024 H         1 <0>         0.1046
     24 H8          0.1159   -4.5163    2.0549 H         1 <0>         0.0797
     25 H9         -2.1836   -4.3657    2.9705 H         1 <0>         0.0873
     26 H10        -2.8440   -4.4020    1.3180 H         1 <0>         0.0927
     27 H11        -1.1824   -6.6598    1.6623 H         1 <0>         0.4344
     28 H12        -4.1450   -5.2930    2.9163 H         1 <0>         0.4179
     29 H13         2.5296   -2.0915    1.4304 H         1 <0>         0.4458
     30 H14         1.4706   -2.0483    2.6920 H         1 <0>         0.4444
     31 H15        -4.9421   -6.7643    3.0668 H         1 <0>         0.4308
     32 H16         1.7198   -3.4564    1.8734 H         1 <0>         0.4464
@<TRIPOS>BOND
     1    1    2 1
     2    1   18 1
     3    1   19 1
     4    1   20 1
     5    2    3 1
     6    3    4 2
     7    3    5 1
     8    5    6 1
     9    5    7 1
    10    5   17 1
    11    7    8 1
    12    7   21 1
    13    7   22 1
    14    8    9 1
    15    8   23 1
    16    8   24 1
    17    9   10 1
    18    9   25 1
    19    9   26 1
    20   10   11 1
    21   10   27 1
    22   11   12 1
    23   11   13 2
    24   12   28 1
    25   12   31 1
    26   13   14 1
    27   14   15 2
    28   14   16 1
    29   17   29 1
    30   17   30 1
    31   17   32 1
@<TRIPOS>MOLECULE
ZINC13746441
   16    16     0     0     0
SMALL
USER_CHARGES
5,6-dihydro-4H-1,3-oxazin-2-amine
@<TRIPOS>ATOM
      1 C1         -0.0187    1.5279    0.0104 C.3       1 <0>        -0.1928
      2 C2          0.0021   -0.0041    0.0020 C.3       1 <0>         0.0823
      3 N1          0.9578   -0.4903    0.9939 N.pl3     1 <0>        -0.6660
      4 C3          1.8882    0.2438    1.5002 C.cat     1 <0>         0.6891
      5 O1          2.0768    1.5375    1.1815 O.3       1 <0>        -0.2928
      6 C4          1.4341    2.0251   -0.0008 C.3       1 <0>         0.0479
      7 N2          2.7362   -0.3272    2.4173 N.pl3     1 <0>        -0.8143
      8 H1         -0.5249    1.8950    0.9154 H         1 <0>         0.1024
      9 H2         -0.5421    1.9046   -0.8808 H         1 <0>         0.1328
     10 H3         -1.0006   -0.3857    0.2448 H         1 <0>         0.1259
     11 H4          0.2988   -0.3613   -0.9952 H         1 <0>         0.1116
     12 H5          1.9455    1.6430   -0.8966 H         1 <0>         0.1027
     13 H6          1.4452    3.1250   -0.0134 H         1 <0>         0.1514
     14 H7          3.5413    0.2710    2.8690 H         1 <0>         0.4759
     15 H8          2.6103   -1.3827    2.7001 H         1 <0>         0.4704
     16 H9          0.8544   -1.5400    1.3059 H         1 <0>         0.4733
@<TRIPOS>BOND
     1    1    6 1
     2    1    2 1
     3    1    8 1
     4    1    9 1
     5    2    3 1
     6    2   10 1
     7    2   11 1
     8    3    4 2
     9    3   16 1
    10    4    5 1
    11    4    7 1
    12    5    6 1
    13    6   12 1
    14    6   13 1
    15    7   14 1
    16    7   15 1
@<TRIPOS>MOLECULE
ZINC12946088
   15    15     0     0     0
SMALL
USER_CHARGES
4,5-dihydro-3H-pyrrol-2-amine
@<TRIPOS>ATOM
      1 C1          1.4691    1.8877   -0.0018 C.3       1 <0>        -0.1359
      2 C2          2.1272    0.6397   -0.6385 C.3       1 <0>        -0.1263
      3 C3          1.1481   -0.4755   -0.3460 C.cat     1 <0>         0.5185
      4 C4         -0.0178    1.4631    0.0101 C.3       1 <0>         0.0726
      5 N1          1.4422   -1.8104   -0.4388 N.pl3     1 <0>        -0.7800
      6 H1          1.6204    2.7710   -0.6223 H         1 <0>         0.1241
      7 H2          1.8384    2.0530    1.0103 H         1 <0>         0.1061
      8 H3          3.0907    0.4351   -0.1718 H         1 <0>         0.1359
      9 H4          2.2430    0.7749   -1.7139 H         1 <0>         0.1425
     10 H5         -0.5258    1.8394   -0.8779 H         1 <0>         0.1170
     11 H6         -0.5087    1.8298    0.9116 H         1 <0>         0.1210
     12 H7          0.7626   -2.4720   -0.2355 H         1 <0>         0.4290
     13 H8          2.3300   -2.0939   -0.7078 H         1 <0>         0.4453
     14 N2         -0.0123   -0.0152    0.0063 N.pl3     1 <0>        -0.6245
     15 H9         -0.8200   -0.6002    0.2503 H         1 <0>         0.4548
@<TRIPOS>BOND
     1    1    4 1
     2    1    2 1
     3    1    6 1
     4    1    7 1
     5    2    3 1
     6    2    8 1
     7    2    9 1
     8    3    5 1
     9    3   14 2
    10    4   10 1
    11    4   11 1
    12    4   14 1
    13    5   12 1
    14    5   13 1
    15   14   15 1
@<TRIPOS>MOLECULE
ZINC59097866
   42    46     0     0     0
SMALL
USER_CHARGES

@<TRIPOS>ATOM
      1 C1         -5.0625   -1.6213   -0.4628 C.ar      1 <0>        -0.0323
      2 C2         -6.2027   -2.3409   -0.6794 C.ar      1 <0>        -0.1518
      3 C3         -7.1842   -1.8682   -1.5433 C.ar      1 <0>         0.1312
      4 C4         -7.0235   -0.6613   -2.1985 C.ar      1 <0>         0.0165
      5 C5         -5.8688    0.0871   -1.9913 C.ar      1 <0>         0.1868
      6 C6         -4.8786   -0.3972   -1.1152 C.ar      1 <0>        -0.1125
      7 C7         -3.6682    0.3979   -0.9045 C.2       1 <0>        -0.0178
      8 C8         -3.5441    1.5769   -1.5637 C.2       1 <0>        -0.1745
      9 C9         -4.5658    2.0179   -2.4306 C.2       1 <0>         0.5399
     10 O1         -4.4335    3.0806   -3.0129 O.2       1 <0>        -0.5166
     11 N1         -5.6817    1.2951   -2.6312 N.am      1 <0>        -0.6242
     12 H1         -6.3646    1.6275   -3.2345 H         1 <0>         0.4235
     13 C10        -2.5835   -0.0825    0.0248 C.3       1 <0>         0.1438
     14 N2         -2.8878    0.3447    1.3927 N.pl3     1 <0>        -0.4729
     15 C11        -3.5253   -0.4033    2.3584 C.ar      1 <0>         0.1893
     16 C12        -3.5933    0.4173    3.5024 C.ar      1 <0>         0.2170
     17 N3         -4.1665   -0.0477    4.6095 N.ar      1 <0>        -0.3967
     18 C13        -4.6645   -1.2692    4.6259 C.ar      1 <0>         0.0689
     19 C14        -4.5955   -2.0729    3.4984 C.ar      1 <0>         0.0810
     20 N4         -4.0298   -1.6258    2.3915 N.ar      1 <0>        -0.4347
     21 N5         -3.0058    1.5954    3.1777 N.2       1 <0>        -0.4664
     22 C15        -2.5880    1.5505    1.9454 C.2       1 <0>         0.3450
     23 C16        -1.8791    2.6737    1.2334 C.3       1 <0>        -0.0543
     24 C17        -0.8154    3.3748    2.0946 C.3       1 <0>        -0.1187
     25 C18        -1.3034    4.6976    1.4807 C.3       1 <0>        -0.1398
     26 C19        -2.6551    4.0012    1.2509 C.3       1 <0>        -0.1216
     27 F1         -7.9829   -0.2110   -3.0363 F         1 <0>        -0.1188
     28 F2         -8.3050   -2.5951   -1.7448 F         1 <0>        -0.1142
     29 H2         -4.3071   -1.9936    0.2134 H         1 <0>         0.1660
     30 H3         -6.3431   -3.2858   -0.1754 H         1 <0>         0.1578
     31 H4         -2.6596    2.1807   -1.4239 H         1 <0>         0.1636
     32 H5         -2.5288   -1.1705   -0.0123 H         1 <0>         0.1215
     33 H6         -1.6273    0.3401   -0.2836 H         1 <0>         0.1219
     34 H7         -5.1293   -1.6463    5.5248 H         1 <0>         0.1824
     35 H8         -5.0070   -3.0710    3.5250 H         1 <0>         0.1842
     36 H9         -1.5230    2.3891    0.2433 H         1 <0>         0.1132
     37 H10        -0.9999    3.2964    3.1660 H         1 <0>         0.0997
     38 H11         0.2077    3.1174    1.8204 H         1 <0>         0.0765
     39 H12        -1.3515    5.5192    2.1954 H         1 <0>         0.0787
     40 H13        -0.7887    4.9671    0.5584 H         1 <0>         0.0866
     41 H14        -3.1173    4.2494    0.2954 H         1 <0>         0.0772
     42 H15        -3.3426    4.0940    2.0916 H         1 <0>         0.0955
@<TRIPOS>BOND
     1    1    6 ar
     2    1    2 ar
     3    1   29 1
     4    2    3 ar
     5    2   30 1
     6    3    4 ar
     7    3   28 1
     8    4    5 ar
     9    4   27 1
    10    5   11 1
    11    5    6 ar
    12    6    7 1
    13    7    8 2
    14    7   13 1
    15    8    9 1
    16    8   31 1
    17    9   10 2
    18    9   11 am
    19   11   12 1
    20   13   14 1
    21   13   32 1
    22   13   33 1
    23   14   22 1
    24   14   15 1
    25   15   20 ar
    26   15   16 ar
    27   16   17 ar
    28   16   21 1
    29   17   18 ar
    30   18   19 ar
    31   18   34 1
    32   19   20 ar
    33   19   35 1
    34   21   22 2
    35   22   23 1
    36   23   26 1
    37   23   24 1
    38   23   36 1
    39   24   25 1
    40   24   37 1
    41   24   38 1
    42   25   26 1
    43   25   39 1
    44   25   40 1
    45   26   41 1
    46   26   42 1
@<TRIPOS>MOLECULE
ZINC13781168
   18    18     0     0     0
SMALL
USER_CHARGES

@<TRIPOS>ATOM
      1 C1         -0.0187    1.5258    0.0104 C.3       1 <0>        -0.1743
      2 C2          0.0021   -0.0041    0.0020 C.3       1 <0>         0.1012
      3 H1          0.5208   -0.3699   -0.8841 H         1 <0>         0.1307
      4 C3         -1.4400   -0.5606    0.0478 C.3       1 <0>        -0.1328
      5 C4         -1.6196   -0.7902    1.5679 C.3       1 <0>        -0.1275
      6 C5         -0.2048   -0.9409    2.0815 C.cat     1 <0>         0.5203
      7 N1          0.6500   -0.5113    1.2170 N.pl3     1 <0>        -0.6086
      8 N2          0.1253   -1.4651    3.3034 N.pl3     1 <0>        -0.7788
      9 H2          1.0039    1.9031    0.0027 H         1 <0>         0.0763
     10 H3         -0.5459    1.8868   -0.8726 H         1 <0>         0.0992
     11 H4         -0.5289    1.8773    0.9072 H         1 <0>         0.0706
     12 H5         -2.1556    0.1718   -0.3260 H         1 <0>         0.1245
     13 H6         -1.5167   -1.4982   -0.5028 H         1 <0>         0.1079
     14 H7         -2.1048    0.0695    2.0300 H         1 <0>         0.1421
     15 H8         -2.1924   -1.6990    1.7525 H         1 <0>         0.1366
     16 H9         -0.5720   -1.7699    3.9048 H         1 <0>         0.4460
     17 H10         1.0564   -1.5313    3.5672 H         1 <0>         0.4293
     18 H11         1.6104   -0.5218    1.3528 H         1 <0>         0.4372
@<TRIPOS>BOND
     1    1    2 1
     2    1    9 1
     3    1   10 1
     4    1   11 1
     5    2    3 1
     6    2    7 1
     7    2    4 1
     8    4    5 1
     9    4   12 1
    10    4   13 1
    11    5    6 1
    12    5   14 1
    13    5   15 1
    14    6    7 2
    15    6    8 1
    16    7   18 1
    17    8   16 1
    18    8   17 1
@<TRIPOS>MOLECULE
ZINC13781169
   18    18     0     0     0
SMALL
USER_CHARGES

@<TRIPOS>ATOM
      1 C1         -0.0187    1.5258    0.0104 C.3       1 <0>        -0.1729
      2 C2          0.0021   -0.0041    0.0020 C.3       1 <0>         0.1014
      3 H1         -1.0150   -0.3957    0.0221 H         1 <0>         0.1264
      4 C3          0.7527   -0.5238   -1.2462 C.3       1 <0>        -0.1329
      5 C4          1.4774   -1.7601   -0.6612 C.3       1 <0>        -0.1274
      6 C5          1.5708   -1.4592    0.8182 C.cat     1 <0>         0.5196
      7 N1          0.7651   -0.5093    1.1491 N.pl3     1 <0>        -0.6087
      8 N2          2.4004   -2.1116    1.6918 N.pl3     1 <0>        -0.7793
      9 H2          1.0039    1.9031    0.0027 H         1 <0>         0.0743
     10 H3         -0.5459    1.8868   -0.8726 H         1 <0>         0.1001
     11 H4         -0.5289    1.8773    0.9072 H         1 <0>         0.0765
     12 H5          0.0548   -0.8130   -2.0319 H         1 <0>         0.1245
     13 H6          1.4672    0.2144   -1.6103 H         1 <0>         0.1077
     14 H7          0.8914   -2.6632   -0.8317 H         1 <0>         0.1430
     15 H8          2.4724   -1.8609   -1.0947 H         1 <0>         0.1361
     16 H9          2.9808   -2.8201    1.3721 H         1 <0>         0.4460
     17 H10         2.4075   -1.8649    2.6298 H         1 <0>         0.4292
     18 H11         0.6738   -0.1664    2.0518 H         1 <0>         0.4365
@<TRIPOS>BOND
     1    1    2 1
     2    1    9 1
     3    1   10 1
     4    1   11 1
     5    2    3 1
     6    2    7 1
     7    2    4 1
     8    4    5 1
     9    4   12 1
    10    4   13 1
    11    5    6 1
    12    5   14 1
    13    5   15 1
    14    6    7 2
    15    6    8 1
    16    7   18 1
    17    8   16 1
    18    8   17 1
@<TRIPOS>MOLECULE
ZINC01529776
   30    29     0     0     0
SMALL
USER_CHARGES

@<TRIPOS>ATOM
      1 C1         -0.0178    1.4608    0.0101 C.3       1 <0>         0.0551
      2 N1          0.0021   -0.0041    0.0020 N.pl3     1 <0>        -0.6967
      3 C2          0.5968   -0.6778   -1.0385 C.cat     1 <0>         0.7320
      4 N2          1.1429   -0.0132   -2.0177 N.pl3     1 <0>        -0.7705
      5 N3          0.6154   -2.0524   -1.0460 N.pl3     1 <0>        -0.7005
      6 C3          1.2492   -2.7703   -2.1547 C.3       1 <0>         0.0939
      7 C4          1.1321   -4.2776   -1.9196 C.3       1 <0>        -0.1464
      8 C5          1.7939   -5.0273   -3.0775 C.3       1 <0>        -0.1250
      9 C6          1.6769   -6.5346   -2.8423 C.3       1 <0>        -0.0511
     10 H1          0.6297   -6.7992   -2.6953 H         1 <0>         0.1370
     11 C7          2.2183   -7.2733   -4.0391 C.2       1 <0>         0.4860
     12 O1          3.2648   -7.8927   -3.9510 O.co2     1 <0>        -0.6645
     13 O2          1.6099   -7.2515   -5.0955 O.co2     1 <0>        -0.6296
     14 N4          2.4479   -6.9052   -1.6482 N.4       1 <0>        -0.6147
     15 H2          1.0048    1.8381    0.0023 H         1 <0>         0.0856
     16 H3         -0.5450    1.8219   -0.8730 H         1 <0>         0.0860
     17 H4         -0.5280    1.8123    0.9069 H         1 <0>         0.1178
     18 H5         -0.4044   -0.4986    0.7308 H         1 <0>         0.4371
     19 H6          1.5625   -0.4885   -2.7518 H         1 <0>         0.4413
     20 H7          0.2090   -2.5470   -0.3173 H         1 <0>         0.4341
     21 H8          0.7517   -2.5086   -3.0886 H         1 <0>         0.0993
     22 H9          2.3015   -2.4924   -2.2133 H         1 <0>         0.0954
     23 H10         1.6295   -4.5394   -0.9857 H         1 <0>         0.0726
     24 H11         0.0798   -4.5556   -1.8610 H         1 <0>         0.0947
     25 H12         1.2965   -4.7656   -4.0114 H         1 <0>         0.1189
     26 H13         2.8463   -4.7494   -3.1361 H         1 <0>         0.0903
     27 H14         2.0854   -6.4107   -0.8469 H         1 <0>         0.4084
     28 H15         2.3707   -7.8993   -1.4931 H         1 <0>         0.4382
     29 H16         1.1298    0.9567   -2.0124 H         1 <0>         0.4423
     30 H17         3.4172   -6.6604   -1.7843 H         1 <0>         0.4331
@<TRIPOS>BOND
     1    1    2 1
     2    1   15 1
     3    1   16 1
     4    1   17 1
     5    2    3 1
     6    2   18 1
     7    3    4 2
     8    3    5 1
     9    4   19 1
    10    4   29 1
    11    5    6 1
    12    5   20 1
    13    6    7 1
    14    6   21 1
    15    6   22 1
    16    7    8 1
    17    7   23 1
    18    7   24 1
    19    8    9 1
    20    8   25 1
    21    8   26 1
    22    9   10 1
    23    9   11 1
    24    9   14 1
    25   11   12 2
    26   11   13 1
    27   14   27 1
    28   14   28 1
    29   14   30 1
@<TRIPOS>MOLECULE
ZINC28371962
   24    24     0     0     0
SMALL
USER_CHARGES
(3R,4S)-4-ethyl-3-methyl-4,5-dihydro-3H-pyrrol-2-amine
@<TRIPOS>ATOM
      1 C1          4.4447    1.8992   -0.2034 C.3       1 <0>        -0.1646
      2 C2          3.5906    0.7454    0.3259 C.3       1 <0>        -0.1253
      3 C3          2.2641    0.7019   -0.4352 C.3       1 <0>        -0.1045
      4 H1          2.5572    0.7208   -1.4953 H         1 <0>         0.1195
      5 C4          1.3343    1.8587   -0.0007 C.3       1 <0>         0.0834
      6 N1         -0.0154    1.2829    0.0091 N.pl3     1 <0>        -0.6246
      7 C5          0.0021   -0.0041    0.0020 C.cat     1 <0>         0.5152
      8 C6          1.4212   -0.5272   -0.0170 C.3       1 <0>        -0.0903
      9 H2          1.5328   -1.3888   -0.6917 H         1 <0>         0.1363
     10 C7          1.8333   -1.0126    1.3742 C.3       1 <0>        -0.1580
     11 N2         -1.1164   -0.7952    0.0110 N.pl3     1 <0>        -0.8100
     12 H3          5.3984    1.9304    0.3438 H         1 <0>         0.0692
     13 H4          3.9081    2.8486   -0.0595 H         1 <0>         0.0576
     14 H5          4.6416    1.7480   -1.2750 H         1 <0>         0.0625
     15 H6          4.1272   -0.2040    0.1820 H         1 <0>         0.0850
     16 H7          3.3937    0.8965    1.3975 H         1 <0>         0.0749
     17 H8          1.6308    2.2121    0.9979 H         1 <0>         0.1159
     18 H9          1.4163    2.6856   -0.7215 H         1 <0>         0.1209
     19 H10         1.2243   -1.8850    1.6534 H         1 <0>         0.0750
     20 H11         1.6756   -0.2062    2.1055 H         1 <0>         0.0686
     21 H12         2.8962   -1.2956    1.3638 H         1 <0>         0.0985
     22 H13        -1.0154   -1.8905    0.0039 H         1 <0>         0.4742
     23 H14        -2.1154   -0.3350    0.0253 H         1 <0>         0.4550
     24 H15        -0.9754    1.8198    0.0212 H         1 <0>         0.4658
@<TRIPOS>BOND
     1    1    2 1
     2    1   12 1
     3    1   13 1
     4    1   14 1
     5    2    3 1
     6    2   15 1
     7    2   16 1
     8    3    4 1
     9    3    8 1
    10    3    5 1
    11    5    6 1
    12    5   17 1
    13    5   18 1
    14    6    7 2
    15    6   24 1
    16    7    8 1
    17    7   11 1
    18    8    9 1
    19    8   10 1
    20   10   19 1
    21   10   20 1
    22   10   21 1
    23   11   22 1
    24   11   23 1
@<TRIPOS>MOLECULE
ZINC28371968
   24    24     0     0     0
SMALL
USER_CHARGES
(3R,4R)-4-ethyl-3-methyl-4,5-dihydro-3H-pyrrol-2-amine
@<TRIPOS>ATOM
      1 C1          0.6564   -1.3877    3.5686 C.3       1 <0>        -0.1640
      2 C2         -0.1588   -0.9796    2.3399 C.3       1 <0>        -0.1240
      3 C3          0.7891   -0.5434    1.2209 C.3       1 <0>        -0.1042
      4 H1          1.4567    0.1883    1.6993 H         1 <0>         0.1204
      5 C4          1.5080   -1.7600    0.5927 C.3       1 <0>         0.0831
      6 N1          1.5847   -1.4615   -0.8419 N.pl3     1 <0>        -0.6260
      7 C5          0.7776   -0.5180   -1.1907 C.cat     1 <0>         0.5148
      8 C6          0.0021   -0.0041    0.0020 C.3       1 <0>        -0.0915
      9 H2         -1.0486   -0.3290   -0.0216 H         1 <0>         0.1443
     10 C7         -0.0187    1.5258    0.0104 C.3       1 <0>        -0.1601
     11 N2          0.6410   -0.0425   -2.4683 N.pl3     1 <0>        -0.8088
     12 H3         -0.0251   -1.7013    4.3731 H         1 <0>         0.0694
     13 H4          1.2579   -0.5324    3.9101 H         1 <0>         0.0627
     14 H5          1.3224   -2.2228    3.3059 H         1 <0>         0.0580
     15 H6         -0.7603   -1.8349    1.9984 H         1 <0>         0.0726
     16 H7         -0.8249   -0.1445    2.6026 H         1 <0>         0.0838
     17 H8          2.5082   -1.8651    1.0382 H         1 <0>         0.1204
     18 H9          0.9231   -2.6714    0.7857 H         1 <0>         0.1167
     19 H10        -0.5815    1.8896   -0.8619 H         1 <0>         0.0735
     20 H11         1.0123    1.9067   -0.0335 H         1 <0>         0.0712
     21 H12        -0.5018    1.8809    0.9326 H         1 <0>         0.0939
     22 H13        -0.0729    0.7670   -2.6805 H         1 <0>         0.4732
     23 H14         1.2452   -0.4703   -3.2819 H         1 <0>         0.4553
     24 H15         2.2281   -1.9411   -1.5943 H         1 <0>         0.4653
@<TRIPOS>BOND
     1    1    2 1
     2    1   12 1
     3    1   13 1
     4    1   14 1
     5    2    3 1
     6    2   15 1
     7    2   16 1
     8    3    4 1
     9    3    8 1
    10    3    5 1
    11    5    6 1
    12    5   17 1
    13    5   18 1
    14    6    7 2
    15    6   24 1
    16    7    8 1
    17    7   11 1
    18    8    9 1
    19    8   10 1
    20   10   19 1
    21   10   20 1
    22   10   21 1
    23   11   22 1
    24   11   23 1
@<TRIPOS>MOLECULE
ZINC28371976
   24    24     0     0     0
SMALL
USER_CHARGES
(3S,4S)-4-ethyl-3-methyl-4,5-dihydro-3H-pyrrol-2-amine
@<TRIPOS>ATOM
      1 C1         -0.9838    3.8286   -2.9609 C.3       1 <0>        -0.1632
      2 C2         -0.2450    3.3933   -1.6937 C.3       1 <0>        -0.1304
      3 C3         -0.8206    2.0649   -1.1988 C.3       1 <0>        -0.1044
      4 H1         -0.8092    1.4151   -2.0863 H         1 <0>         0.1337
      5 C4         -2.2155    2.2648   -0.5620 C.3       1 <0>         0.0827
      6 N1         -1.9614    2.4323    0.8735 N.pl3     1 <0>        -0.6248
      7 C5         -0.7795    2.0398    1.2125 C.cat     1 <0>         0.5149
      8 C6         -0.0187    1.5258    0.0104 C.3       1 <0>        -0.0906
      9 H2          1.0322    1.8508    0.0210 H         1 <0>         0.1361
     10 C7          0.0021   -0.0041    0.0020 C.3       1 <0>        -0.1554
     11 N2         -0.2795    2.0820    2.4873 N.pl3     1 <0>        -0.8087
     12 H3         -0.5700    4.7837   -3.3168 H         1 <0>         0.0683
     13 H4         -2.0536    3.9531   -2.7371 H         1 <0>         0.0577
     14 H5         -0.8589    3.0619   -3.7398 H         1 <0>         0.0657
     15 H6          0.8248    3.2688   -1.9175 H         1 <0>         0.0831
     16 H7         -0.3698    4.1599   -0.9148 H         1 <0>         0.0619
     17 H8         -2.6920    3.1565   -0.9954 H         1 <0>         0.1222
     18 H9         -2.8399    1.3816   -0.7621 H         1 <0>         0.1160
     19 H10         0.5756   -0.3677    0.8674 H         1 <0>         0.0757
     20 H11         0.4739   -0.3593   -0.9260 H         1 <0>         0.0956
     21 H12        -1.0283   -0.3851    0.0586 H         1 <0>         0.0685
     22 H13         0.7415    1.7263    2.6897 H         1 <0>         0.4744
     23 H14        -0.8991    2.4716    3.3085 H         1 <0>         0.4553
     24 H15        -2.6459    2.8365    1.6338 H         1 <0>         0.4657
@<TRIPOS>BOND
     1    1    2 1
     2    1   12 1
     3    1   13 1
     4    1   14 1
     5    2    3 1
     6    2   15 1
     7    2   16 1
     8    3    4 1
     9    3    8 1
    10    3    5 1
    11    5    6 1
    12    5   17 1
    13    5   18 1
    14    6    7 2
    15    6   24 1
    16    7    8 1
    17    7   11 1
    18    8    9 1
    19    8   10 1
    20   10   19 1
    21   10   20 1
    22   10   21 1
    23   11   22 1
    24   11   23 1
@<TRIPOS>MOLECULE
ZINC28371982
   24    24     0     0     0
SMALL
USER_CHARGES
(3S,4R)-4-ethyl-3-methyl-4,5-dihydro-3H-pyrrol-2-amine
@<TRIPOS>ATOM
      1 C1         -2.1901    1.7169   -1.2132 C.3       1 <0>        -0.1649
      2 C2         -0.7069    2.0910   -1.2410 C.3       1 <0>        -0.1266
      3 C3         -0.0189    1.5422    0.0105 C.3       1 <0>        -0.1041
      4 H1         -0.5761    1.9900    0.8465 H         1 <0>         0.1192
      5 C4          0.0021   -0.0041    0.0020 C.3       1 <0>         0.0832
      6 N1          1.3042   -0.3731    0.5690 N.pl3     1 <0>        -0.6246
      7 C5          2.1309    0.6133    0.5776 C.cat     1 <0>         0.5151
      8 C6          1.4964    1.8579   -0.0023 C.3       1 <0>        -0.0902
      9 H2          1.7639    2.7597    0.5680 H         1 <0>         0.1363
     10 C7          1.9840    2.0924   -1.4334 C.3       1 <0>        -0.1578
     11 N2          3.4153    0.5451    1.0495 N.pl3     1 <0>        -0.8101
     12 H3         -2.6847    2.1115   -2.1130 H         1 <0>         0.0695
     13 H4         -2.6603    2.1484   -0.3173 H         1 <0>         0.0626
     14 H5         -2.2916    0.6219   -1.1893 H         1 <0>         0.0572
     15 H6         -0.2367    1.6595   -2.1369 H         1 <0>         0.0759
     16 H7         -0.6053    3.1860   -1.2649 H         1 <0>         0.0850
     17 H8         -0.8285   -0.3854    0.6141 H         1 <0>         0.1210
     18 H9         -0.1070   -0.3666   -1.0308 H         1 <0>         0.1160
     19 H10         3.0612    2.3149   -1.4219 H         1 <0>         0.0750
     20 H11         1.4389    2.9412   -1.8720 H         1 <0>         0.0985
     21 H12         1.8024    1.1897   -2.0352 H         1 <0>         0.0688
     22 H13         4.0597    1.4361    1.0212 H         1 <0>         0.4742
     23 H14         3.8022   -0.4007    1.4567 H         1 <0>         0.4551
     24 H15         1.6135   -1.3534    0.9606 H         1 <0>         0.4658
@<TRIPOS>BOND
     1    1    2 1
     2    1   12 1
     3    1   13 1
     4    1   14 1
     5    2    3 1
     6    2   15 1
     7    2   16 1
     8    3    4 1
     9    3    8 1
    10    3    5 1
    11    5    6 1
    12    5   17 1
    13    5   18 1
    14    6    7 2
    15    6   24 1
    16    7    8 1
    17    7   11 1
    18    8    9 1
    19    8   10 1
    20   10   19 1
    21   10   20 1
    22   10   21 1
    23   11   22 1
    24   11   23 1
@<TRIPOS>MOLECULE
ZINC13781172
   24    24     0     0     0
SMALL
USER_CHARGES
(4R,5S)-5-ethyl-4-methyl-4,5-dihydro-3H-pyrrol-2-amine
@<TRIPOS>ATOM
      1 C1         -2.1119    1.2292   -3.2423 C.3       1 <0>        -0.1648
      2 C2         -1.4797    0.6143   -1.9920 C.3       1 <0>        -0.1413
      3 C3         -0.5642    1.6428   -1.3250 C.3       1 <0>         0.1199
      4 H1         -1.1344    2.5763   -1.2091 H         1 <0>         0.1237
      5 C4         -0.0127    1.0858    0.0080 C.3       1 <0>        -0.1037
      6 H2         -0.0694   -0.0082    0.1073 H         1 <0>         0.1195
      7 C5          1.4235    1.6630   -0.0026 C.3       1 <0>        -0.1301
      8 C6          1.7064    1.9043   -1.4688 C.cat     1 <0>         0.5155
      9 N1          0.6192    1.8869   -2.1576 N.pl3     1 <0>        -0.6249
     10 N2          2.9543    2.1140   -1.9939 N.pl3     1 <0>        -0.8128
     11 C7         -0.8112    1.6163    1.2005 C.3       1 <0>        -0.1601
     12 H3         -2.7701    0.4897   -3.7218 H         1 <0>         0.0745
     13 H4         -1.3198    1.5257   -3.9456 H         1 <0>         0.0498
     14 H5         -2.7002    2.1142   -2.9583 H         1 <0>         0.0666
     15 H6         -2.2718    0.3178   -1.2887 H         1 <0>         0.1016
     16 H7         -0.8914   -0.2707   -2.2760 H         1 <0>         0.0793
     17 H8          1.4492    2.5931    0.5841 H         1 <0>         0.1407
     18 H9          2.1160    0.9314    0.4393 H         1 <0>         0.1332
     19 H10         3.0753    2.2824   -3.0742 H         1 <0>         0.4544
     20 H11         3.8353    2.1140   -1.3352 H         1 <0>         0.4745
     21 H12        -0.3966    1.2038    2.1321 H         1 <0>         0.0796
     22 H13        -1.8637    1.3123    1.1014 H         1 <0>         0.0775
     23 H14        -0.7474    2.7142    1.2253 H         1 <0>         0.0656
     24 H15         0.6548    2.0455   -3.2455 H         1 <0>         0.4618
@<TRIPOS>BOND
     1    1    2 1
     2    1   12 1
     3    1   13 1
     4    1   14 1
     5    2    3 1
     6    2   15 1
     7    2   16 1
     8    3    4 1
     9    3    9 1
    10    3    5 1
    11    5    6 1
    12    5    7 1
    13    5   11 1
    14    7    8 1
    15    7   17 1
    16    7   18 1
    17    8    9 2
    18    8   10 1
    19    9   24 1
    20   10   19 1
    21   10   20 1
    22   11   21 1
    23   11   22 1
    24   11   23 1
@<TRIPOS>MOLECULE
ZINC27190938
   24    24     0     0     0
SMALL
USER_CHARGES
(4S,5S)-5-ethyl-4-methyl-4,5-dihydro-3H-pyrrol-2-amine
@<TRIPOS>ATOM
      1 C1         -0.1666    0.9872    2.4998 C.3       1 <0>        -0.1651
      2 C2         -0.7705    1.5990    1.2341 C.3       1 <0>        -0.1429
      3 C3         -0.0127    1.0858    0.0080 C.3       1 <0>         0.1207
      4 H1          0.0138   -0.0124    0.0649 H         1 <0>         0.1233
      5 C4         -0.6620    1.6209   -1.2895 C.3       1 <0>        -0.1035
      6 H2         -1.4167    0.9556   -1.7343 H         1 <0>         0.1331
      7 C5          0.5894    1.8615   -2.1682 C.3       1 <0>        -0.1297
      8 C6          1.7080    2.0382   -1.1654 C.cat     1 <0>         0.5150
      9 N1          1.3564    1.6137   -0.0022 N.pl3     1 <0>        -0.6237
     10 N2          2.9330    2.5780   -1.4567 N.pl3     1 <0>        -0.8128
     11 C7         -1.4138    2.9282   -1.0312 C.3       1 <0>        -0.1676
     12 H3         -0.7114    1.3562    3.3813 H         1 <0>         0.0743
     13 H4          0.8925    1.2744    2.5765 H         1 <0>         0.0491
     14 H5         -0.2467   -0.1088    2.4515 H         1 <0>         0.0663
     15 H6         -1.8296    1.3118    1.1574 H         1 <0>         0.1022
     16 H7         -0.6904    2.6950    1.2824 H         1 <0>         0.0822
     17 H8          0.7510    0.9918   -2.8221 H         1 <0>         0.1406
     18 H9          0.4377    2.7602   -2.7842 H         1 <0>         0.1334
     19 H10         3.6942    2.6718   -0.6682 H         1 <0>         0.4544
     20 H11         3.1553    2.9176   -2.4791 H         1 <0>         0.4744
     21 H12        -1.8639    3.2839   -1.9697 H         1 <0>         0.0781
     22 H13        -0.7125    3.6855   -0.6508 H         1 <0>         0.0552
     23 H14        -2.2055    2.7551   -0.2874 H         1 <0>         0.0810
     24 H15         2.0601    1.6738    0.8411 H         1 <0>         0.4621
@<TRIPOS>BOND
     1    1    2 1
     2    1   12 1
     3    1   13 1
     4    1   14 1
     5    2    3 1
     6    2   15 1
     7    2   16 1
     8    3    4 1
     9    3    9 1
    10    3    5 1
    11    5    6 1
    12    5    7 1
    13    5   11 1
    14    7    8 1
    15    7   17 1
    16    7   18 1
    17    8    9 2
    18    8   10 1
    19    9   24 1
    20   10   19 1
    21   10   20 1
    22   11   21 1
    23   11   22 1
    24   11   23 1
@<TRIPOS>MOLECULE
ZINC27190942
   24    24     0     0     0
SMALL
USER_CHARGES
(4S,5R)-5-ethyl-4-methyl-4,5-dihydro-3H-pyrrol-2-amine
@<TRIPOS>ATOM
      1 C1         -0.0127    1.0858    0.0080 C.3       1 <0>        -0.1647
      2 C2         -0.7288    1.5792    1.2668 C.3       1 <0>        -0.1413
      3 C3         -2.1642    1.0497    1.2777 C.3       1 <0>         0.1198
      4 H1         -2.6251    1.3047    0.3120 H         1 <0>         0.1235
      5 C4         -2.9341    1.6107    2.4959 C.3       1 <0>        -0.1034
      6 H2         -2.2974    1.9973    3.3053 H         1 <0>         0.1196
      7 C5         -3.8049    0.3885    2.8811 C.3       1 <0>        -0.1302
      8 C6         -3.0459   -0.7915    2.3157 C.cat     1 <0>         0.5155
      9 N1         -2.1683   -0.4068    1.4563 N.pl3     1 <0>        -0.6248
     10 N2         -3.2639   -2.0965    2.6710 N.pl3     1 <0>        -0.8128
     11 C7         -3.8028    2.8052    2.0964 C.3       1 <0>        -0.1601
     12 H3          1.0193    1.4665    0.0002 H         1 <0>         0.0747
     13 H4         -0.5447    1.4502   -0.8831 H         1 <0>         0.0666
     14 H5          0.0022   -0.0141    0.0019 H         1 <0>         0.0496
     15 H6         -0.1968    1.2148    2.1579 H         1 <0>         0.0794
     16 H7         -0.7437    2.6791    1.2729 H         1 <0>         0.1016
     17 H8         -3.8989    0.3357    3.9758 H         1 <0>         0.1331
     18 H9         -4.8035    0.4936    2.4320 H         1 <0>         0.1406
     19 H10        -2.6673   -2.8985    2.2119 H         1 <0>         0.4543
     20 H11        -4.0355   -2.3423    3.4154 H         1 <0>         0.4745
     21 H12        -4.3371    3.1821    2.9810 H         1 <0>         0.0796
     22 H13        -4.5312    2.4903    1.3346 H         1 <0>         0.0656
     23 H14        -3.1646    3.6018    1.6864 H         1 <0>         0.0776
     24 H15        -1.5295   -1.1477    0.9533 H         1 <0>         0.4618
@<TRIPOS>BOND
     1    1    2 1
     2    1   12 1
     3    1   13 1
     4    1   14 1
     5    2    3 1
     6    2   15 1
     7    2   16 1
     8    3    4 1
     9    3    9 1
    10    3    5 1
    11    5    6 1
    12    5    7 1
    13    5   11 1
    14    7    8 1
    15    7   17 1
    16    7   18 1
    17    8    9 2
    18    8   10 1
    19    9   24 1
    20   10   19 1
    21   10   20 1
    22   11   21 1
    23   11   22 1
    24   11   23 1
@<TRIPOS>MOLECULE
ZINC27190953
   24    24     0     0     0
SMALL
USER_CHARGES
(4R,5R)-5-ethyl-4-methyl-4,5-dihydro-3H-pyrrol-2-amine
@<TRIPOS>ATOM
      1 C1          1.5268   -0.5583    3.5764 C.3       1 <0>        -0.1652
      2 C2          0.8769   -0.0890    2.2733 C.3       1 <0>        -0.1427
      3 C3          0.0368    1.1608    2.5436 C.3       1 <0>         0.1206
      4 H1         -0.6194    0.9457    3.3999 H         1 <0>         0.1233
      5 C4         -0.7288    1.5792    1.2668 C.3       1 <0>        -0.1037
      6 H2         -1.7442    1.1645    1.1833 H         1 <0>         0.1330
      7 C5         -0.6656    3.1220    1.3758 C.3       1 <0>        -0.1292
      8 C6          0.5472    3.3734    2.2460 C.cat     1 <0>         0.5148
      9 N1          0.9042    2.3009    2.8616 N.pl3     1 <0>        -0.6237
     10 N2          1.1812    4.5823    2.3624 N.pl3     1 <0>        -0.8128
     11 C7         -0.0127    1.0858    0.0080 C.3       1 <0>        -0.1677
     12 H3          2.1308   -1.4569    3.3820 H         1 <0>         0.0741
     13 H4          0.7440   -0.7947    4.3121 H         1 <0>         0.0663
     14 H5          2.1729    0.2393    3.9719 H         1 <0>         0.0494
     15 H6          1.6597    0.1474    1.5376 H         1 <0>         0.0819
     16 H7          0.2308   -0.8866    1.8777 H         1 <0>         0.1023
     17 H8         -0.5541    3.5563    0.3713 H         1 <0>         0.1334
     18 H9         -1.5924    3.4954    1.8359 H         1 <0>         0.1406
     19 H10         2.0589    4.6822    3.0179 H         1 <0>         0.4544
     20 H11         0.8126    5.4530    1.8003 H         1 <0>         0.4744
     21 H12        -0.5790    1.3976   -0.8820 H         1 <0>         0.0781
     22 H13         0.0572   -0.0117    0.0323 H         1 <0>         0.0810
     23 H14         0.9986    1.5168   -0.0313 H         1 <0>         0.0552
     24 H15         1.7739    2.3168    3.5349 H         1 <0>         0.4621
@<TRIPOS>BOND
     1    1    2 1
     2    1   12 1
     3    1   13 1
     4    1   14 1
     5    2    3 1
     6    2   15 1
     7    2   16 1
     8    3    4 1
     9    3    9 1
    10    3    5 1
    11    5    6 1
    12    5    7 1
    13    5   11 1
    14    7    8 1
    15    7   17 1
    16    7   18 1
    17    8    9 2
    18    8   10 1
    19    9   24 1
    20   10   19 1
    21   10   20 1
    22   11   21 1
    23   11   22 1
    24   11   23 1
@<TRIPOS>MOLECULE
ZINC28373521
   22    23     0     0     0
SMALL
USER_CHARGES

@<TRIPOS>ATOM
      1 C1         -0.0189    1.5395    0.0105 C.3       1 <0>        -0.1357
      2 C2          1.4893    1.9104   -0.0019 C.3       1 <0>        -0.1318
      3 C3          2.0665    0.7922   -0.8997 C.3       1 <0>         0.0823
      4 H1          1.9703    1.0159   -1.9622 H         1 <0>         0.1232
      5 C4          3.5221    0.4922   -0.4854 C.3       1 <0>        -0.1314
      6 C5          3.5931   -1.0448   -0.6340 C.3       1 <0>        -0.1230
      7 C6          2.1506   -1.5043   -0.6936 C.cat     1 <0>         0.5483
      8 N1          1.7568   -2.7178   -0.9056 N.pl3     1 <0>        -0.7175
      9 N2          1.3186   -0.4228   -0.4974 N.pl3     1 <0>        -0.5931
     10 C7          0.0021   -0.0041    0.0020 C.3       1 <0>         0.1180
     11 H2         -0.5002    1.9134    0.9142 H         1 <0>         0.1043
     12 H3         -0.5173    1.9231   -0.8797 H         1 <0>         0.0931
     13 H4          1.6478    2.8923   -0.4480 H         1 <0>         0.1048
     14 H5          1.9123    1.8649    1.0016 H         1 <0>         0.0917
     15 H6          4.2261    0.9804   -1.1594 H         1 <0>         0.1150
     16 H7          3.7012    0.7910    0.5475 H         1 <0>         0.1034
     17 H8          4.1136   -1.3123   -1.5537 H         1 <0>         0.1352
     18 H9          4.0952   -1.4854    0.2274 H         1 <0>         0.1402
     19 H10         2.4092   -3.4224   -1.0432 H         1 <0>         0.4503
     20 H11        -0.1477   -0.3820    1.0134 H         1 <0>         0.0964
     21 H12        -0.7807   -0.3814   -0.6559 H         1 <0>         0.0923
     22 H13         0.8091   -2.9234   -0.9270 H         1 <0>         0.4338
@<TRIPOS>BOND
     1    1   10 1
     2    1    2 1
     3    1   11 1
     4    1   12 1
     5    2    3 1
     6    2   13 1
     7    2   14 1
     8    3    4 1
     9    3    9 1
    10    3    5 1
    11    5    6 1
    12    5   15 1
    13    5   16 1
    14    6    7 1
    15    6   17 1
    16    6   18 1
    17    7    8 2
    18    7    9 1
    19    8   19 1
    20    8   22 1
    21    9   10 1
    22   10   20 1
    23   10   21 1
@<TRIPOS>MOLECULE
ZINC28373528
   22    23     0     0     0
SMALL
USER_CHARGES
(8R)-1,2,5,6,7,8-hexahydropyrrolizin-3-imine
@<TRIPOS>ATOM
      1 C1         -2.2482    0.8851   -2.9614 C.3       1 <0>        -0.1414
      2 C2         -0.8586    0.5805   -2.3172 C.3       1 <0>        -0.1326
      3 C3         -0.8275    1.6308   -1.1834 C.3       1 <0>         0.0873
      4 H1         -0.4509    2.5998   -1.5430 H         1 <0>         0.1226
      5 C4         -0.0127    1.0858    0.0080 C.3       1 <0>        -0.1379
      6 C5         -0.8061    1.6190    1.2230 C.3       1 <0>        -0.1232
      7 C6         -2.1593    2.0231    0.6595 C.cat     1 <0>         0.5506
      8 N1         -3.1045    2.6055    1.3227 N.pl3     1 <0>        -0.7496
      9 N2         -2.2153    1.6717   -0.6641 N.pl3     1 <0>        -0.5951
     10 C7         -3.1221    1.2864   -1.7538 C.3       1 <0>         0.1131
     11 H2         -2.6849    0.0034   -3.4531 H         1 <0>         0.1014
     12 H3         -2.2051    1.7199   -3.6764 H         1 <0>         0.0906
     13 H4         -0.8418   -0.4583   -1.9558 H         1 <0>         0.0919
     14 H5         -0.0675    0.7201   -3.0687 H         1 <0>         0.1046
     15 H6          0.0132   -0.0130   -0.0376 H         1 <0>         0.1017
     16 H7          1.0135    1.4790   -0.0391 H         1 <0>         0.1127
     17 H8         -0.9004    0.8236    1.9770 H         1 <0>         0.1386
     18 H9         -0.2746    2.4772    1.6600 H         1 <0>         0.1338
     19 H10        -4.0515    2.8585    0.8234 H         1 <0>         0.4637
     20 H11        -3.7687    2.1311   -2.0337 H         1 <0>         0.0898
     21 H12        -3.7455    0.4318   -1.4522 H         1 <0>         0.0945
     22 H13        -2.9615    2.8479    2.3861 H         1 <0>         0.4828
@<TRIPOS>BOND
     1    1   10 1
     2    1    2 1
     3    1   11 1
     4    1   12 1
     5    2    3 1
     6    2   13 1
     7    2   14 1
     8    3    4 1
     9    3    9 1
    10    3    5 1
    11    5    6 1
    12    5   15 1
    13    5   16 1
    14    6    7 1
    15    6   17 1
    16    6   18 1
    17    7    8 2
    18    7    9 1
    19    8   19 1
    20    8   22 1
    21    9   10 1
    22   10   20 1
    23   10   21 1
@<TRIPOS>MOLECULE
ZINC13781173
   27    27     0     0     0
SMALL
USER_CHARGES
(4R,5S)-4-methyl-5-propyl-4,5-dihydro-3H-pyrrol-2-amine
@<TRIPOS>ATOM
      1 C1         -0.6279   -1.9253    4.8620 C.3       1 <0>        -0.1606
      2 C2          0.0782   -0.6907    4.2979 C.3       1 <0>        -0.1289
      3 C3         -0.7169   -0.1470    3.1092 C.3       1 <0>        -0.1389
      4 C4         -0.0108    1.0875    2.5452 C.3       1 <0>         0.1204
      5 H1          1.0454    0.8259    2.3841 H         1 <0>         0.1236
      6 C5         -0.7288    1.5792    1.2668 C.3       1 <0>        -0.1033
      7 H2         -1.7617    1.2187    1.1519 H         1 <0>         0.1195
      8 C6         -0.5905    3.1131    1.4221 C.3       1 <0>        -0.1301
      9 C7         -0.4130    3.3122    2.9110 C.cat     1 <0>         0.5155
     10 N1         -0.1027    2.2058    3.4909 N.pl3     1 <0>        -0.6247
     11 N2         -0.5626    4.5112    3.5567 N.pl3     1 <0>        -0.8129
     12 C8         -0.0127    1.0858    0.0080 C.3       1 <0>        -0.1600
     13 H3         -0.0562   -2.3162    5.7166 H         1 <0>         0.0636
     14 H4         -0.6951   -2.6977    4.0817 H         1 <0>         0.0626
     15 H5         -1.6400   -1.6495    5.1932 H         1 <0>         0.0577
     16 H6          0.1454    0.0817    5.0782 H         1 <0>         0.0555
     17 H7          1.0903   -0.9664    3.9668 H         1 <0>         0.0723
     18 H8         -0.7841   -0.9195    2.3289 H         1 <0>         0.1019
     19 H9         -1.7290    0.1287    3.4403 H         1 <0>         0.0801
     20 H10         0.2812    3.4625    0.8493 H         1 <0>         0.1407
     21 H11        -1.4991    3.6035    1.0427 H         1 <0>         0.1331
     22 H12        -0.4155    4.5718    4.6451 H         1 <0>         0.4543
     23 H13        -0.8298    5.4133    2.9867 H         1 <0>         0.4744
     24 H14        -0.5447    1.4502   -0.8831 H         1 <0>         0.0796
     25 H15         0.0022   -0.0141    0.0020 H         1 <0>         0.0775
     26 H16         1.0193    1.4665    0.0002 H         1 <0>         0.0656
     27 H17         0.0597    2.1816    4.5786 H         1 <0>         0.4617
@<TRIPOS>BOND
     1    1    2 1
     2    1   13 1
     3    1   14 1
     4    1   15 1
     5    2    3 1
     6    2   16 1
     7    2   17 1
     8    3    4 1
     9    3   18 1
    10    3   19 1
    11    4    5 1
    12    4   10 1
    13    4    6 1
    14    6    7 1
    15    6    8 1
    16    6   12 1
    17    8    9 1
    18    8   20 1
    19    8   21 1
    20    9   10 2
    21    9   11 1
    22   10   27 1
    23   11   22 1
    24   11   23 1
    25   12   24 1
    26   12   25 1
    27   12   26 1
@<TRIPOS>MOLECULE
ZINC27196927
   27    27     0     0     0
SMALL
USER_CHARGES
(4S,5S)-4-methyl-5-propyl-4,5-dihydro-3H-pyrrol-2-amine
@<TRIPOS>ATOM
      1 C1         -0.0187    1.5258    0.0104 C.3       1 <0>        -0.1604
      2 C2          0.0021   -0.0041    0.0020 C.3       1 <0>        -0.1292
      3 C3          0.7182   -0.4975   -1.2568 C.3       1 <0>        -0.1409
      4 C4          0.7390   -2.0273   -1.2652 C.3       1 <0>         0.1212
      5 H1         -0.2951   -2.3790   -1.1349 H         1 <0>         0.1234
      6 C5          1.4107   -2.5478   -2.5572 C.3       1 <0>        -0.1032
      7 H2          0.7162   -2.7586   -3.3838 H         1 <0>         0.1331
      8 C6          2.1708   -3.7834   -2.0174 C.3       1 <0>        -0.1296
      9 C7          2.3559   -3.4813   -0.5469 C.cat     1 <0>         0.5150
     10 N1          1.5740   -2.5313   -0.1689 N.pl3     1 <0>        -0.6235
     11 N2          3.2391   -4.1321    0.2737 N.pl3     1 <0>        -0.8129
     12 C8          2.3795   -1.5118   -3.1306 C.3       1 <0>        -0.1675
     13 H3         -0.5336    1.8805    0.9154 H         1 <0>         0.0633
     14 H4         -0.5508    1.8901   -0.8808 H         1 <0>         0.0626
     15 H5          1.0133    1.9066    0.0026 H         1 <0>         0.0575
     16 H6          0.5342   -0.3684    0.8932 H         1 <0>         0.0544
     17 H7         -1.0299   -0.3849    0.0099 H         1 <0>         0.0721
     18 H8          0.1861   -0.1331   -2.1479 H         1 <0>         0.1024
     19 H9          1.7502   -0.1167   -1.2647 H         1 <0>         0.0834
     20 H10         1.5660   -4.6871   -2.1830 H         1 <0>         0.1406
     21 H11         3.1307   -3.8828   -2.5452 H         1 <0>         0.1333
     22 H12         3.3131   -3.8516    1.3347 H         1 <0>         0.4543
     23 H13         3.8742   -4.9352   -0.1285 H         1 <0>         0.4744
     24 H14         2.8409   -1.9089   -4.0468 H         1 <0>         0.0780
     25 H15         3.1632   -1.2935   -2.3902 H         1 <0>         0.0553
     26 H16         1.8309   -0.5882   -3.3670 H         1 <0>         0.0810
     27 H17         1.5883   -2.1904    0.8769 H         1 <0>         0.4619
@<TRIPOS>BOND
     1    1    2 1
     2    1   13 1
     3    1   14 1
     4    1   15 1
     5    2    3 1
     6    2   16 1
     7    2   17 1
     8    3    4 1
     9    3   18 1
    10    3   19 1
    11    4    5 1
    12    4   10 1
    13    4    6 1
    14    6    7 1
    15    6    8 1
    16    6   12 1
    17    8    9 1
    18    8   20 1
    19    8   21 1
    20    9   10 2
    21    9   11 1
    22   10   27 1
    23   11   22 1
    24   11   23 1
    25   12   24 1
    26   12   25 1
    27   12   26 1
@<TRIPOS>MOLECULE
ZINC27196931
   27    27     0     0     0
SMALL
USER_CHARGES
(4S,5R)-4-methyl-5-propyl-4,5-dihydro-3H-pyrrol-2-amine
@<TRIPOS>ATOM
      1 C1         -2.3362   -2.6139   -1.5938 C.3       1 <0>        -0.1606
      2 C2         -1.1856   -2.0720   -0.7433 C.3       1 <0>        -0.1289
      3 C3         -1.1485   -0.5460   -0.8485 C.3       1 <0>        -0.1389
      4 C4          0.0021   -0.0041    0.0020 C.3       1 <0>         0.1203
      5 H1         -0.0811   -0.4511    1.0036 H         1 <0>         0.1236
      6 C5         -0.0189    1.5422    0.0105 C.3       1 <0>        -0.1033
      7 H2         -0.5919    1.9989   -0.8099 H         1 <0>         0.1195
      8 C6          1.4964    1.8579   -0.0023 C.3       1 <0>        -0.1301
      9 C7          2.1196    0.6197   -0.6075 C.cat     1 <0>         0.5156
     10 N1          1.2931   -0.3669   -0.5937 N.pl3     1 <0>        -0.6247
     11 N2          3.3948    0.5566   -1.1044 N.pl3     1 <0>        -0.8129
     12 C8         -0.6828    2.0775    1.2808 C.3       1 <0>        -0.1600
     13 H3         -2.3629   -3.7110   -1.5182 H         1 <0>         0.0636
     14 H4         -2.1851   -2.3222   -2.6436 H         1 <0>         0.0577
     15 H5         -3.2878   -2.1981   -1.2310 H         1 <0>         0.0626
     16 H6         -1.3367   -2.3637    0.3065 H         1 <0>         0.0723
     17 H7         -0.2340   -2.4878   -1.1060 H         1 <0>         0.0555
     18 H8         -0.9974   -0.2544   -1.8983 H         1 <0>         0.0800
     19 H9         -2.1001   -0.1302   -0.4858 H         1 <0>         0.1019
     20 H10         1.6788    2.7552   -0.6118 H         1 <0>         0.1331
     21 H11         1.8424    2.0369    1.0264 H         1 <0>         0.1407
     22 H12         3.7737   -0.3848   -1.5289 H         1 <0>         0.4543
     23 H13         4.0398    1.4473   -1.0788 H         1 <0>         0.4744
     24 H14        -0.6832    3.1773    1.2588 H         1 <0>         0.0796
     25 H15        -0.1238    1.7286    2.1616 H         1 <0>         0.0656
     26 H16        -1.7187    1.7115    1.3353 H         1 <0>         0.0775
     27 H17         1.5948   -1.3429   -1.0017 H         1 <0>         0.4617
@<TRIPOS>BOND
     1    1    2 1
     2    1   13 1
     3    1   14 1
     4    1   15 1
     5    2    3 1
     6    2   16 1
     7    2   17 1
     8    3    4 1
     9    3   18 1
    10    3   19 1
    11    4    5 1
    12    4   10 1
    13    4    6 1
    14    6    7 1
    15    6    8 1
    16    6   12 1
    17    8    9 1
    18    8   20 1
    19    8   21 1
    20    9   10 2
    21    9   11 1
    22   10   27 1
    23   11   22 1
    24   11   23 1
    25   12   24 1
    26   12   25 1
    27   12   26 1
@<TRIPOS>MOLECULE
ZINC27196940
   27    27     0     0     0
SMALL
USER_CHARGES
(4R,5R)-4-methyl-5-propyl-4,5-dihydro-3H-pyrrol-2-amine
@<TRIPOS>ATOM
      1 C1          0.6082    5.3148   -1.5348 C.3       1 <0>        -0.1604
      2 C2          0.5292    4.1640   -0.5298 C.3       1 <0>        -0.1291
      3 C3          1.4133    3.0096   -1.0057 C.3       1 <0>        -0.1409
      4 C4          1.3343    1.8587   -0.0007 C.3       1 <0>         0.1213
      5 H1          1.5715    2.2635    0.9942 H         1 <0>         0.1234
      6 C5          2.2641    0.7019   -0.4352 C.3       1 <0>        -0.1032
      7 H2          3.2746    0.7372   -0.0021 H         1 <0>         0.1330
      8 C6          1.4212   -0.5272   -0.0170 C.3       1 <0>        -0.1296
      9 C7          0.0021   -0.0041    0.0020 C.cat     1 <0>         0.5150
     10 N1         -0.0154    1.2829    0.0091 N.pl3     1 <0>        -0.6235
     11 N2         -1.1164   -0.7952    0.0110 N.pl3     1 <0>        -0.8129
     12 C8          2.4990    0.7205   -1.9470 C.3       1 <0>        -0.1675
     13 H3         -0.0275    6.1447   -1.1926 H         1 <0>         0.0634
     14 H4          0.2593    4.9672   -2.5184 H         1 <0>         0.0575
     15 H5          1.6495    5.6598   -1.6160 H         1 <0>         0.0626
     16 H6          0.8781    4.5116    0.4538 H         1 <0>         0.0721
     17 H7         -0.5121    3.8189   -0.4486 H         1 <0>         0.0544
     18 H8          1.0645    2.6620   -1.9893 H         1 <0>         0.0834
     19 H9          2.4546    3.3546   -1.0869 H         1 <0>         0.1024
     20 H10         1.5573   -1.3329   -0.7535 H         1 <0>         0.1333
     21 H11         1.7486   -0.8766    0.9733 H         1 <0>         0.1406
     22 H12        -2.1154   -0.3350    0.0248 H         1 <0>         0.4543
     23 H13        -1.0154   -1.8905    0.0044 H         1 <0>         0.4743
     24 H14         3.1623   -0.1117   -2.2253 H         1 <0>         0.0780
     25 H15         2.9669    1.6739   -2.2336 H         1 <0>         0.0810
     26 H16         1.5367    0.6127   -2.4689 H         1 <0>         0.0553
     27 H17        -0.9754    1.8198    0.0212 H         1 <0>         0.4619
@<TRIPOS>BOND
     1    1    2 1
     2    1   13 1
     3    1   14 1
     4    1   15 1
     5    2    3 1
     6    2   16 1
     7    2   17 1
     8    3    4 1
     9    3   18 1
    10    3   19 1
    11    4    5 1
    12    4   10 1
    13    4    6 1
    14    6    7 1
    15    6    8 1
    16    6   12 1
    17    8    9 1
    18    8   20 1
    19    8   21 1
    20    9   10 2
    21    9   11 1
    22   10   27 1
    23   11   22 1
    24   11   23 1
    25   12   24 1
    26   12   25 1
    27   12   26 1
@<TRIPOS>MOLECULE
ZINC28392681
   19    19     0     0     0
SMALL
USER_CHARGES
2,5,6,7-tetrahydro-1,4-thiazepin-3-amine
@<TRIPOS>ATOM
      1 C1          2.1280    0.5393   -2.2705 C.3       1 <0>        -0.1465
      2 C2          0.6909    0.0380   -2.3029 C.3       1 <0>         0.0762
      3 N1          0.3534   -0.6436   -1.0423 N.pl3     1 <0>        -0.6321
      4 C3          0.0021   -0.0041    0.0020 C.cat     1 <0>         0.5349
      5 C4         -0.0184    1.5062    0.0103 C.3       1 <0>        -0.1176
      6 S1          1.7116    2.0736   -0.0031 S.3       1 <0>        -0.1533
      7 C5          2.1969    1.9699   -1.7361 C.3       1 <0>        -0.1211
      8 N2         -0.3613   -0.6933    1.1289 N.pl3     1 <0>        -0.8171
      9 H1          2.5352    0.5094   -3.2919 H         1 <0>         0.1173
     10 H2          2.7184   -0.1236   -1.6209 H         1 <0>         0.0946
     11 H3          0.0086    0.8895   -2.4422 H         1 <0>         0.1045
     12 H4          0.5682   -0.6701   -3.1357 H         1 <0>         0.1310
     13 H5         -0.5504    1.8706   -0.8809 H         1 <0>         0.1455
     14 H6         -0.5333    1.8610    0.9153 H         1 <0>         0.1612
     15 H7          3.2269    2.3455   -1.8255 H         1 <0>         0.1338
     16 H8          1.5206    2.6122   -2.3193 H         1 <0>         0.1037
     17 H9         -0.6656   -0.1467    2.0337 H         1 <0>         0.4724
     18 H10        -0.3488   -1.7932    1.1289 H         1 <0>         0.4534
     19 H11         0.4124   -1.7418   -1.0209 H         1 <0>         0.4593
@<TRIPOS>BOND
     1    1    7 1
     2    1    2 1
     3    1    9 1
     4    1   10 1
     5    2    3 1
     6    2   11 1
     7    2   12 1
     8    3    4 2
     9    3   19 1
    10    4    5 1
    11    4    8 1
    12    5    6 1
    13    5   13 1
    14    5   14 1
    15    6    7 1
    16    7   15 1
    17    7   16 1
    18    8   17 1
    19    8   18 1
@<TRIPOS>MOLECULE
ZINC28476631
   28    29     0     0     0
SMALL
USER_CHARGES
(4R,4aR,7aR)-4-methyl-4,4a,5,6,7,7a-hexahydro-3H-cyclopenta[e]pyridin-2-amine
@<TRIPOS>ATOM
      1 C1         -3.1749    2.3326   -2.9363 C.3       1 <0>        -0.1551
      2 C2         -2.9163    2.9120   -1.5441 C.3       1 <0>        -0.0945
      3 H1         -3.8736    3.1832   -1.0750 H         1 <0>         0.0912
      4 C3         -2.0319    4.1549   -1.6646 C.3       1 <0>        -0.1230
      5 C4         -1.6148    4.5960   -0.2898 C.cat     1 <0>         0.5355
      6 N1         -1.5986    3.8202    0.7198 N.pl3     1 <0>        -0.6216
      7 C5         -1.9675    2.4148    0.7359 C.3       1 <0>         0.1199
      8 H2         -2.8725    2.3854    1.3606 H         1 <0>         0.1218
      9 C6         -2.2112    1.8714   -0.6836 C.3       1 <0>        -0.1096
     10 H3         -2.8584    0.9820   -0.6989 H         1 <0>         0.1225
     11 C7         -0.7868    1.6108   -1.2198 C.3       1 <0>        -0.1302
     12 C8         -0.0127    1.0858    0.0080 C.3       1 <0>        -0.1280
     13 C9         -0.7609    1.5960    1.2522 C.3       1 <0>        -0.1300
     14 N2         -1.2319    5.8996   -0.1138 N.pl3     1 <0>        -0.8356
     15 H4         -3.6841    3.0842   -3.5575 H         1 <0>         0.0695
     16 H5         -3.8093    1.4382   -2.8492 H         1 <0>         0.0738
     17 H6         -2.2173    2.0588   -3.4032 H         1 <0>         0.0676
     18 H7         -1.1406    3.9141   -2.2625 H         1 <0>         0.1364
     19 H8         -2.5967    4.9605   -2.1565 H         1 <0>         0.1286
     20 H9         -0.8302    0.8679   -2.0299 H         1 <0>         0.0879
     21 H10        -0.3627    2.5496   -1.6056 H         1 <0>         0.0677
     22 H11         0.0071   -0.0138   -0.0137 H         1 <0>         0.0831
     23 H12         1.0172    1.4716   -0.0154 H         1 <0>         0.0737
     24 H13        -0.1130    2.2427    1.8622 H         1 <0>         0.0803
     25 H14        -1.1223    0.7568    1.8646 H         1 <0>         0.1007
     26 H15        -0.9213    6.2521    0.8808 H         1 <0>         0.4480
     27 H16        -1.2350    6.5938   -0.9671 H         1 <0>         0.4691
     28 H17        -1.2818    4.2018    1.7016 H         1 <0>         0.4503
@<TRIPOS>BOND
     1    1    2 1
     2    1   15 1
     3    1   16 1
     4    1   17 1
     5    2    3 1
     6    2    9 1
     7    2    4 1
     8    4    5 1
     9    4   18 1
    10    4   19 1
    11    5    6 2
    12    5   14 1
    13    6    7 1
    14    6   28 1
    15    7    8 1
    16    7   13 1
    17    7    9 1
    18    9   10 1
    19    9   11 1
    20   11   12 1
    21   11   20 1
    22   11   21 1
    23   12   13 1
    24   12   22 1
    25   12   23 1
    26   13   24 1
    27   13   25 1
    28   14   26 1
    29   14   27 1
@<TRIPOS>MOLECULE
ZINC13952160
   13    13     0     0     0
SMALL
USER_CHARGES
pyridin-2-amine
@<TRIPOS>ATOM
      1 C1         -1.2206    1.7609    0.0173 C.ar      1 <0>        -0.0333
      2 C2         -0.0126    1.0758    0.0080 C.ar      1 <0>        -0.2360
      3 C3          1.1691    1.7890    0.0005 C.ar      1 <0>         0.1484
      4 N1          1.1632    3.1087    0.0072 N.ar      1 <0>        -0.5484
      5 C4          0.0327    3.7978    0.0212 C.ar      1 <0>         0.4010
      6 C5         -1.1952    3.1436    0.0294 C.ar      1 <0>        -0.2417
      7 N2          0.0730    5.1872    0.0283 N.pl3     1 <0>        -0.8532
      8 H1         -2.1588    1.2259    0.0192 H         1 <0>         0.1330
      9 H2          0.0021   -0.0041    0.0020 H         1 <0>         0.1322
     10 H3          2.1107    1.2603   -0.0113 H         1 <0>         0.1560
     11 H4         -2.1160    3.7079    0.0405 H         1 <0>         0.1298
     12 H5          0.9267    5.6477    0.0230 H         1 <0>         0.4041
     13 H6         -0.7526    5.6963    0.0386 H         1 <0>         0.4081
@<TRIPOS>BOND
     1    1    6 ar
     2    1    2 ar
     3    1    8 1
     4    2    3 ar
     5    2    9 1
     6    3    4 ar
     7    3   10 1
     8    4    5 ar
     9    5    6 ar
    10    5    7 1
    11    6   11 1
    12    7   12 1
    13    7   13 1
@<TRIPOS>MOLECULE
ZINC08034829
   12    11     0     0     0
SMALL
USER_CHARGES
1-aminoguanidine
@<TRIPOS>ATOM
      1 C1         -0.7124    2.5578   -0.9728 C.cat     1 <0>         0.7432
      2 N1         -1.4909    2.6294   -2.1037 N.pl3     1 <0>        -0.8045
      3 N2         -0.3443    1.3330   -0.4682 N.pl3     1 <0>        -0.5422
      4 N3          0.4292    1.2618    0.6555 N.3       1 <0>        -0.6005
      5 H1         -0.5313    4.5620   -0.6588 H         1 <0>         0.4523
      6 H2         -1.7804    1.8159   -2.5455 H         1 <0>         0.4401
      7 H3         -1.7506    3.4935   -2.4598 H         1 <0>         0.4425
      8 H4         -0.6339    0.5195   -0.9100 H         1 <0>         0.4372
      9 H5          0.6172    0.3024    0.9049 H         1 <0>         0.3992
     10 H6          1.2871    1.7795    0.5372 H         1 <0>         0.3590
     11 N4         -0.2847    3.6307   -0.3234 N.pl3     1 <0>        -0.7864
     12 H7          0.2950    3.5247    0.5174 H         1 <0>         0.4602
@<TRIPOS>BOND
     1    1    2 1
     2    1    3 1
     3    1   11 2
     4    2    6 1
     5    2    7 1
     6    3    4 1
     7    3    8 1
     8    4    9 1
     9    4   10 1
    10    5   11 1
    11   11   12 1
@<TRIPOS>MOLECULE
ZINC19796052
   28    27     0     0     0
SMALL
USER_CHARGES

@<TRIPOS>ATOM
      1 C1         -0.0117    1.5287   -0.1466 C.3       1 <0>        -0.1446
      2 C2          0.0130    0.0014   -0.2331 C.3       1 <0>        -0.1246
      3 C3         -1.4208   -0.5325   -0.2382 C.3       1 <0>        -0.0498
      4 H1         -1.9814   -0.0605   -1.0450 H         1 <0>         0.1365
      5 C4         -1.4005   -2.0248   -0.4467 C.2       1 <0>         0.4883
      6 O1         -1.7056   -2.7722    0.4670 O.co2     1 <0>        -0.6698
      7 O2         -1.0790   -2.4848   -1.5291 O.co2     1 <0>        -0.6325
      8 N1         -2.0618   -0.2264    1.0477 N.4       1 <0>        -0.6145
      9 C5          1.4221    2.0625   -0.1416 C.3       1 <0>         0.1026
     10 N2          1.3984    3.5250   -0.0588 N.pl3     1 <0>        -0.6811
     11 C6          2.5553    4.2182   -0.0399 C.2       1 <0>         0.7149
     12 N3          3.7340    3.5650   -0.0974 N.pl3     1 <0>        -0.8398
     13 N4          2.5335    5.5627    0.0362 N.2       1 <0>        -0.5046
     14 N5          3.6342    6.2311   -0.0411 N.pl3     1 <0>         0.1932
     15 O3          4.0483    6.6853   -1.2058 O.2       1 <0>        -0.2350
     16 O4          4.3437    6.4591    1.0447 O.3       1 <0>        -0.2457
     17 H2         -0.5468    1.9327   -1.0060 H         1 <0>         0.0930
     18 H3         -0.5157    1.8325    0.7708 H         1 <0>         0.0705
     19 H4          0.5171   -0.3025   -1.1506 H         1 <0>         0.1174
     20 H5          0.5481   -0.4026    0.6263 H         1 <0>         0.0885
     21 H6         -1.5428   -0.6633    1.7946 H         1 <0>         0.4324
     22 H7         -2.0754    0.7728    1.1873 H         1 <0>         0.4115
     23 H8          1.9572    1.6586    0.7178 H         1 <0>         0.0859
     24 H9          1.9262    1.7587   -1.0591 H         1 <0>         0.0912
     25 H10         0.5508    3.9948   -0.0175 H         1 <0>         0.4331
     26 H11         3.7538    2.5960   -0.0591 H         1 <0>         0.4203
     27 H12         4.5618    4.0643   -0.1769 H         1 <0>         0.4280
     28 H13        -3.0073   -0.5784    1.0444 H         1 <0>         0.4349
@<TRIPOS>BOND
     1    1    2 1
     2    1    9 1
     3    1   17 1
     4    1   18 1
     5    2    3 1
     6    2   19 1
     7    2   20 1
     8    3    4 1
     9    3    5 1
    10    3    8 1
    11    5    6 2
    12    5    7 1
    13    8   21 1
    14    8   22 1
    15    8   28 1
    16    9   10 1
    17    9   23 1
    18    9   24 1
    19   10   11 1
    20   10   25 1
    21   11   12 1
    22   11   13 2
    23   12   26 1
    24   12   27 1
    25   13   14 1
    26   14   15 2
    27   14   16 1
@<TRIPOS>MOLECULE
ZINC19796052
   27    26     0     0     0
SMALL
USER_CHARGES

@<TRIPOS>ATOM
      1 C1         -0.0187    1.5258    0.0104 C.3       1 <0>        -0.1050
      2 C2          0.0021   -0.0041    0.0020 C.3       1 <0>        -0.1256
      3 C3         -1.4333   -0.5336    0.0129 C.3       1 <0>        -0.0468
      4 H1         -1.9862   -0.1019   -0.8214 H         1 <0>         0.1327
      5 C4         -1.4159   -2.0348   -0.1192 C.2       1 <0>         0.4921
      6 O1         -1.7304   -2.7338    0.8289 O.co2     1 <0>        -0.6808
      7 O2         -1.0874   -2.5501   -1.1742 O.co2     1 <0>        -0.6408
      8 N1         -2.0833   -0.1607    1.2764 N.4       1 <0>        -0.6128
      9 C5          1.4167    2.0553   -0.0004 C.3       1 <0>         0.0578
     10 N2          1.3968    3.5202    0.0076 N.2       1 <0>        -0.6142
     11 C6          2.5556    4.2104    0.0003 C.2       1 <0>         0.5440
     12 N3          3.7327    3.5520   -0.0145 N.pl3     1 <0>        -0.8545
     13 N4          2.5374    5.5571    0.0077 N.2       1 <0>        -0.4280
     14 N5          1.4116    6.1868    0.0218 N.pl3     1 <0>         0.2692
     15 O3          0.2801    5.5129    0.0290 O.2       1 <0>        -0.3868
     16 O4          1.3938    7.5037    0.0290 O.3       1 <0>        -0.4347
     17 H2         -0.5459    1.8868   -0.8726 H         1 <0>         0.0743
     18 H3         -0.5289    1.8773    0.9072 H         1 <0>         0.0541
     19 H4          0.5123   -0.3556   -0.8948 H         1 <0>         0.1045
     20 H5          0.5293   -0.3651    0.8851 H         1 <0>         0.0750
     21 H6         -2.0949    0.8443    1.3648 H         1 <0>         0.4188
     22 H7         -3.0299   -0.5100    1.2835 H         1 <0>         0.4273
     23 H8          1.9439    1.6943    0.8826 H         1 <0>         0.0266
     24 H9          1.9269    1.7038   -0.8972 H         1 <0>         0.0313
     25 H10         3.7459    2.5821   -0.0198 H         1 <0>         0.4001
     26 H11         4.5661    4.0484   -0.0198 H         1 <0>         0.3937
     27 H12        -1.5715   -0.5604    2.0487 H         1 <0>         0.4287
@<TRIPOS>BOND
     1    1    2 1
     2    1    9 1
     3    1   17 1
     4    1   18 1
     5    2    3 1
     6    2   19 1
     7    2   20 1
     8    3    4 1
     9    3    5 1
    10    3    8 1
    11    5    6 2
    12    5    7 1
    13    8   21 1
    14    8   22 1
    15    8   27 1
    16    9   10 1
    17    9   23 1
    18    9   24 1
    19   10   11 1
    20   11   12 1
    21   11   13 2
    22   12   25 1
    23   12   26 1
    24   13   14 1
    25   14   15 2
    26   14   16 1
@<TRIPOS>MOLECULE
ZINC24773728
   40    39     0     0     0
SMALL
USER_CHARGES

@<TRIPOS>ATOM
      1 C1         -0.0117    1.5287   -0.1466 C.3       1 <0>        -0.1482
      2 C2          0.0130    0.0014   -0.2331 C.3       1 <0>        -0.1458
      3 C3         -1.4208   -0.5325   -0.2382 C.3       1 <0>         0.0354
      4 H1         -1.9814   -0.0605   -1.0450 H         1 <0>         0.1594
      5 C4         -1.4002   -2.0476   -0.4499 C.3       1 <0>         0.0315
      6 N1         -2.7658   -2.5767   -0.3355 N.3       1 <0>        -0.6879
      7 C5         -2.7848   -4.0321   -0.5335 C.3       1 <0>         0.0273
      8 C6         -4.2207   -4.5453   -0.4073 C.3       1 <0>        -0.0101
      9 N2         -4.2397   -6.0007   -0.6053 N.4       1 <0>        -0.6360
     10 N3         -2.0618   -0.2264    1.0477 N.4       1 <0>        -0.6435
     11 C7          1.4221    2.0625   -0.1416 C.3       1 <0>         0.1054
     12 N4          1.3984    3.5250   -0.0588 N.pl3     1 <0>        -0.6888
     13 C8          2.5553    4.2182   -0.0399 C.2       1 <0>         0.7115
     14 N5          3.7340    3.5650   -0.0974 N.pl3     1 <0>        -0.8398
     15 N6          2.5335    5.5627    0.0362 N.2       1 <0>        -0.4947
     16 N7          3.6342    6.2311   -0.0411 N.pl3     1 <0>         0.1835
     17 O1          4.0483    6.6853   -1.2058 O.2       1 <0>        -0.2223
     18 O2          4.3437    6.4591    1.0447 O.3       1 <0>        -0.2332
     19 H2         -0.5468    1.9327   -1.0060 H         1 <0>         0.1004
     20 H3         -0.5157    1.8325    0.7708 H         1 <0>         0.0759
     21 H4          0.5171   -0.3025   -1.1506 H         1 <0>         0.1254
     22 H5          0.5481   -0.4026    0.6263 H         1 <0>         0.0997
     23 H6         -1.0060   -2.2706   -1.4413 H         1 <0>         0.1313
     24 H7         -0.7663   -2.5115    0.3059 H         1 <0>         0.0719
     25 H8         -3.1772   -2.3270    0.5514 H         1 <0>         0.3368
     26 H9         -2.4003   -4.2689   -1.5255 H         1 <0>         0.1104
     27 H10        -2.1606   -4.5098    0.2217 H         1 <0>         0.0678
     28 H11        -4.6053   -4.3085    0.5847 H         1 <0>         0.1336
     29 H12        -4.8449   -4.0677   -1.1625 H         1 <0>         0.1474
     30 H13        -5.1866   -6.3391   -0.5221 H         1 <0>         0.4488
     31 H14        -3.8837   -6.2199   -1.5237 H         1 <0>         0.4411
     32 H15        -3.0073   -0.5785    1.0444 H         1 <0>         0.4341
     33 H16        -1.5428   -0.6633    1.7946 H         1 <0>         0.4339
     34 H17         1.9572    1.6586    0.7178 H         1 <0>         0.0848
     35 H18         1.9262    1.7587   -1.0591 H         1 <0>         0.0902
     36 H19         0.5508    3.9948   -0.0175 H         1 <0>         0.4340
     37 H20         3.7538    2.5960   -0.0591 H         1 <0>         0.4165
     38 H21         4.5618    4.0643   -0.1769 H         1 <0>         0.4318
     39 H22        -3.6619   -6.4429    0.0937 H         1 <0>         0.4377
     40 H23        -2.0754    0.7728    1.1873 H         1 <0>         0.4431
@<TRIPOS>BOND
     1    1    2 1
     2    1   11 1
     3    1   19 1
     4    1   20 1
     5    2    3 1
     6    2   21 1
     7    2   22 1
     8    3    4 1
     9    3    5 1
    10    3   10 1
    11    5    6 1
    12    5   23 1
    13    5   24 1
    14    6    7 1
    15    6   25 1
    16    7    8 1
    17    7   26 1
    18    7   27 1
    19    8    9 1
    20    8   28 1
    21    8   29 1
    22    9   30 1
    23    9   31 1
    24    9   39 1
    25   10   32 1
    26   10   33 1
    27   10   40 1
    28   11   12 1
    29   11   34 1
    30   11   35 1
    31   12   13 1
    32   12   36 1
    33   13   14 1
    34   13   15 2
    35   14   37 1
    36   14   38 1
    37   15   16 1
    38   16   17 2
    39   16   18 1
@<TRIPOS>MOLECULE
ZINC24773728
   39    38     0     0     0
SMALL
USER_CHARGES

@<TRIPOS>ATOM
      1 C1         -0.0187    1.5258    0.0104 C.3       1 <0>        -0.1086
      2 C2          0.0021   -0.0041    0.0020 C.3       1 <0>        -0.1468
      3 C3         -1.4333   -0.5336    0.0129 C.3       1 <0>         0.0357
      4 H1         -1.9862   -0.1019   -0.8214 H         1 <0>         0.1556
      5 C4         -1.4157   -2.0577   -0.1212 C.3       1 <0>         0.0340
      6 N1         -2.7838   -2.5766    0.0092 N.3       1 <0>        -0.6881
      7 C5         -2.8057   -4.0402   -0.1146 C.3       1 <0>         0.0276
      8 C6         -4.2440   -4.5424    0.0262 C.3       1 <0>        -0.0103
      9 N2         -4.2660   -6.0060   -0.0976 N.4       1 <0>        -0.6355
     10 N3         -2.0833   -0.1607    1.2764 N.4       1 <0>        -0.6408
     11 C7          1.4167    2.0553   -0.0004 C.3       1 <0>         0.0584
     12 N4          1.3968    3.5202    0.0076 N.2       1 <0>        -0.6320
     13 C8          2.5556    4.2104    0.0003 C.2       1 <0>         0.5601
     14 N5          3.7327    3.5520   -0.0145 N.pl3     1 <0>        -0.8521
     15 N6          2.5374    5.5571    0.0077 N.2       1 <0>        -0.4293
     16 N7          1.4116    6.1868    0.0218 N.pl3     1 <0>         0.2675
     17 O1          0.2801    5.5129    0.0290 O.2       1 <0>        -0.3860
     18 O2          1.3938    7.5037    0.0290 O.3       1 <0>        -0.4138
     19 H2         -0.5459    1.8868   -0.8726 H         1 <0>         0.0816
     20 H3         -0.5289    1.8773    0.9072 H         1 <0>         0.0594
     21 H4          0.5123   -0.3556   -0.8948 H         1 <0>         0.1122
     22 H5          0.5293   -0.3651    0.8851 H         1 <0>         0.0863
     23 H6         -1.0145   -2.3319   -1.0969 H         1 <0>         0.1280
     24 H7         -0.7891   -2.4841    0.6622 H         1 <0>         0.0688
     25 H8         -3.2013   -2.2809    0.8789 H         1 <0>         0.3365
     26 H9         -2.4142   -4.3282   -1.0902 H         1 <0>         0.1084
     27 H10        -2.1888   -4.4804    0.6688 H         1 <0>         0.0652
     28 H11        -4.6356   -4.2544    1.0018 H         1 <0>         0.1334
     29 H12        -4.8609   -4.1022   -0.7572 H         1 <0>         0.1473
     30 H13        -3.9035   -6.2726   -1.0007 H         1 <0>         0.4402
     31 H14        -3.6949   -6.4135    0.6277 H         1 <0>         0.4368
     32 H15        -3.0299   -0.5100    1.2835 H         1 <0>         0.4262
     33 H16        -1.5715   -0.5604    2.0487 H         1 <0>         0.4298
     34 H17         1.9439    1.6943    0.8826 H         1 <0>         0.0234
     35 H18         1.9269    1.7038   -0.8972 H         1 <0>         0.0281
     36 H19         3.7459    2.5821   -0.0198 H         1 <0>         0.3977
     37 H20         4.5661    4.0484   -0.0198 H         1 <0>         0.3991
     38 H21        -2.0949    0.8443    1.3648 H         1 <0>         0.4497
     39 H22        -5.2145   -6.3372   -0.0047 H         1 <0>         0.4465
@<TRIPOS>BOND
     1    1    2 1
     2    1   11 1
     3    1   19 1
     4    1   20 1
     5    2    3 1
     6    2   21 1
     7    2   22 1
     8    3    4 1
     9    3    5 1
    10    3   10 1
    11    5    6 1
    12    5   23 1
    13    5   24 1
    14    6    7 1
    15    6   25 1
    16    7    8 1
    17    7   26 1
    18    7   27 1
    19    8    9 1
    20    8   28 1
    21    8   29 1
    22    9   30 1
    23    9   31 1
    24    9   39 1
    25   10   32 1
    26   10   33 1
    27   10   38 1
    28   11   12 1
    29   11   34 1
    30   11   35 1
    31   12   13 1
    32   13   14 1
    33   13   15 2
    34   14   36 1
    35   14   37 1
    36   15   16 1
    37   16   17 2
    38   16   18 1
@<TRIPOS>MOLECULE
ZINC14007939
   15    16     0     0     0
SMALL
USER_CHARGES
4-bromo-1H-indazole
@<TRIPOS>ATOM
      1 C1          1.1605    1.7763    0.0005 C.ar      1 <0>        -0.0650
      2 C2         -0.0126    1.0758    0.0080 C.ar      1 <0>        -0.1252
      3 C3         -1.2271    1.7570    0.0174 C.ar      1 <0>         0.1347
      4 C4         -1.2305    3.1653    0.0298 C.ar      1 <0>        -0.1642
      5 C5         -2.6317    3.5719    0.0449 C.2       1 <0>         0.0814
      6 N1         -3.3595    2.4918    0.0463 N.2       1 <0>        -0.2398
      7 N2         -2.5385    1.3594    0.0330 N.pl3     1 <0>        -0.5082
      8 H1         -2.8574    0.4116    0.0346 H         1 <0>         0.4499
      9 C6         -0.0156    3.8606    0.0220 C.ar      1 <0>        -0.0139
     10 C7          1.1601    3.1654    0.0075 C.ar      1 <0>        -0.1256
     11 Br1        -0.0020    5.7516    0.0320 Br        1 <0>        -0.0392
     12 H2          2.0998    1.2434   -0.0113 H         1 <0>         0.1413
     13 H3          0.0021   -0.0041    0.0020 H         1 <0>         0.1343
     14 H4         -2.9997    4.5873    0.0534 H         1 <0>         0.2004
     15 H5          2.0981    3.7006    0.0018 H         1 <0>         0.1390
@<TRIPOS>BOND
     1    1   10 ar
     2    1    2 ar
     3    1   12 1
     4    2    3 ar
     5    2   13 1
     6    3    7 1
     7    3    4 ar
     8    4    5 1
     9    4    9 ar
    10    5    6 2
    11    5   14 1
    12    6    7 1
    13    7    8 1
    14    9   10 ar
    15    9   11 1
    16   10   15 1
@<TRIPOS>MOLECULE
ZINC08764137
   15    16     0     0     0
SMALL
USER_CHARGES
6-bromo-1H-indazole
@<TRIPOS>ATOM
      1 C1         -2.9775    3.8248    0.0503 C.ar      1 <0>        -0.1363
      2 C2         -1.6454    4.1203    0.0396 C.ar      1 <0>        -0.0290
      3 C3         -0.7040    3.0856    0.0254 C.ar      1 <0>        -0.1717
      4 C4          0.7549    3.0437    0.0112 C.2       1 <0>         0.0775
      5 N1          1.1170    1.7927    0.0010 N.2       1 <0>        -0.2408
      6 N2         -0.0111    0.9658    0.0074 N.pl3     1 <0>        -0.5091
      7 H1          0.0025   -0.0341    0.0057 H         1 <0>         0.4493
      8 C5         -1.1380    1.7457    0.0163 C.ar      1 <0>         0.1319
      9 C6         -2.5024    1.4680    0.0339 C.ar      1 <0>        -0.1126
     10 C7         -3.4100    2.5035    0.0477 C.ar      1 <0>        -0.0404
     11 Br1        -5.2626    2.1247    0.0628 Br        1 <0>        -0.0373
     12 H2         -3.7028    4.6250    0.0612 H         1 <0>         0.1388
     13 H3         -1.3189    5.1498    0.0417 H         1 <0>         0.1401
     14 H4          1.4161    3.8976    0.0095 H         1 <0>         0.2020
     15 H5         -2.8475    0.4446    0.0324 H         1 <0>         0.1375
@<TRIPOS>BOND
     1    1   10 ar
     2    1    2 ar
     3    1   12 1
     4    2    3 ar
     5    2   13 1
     6    3    8 ar
     7    3    4 1
     8    4    5 2
     9    4   14 1
    10    5    6 1
    11    6    7 1
    12    6    8 1
    13    8    9 ar
    14    9   10 ar
    15    9   15 1
    16   10   11 1
@<TRIPOS>MOLECULE
ZINC12336533
   15    16     0     0     0
SMALL
USER_CHARGES
7-chloro-1H-indazole
@<TRIPOS>ATOM
      1 C1          1.1586    1.7762    0.0005 C.ar      1 <0>        -0.1505
      2 C2         -0.0126    1.0758    0.0080 C.ar      1 <0>        -0.0307
      3 C3         -1.2325    1.7610    0.0174 C.ar      1 <0>        -0.1731
      4 C4         -2.6301    1.3407    0.0339 C.2       1 <0>         0.0801
      5 N1         -3.3683    2.4136    0.0467 N.2       1 <0>        -0.2412
      6 N2         -2.5584    3.5540    0.0450 N.pl3     1 <0>        -0.5056
      7 H1         -2.8864    4.4986    0.0531 H         1 <0>         0.4495
      8 C5         -1.2430    3.1689    0.0304 C.ar      1 <0>         0.1365
      9 C6         -0.0344    3.8629    0.0226 C.ar      1 <0>        -0.0642
     10 C7          1.1530    3.1655    0.0076 C.ar      1 <0>        -0.0554
     11 Cl1        -0.0259    5.5988    0.0324 Cl        1 <0>        -0.0663
     12 H2          2.0990    1.2453   -0.0113 H         1 <0>         0.1389
     13 H3          0.0021   -0.0041    0.0020 H         1 <0>         0.1373
     14 H4         -2.9883    0.3219    0.0318 H         1 <0>         0.2030
     15 H5          2.0892    3.7040    0.0015 H         1 <0>         0.1419
@<TRIPOS>BOND
     1    1   10 ar
     2    1    2 ar
     3    1   12 1
     4    2    3 ar
     5    2   13 1
     6    3    8 ar
     7    3    4 1
     8    4    5 2
     9    4   14 1
    10    5    6 1
    11    6    7 1
    12    6    8 1
    13    8    9 ar
    14    9   10 ar
    15    9   11 1
    16   10   15 1
@<TRIPOS>MOLECULE
ZINC13454194
   17    18     0     0     0
SMALL
USER_CHARGES

@<TRIPOS>ATOM
      1 C1         -0.0168    1.3850    0.0097 C.ar      1 <0>        -0.1666
      2 C2         -1.2006    2.0644    0.0189 C.ar      1 <0>         0.0241
      3 C3         -2.4059    1.3541    0.0208 C.ar      1 <0>        -0.1862
      4 C4         -3.8125    1.7428    0.0295 C.2       1 <0>         0.0945
      5 N1         -4.5264    0.6535    0.0270 N.2       1 <0>        -0.2351
      6 H1         -3.9888   -1.3916    0.0128 H         1 <0>         0.4549
      7 N2         -3.6911   -0.4684    0.0170 N.pl3     1 <0>        -0.4844
      8 C5         -2.3847   -0.0542    0.0130 C.ar      1 <0>         0.1746
      9 C6         -1.1617   -0.7198    0.0037 C.ar      1 <0>        -0.0766
     10 C7          0.0021   -0.0041    0.0020 C.ar      1 <0>         0.0103
     11 N3         -1.1225   -2.1994   -0.0048 N.pl3     1 <0>         0.0435
     12 O1         -0.0599   -2.7759   -0.0129 O.2       1 <0>        -0.1481
     13 O2         -2.1532   -2.8314   -0.0035 O.3       1 <0>        -0.1865
     14 H2          0.9141    1.9326    0.0037 H         1 <0>         0.1549
     15 H3         -1.2069    3.1444    0.0252 H         1 <0>         0.1523
     16 H4         -4.1935    2.7534    0.0373 H         1 <0>         0.2117
     17 H5          0.9483   -0.5246   -0.0098 H         1 <0>         0.1626
@<TRIPOS>BOND
     1    1   10 ar
     2    1   14 1
     3    1    2 ar
     4    2   15 1
     5    2    3 ar
     6    3    8 ar
     7    3    4 1
     8    4    5 2
     9    4   16 1
    10    5    7 1
    11    6    7 1
    12    7    8 1
    13    8    9 ar
    14    9   11 1
    15    9   10 ar
    16   10   17 1
    17   11   12 2
    18   11   13 1
@<TRIPOS>MOLECULE
ZINC13776735
   21    21     0     0     0
SMALL
USER_CHARGES
(6R)-6-methyl-3,4,5,6-tetrahydropyridin-2-amine
@<TRIPOS>ATOM
      1 C1         -0.7415    2.0137    1.2675 C.3       1 <0>        -0.1745
      2 C2         -0.0187    1.5255    0.0104 C.3       1 <0>         0.1164
      3 H1         -0.5018    1.9033   -0.9028 H         1 <0>         0.1134
      4 C3          0.0021   -0.0041    0.0020 C.3       1 <0>        -0.1490
      5 C4          0.9404   -0.4703   -1.1191 C.3       1 <0>        -0.1334
      6 C5          2.3661   -0.0458   -0.7561 C.3       1 <0>        -0.1210
      7 C6          2.3784    1.3942   -0.3323 C.cat     1 <0>         0.5357
      8 N1          1.3386    2.0545    0.0003 N.pl3     1 <0>        -0.6257
      9 N2          3.5852    2.0418   -0.3004 N.pl3     1 <0>        -0.8361
     10 H2         -1.7671    1.6161    1.2785 H         1 <0>         0.0987
     11 H3         -0.7745    3.1132    1.2678 H         1 <0>         0.0755
     12 H4         -0.2026    1.6628    2.1599 H         1 <0>         0.0742
     13 H5          0.3652   -0.3712    0.9733 H         1 <0>         0.0882
     14 H6         -1.0148   -0.3837   -0.1765 H         1 <0>         0.1114
     15 H7          0.8839   -1.5648   -1.2131 H         1 <0>         0.1075
     16 H8          0.6372   -0.0047   -2.0684 H         1 <0>         0.0861
     17 H9          2.7353   -0.6704    0.0707 H         1 <0>         0.1337
     18 H10         3.0203   -0.1719   -1.6314 H         1 <0>         0.1300
     19 H11         3.6350    3.0974    0.0049 H         1 <0>         0.4483
     20 H12         4.5044    1.5062   -0.5801 H         1 <0>         0.4695
     21 H13         1.4304    3.1062    0.3093 H         1 <0>         0.4512
@<TRIPOS>BOND
     1    1    2 1
     2    1   10 1
     3    1   11 1
     4    1   12 1
     5    2    3 1
     6    2    8 1
     7    2    4 1
     8    4    5 1
     9    4   13 1
    10    4   14 1
    11    5    6 1
    12    5   15 1
    13    5   16 1
    14    6    7 1
    15    6   17 1
    16    6   18 1
    17    7    8 2
    18    7    9 1
    19    8   21 1
    20    9   19 1
    21    9   20 1
@<TRIPOS>MOLECULE
ZINC13776737
   21    21     0     0     0
SMALL
USER_CHARGES
(6S)-6-methyl-3,4,5,6-tetrahydropyridin-2-amine
@<TRIPOS>ATOM
      1 C1         -4.1893    1.7285   -0.3600 C.3       1 <0>        -0.1745
      2 C2         -2.7641    2.1688   -0.0196 C.3       1 <0>         0.1164
      3 H1         -2.7294    3.2302    0.2672 H         1 <0>         0.1134
      4 C3         -2.2244    1.2978    1.1162 C.3       1 <0>        -0.1488
      5 C4         -0.7258    1.5778    1.2706 C.3       1 <0>        -0.1336
      6 C5         -0.0127    1.0858    0.0080 C.3       1 <0>        -0.1210
      7 C6         -0.7352    1.5813   -1.2109 C.cat     1 <0>         0.5357
      8 N1         -1.9256    2.0405   -1.2040 N.pl3     1 <0>        -0.6257
      9 N2         -0.0732    1.5373   -2.4095 N.pl3     1 <0>        -0.8361
     10 H2         -4.8255    1.8240    0.5322 H         1 <0>         0.0987
     11 H3         -4.1795    0.6801   -0.6928 H         1 <0>         0.0742
     12 H4         -4.5874    2.3648   -1.1641 H         1 <0>         0.0755
     13 H5         -2.7514    1.5446    2.0497 H         1 <0>         0.1115
     14 H6         -2.3859    0.2371    0.8734 H         1 <0>         0.0882
     15 H7         -0.5659    2.6587    1.3974 H         1 <0>         0.0860
     16 H8         -0.3421    1.0445    2.1528 H         1 <0>         0.1074
     17 H9          1.0195    1.4659   -0.0018 H         1 <0>         0.1301
     18 H10         0.0015   -0.0141   -0.0001 H         1 <0>         0.1337
     19 H11        -0.5693    1.8915   -3.3252 H         1 <0>         0.4483
     20 H12         0.9545    1.1478   -2.4562 H         1 <0>         0.4695
     21 H13        -2.3912    2.3758   -2.1425 H         1 <0>         0.4512
@<TRIPOS>BOND
     1    1    2 1
     2    1   10 1
     3    1   11 1
     4    1   12 1
     5    2    3 1
     6    2    8 1
     7    2    4 1
     8    4    5 1
     9    4   13 1
    10    4   14 1
    11    5    6 1
    12    5   15 1
    13    5   16 1
    14    6    7 1
    15    6   17 1
    16    6   18 1
    17    7    8 2
    18    7    9 1
    19    8   21 1
    20    9   19 1
    21    9   20 1
@<TRIPOS>MOLECULE
ZINC13776730
   21    21     0     0     0
SMALL
USER_CHARGES
(3R)-3-methyl-3,4,5,6-tetrahydropyridin-2-amine
@<TRIPOS>ATOM
      1 C1         -0.2494    0.8801   -2.4706 C.3       1 <0>        -0.1580
      2 C2         -0.7655    1.5991   -1.2226 C.3       1 <0>        -0.0841
      3 H1         -0.6197    2.6849   -1.3212 H         1 <0>         0.1358
      4 C3         -0.0127    1.0858    0.0080 C.3       1 <0>        -0.1310
      5 C4         -0.7434    1.5869    1.2609 C.3       1 <0>        -0.1528
      6 C5         -2.1195    0.9193    1.3168 C.3       1 <0>         0.0816
      7 N1         -2.8028    1.0486    0.0367 N.pl3     1 <0>        -0.6257
      8 C6         -2.2353    1.3353   -1.0694 C.cat     1 <0>         0.5367
      9 N2         -3.0189    1.4077   -2.1909 N.pl3     1 <0>        -0.8331
     10 H2          0.8277    1.0719   -2.5851 H         1 <0>         0.0961
     11 H3         -0.7845    1.2532   -3.3563 H         1 <0>         0.0700
     12 H4         -0.4203   -0.2016   -2.3676 H         1 <0>         0.0745
     13 H5          0.0045   -0.0140   -0.0050 H         1 <0>         0.0869
     14 H6          1.0184    1.4688   -0.0067 H         1 <0>         0.1067
     15 H7         -0.1604    1.3229    2.1556 H         1 <0>         0.1128
     16 H8         -0.8571    2.6797    1.2066 H         1 <0>         0.0871
     17 H9         -1.9996   -0.1487    1.5511 H         1 <0>         0.1088
     18 H10        -2.7287    1.3996    2.0967 H         1 <0>         0.1174
     19 H11        -4.1005    1.2208   -2.1191 H         1 <0>         0.4484
     20 H12        -2.5664    1.6527   -3.1631 H         1 <0>         0.4676
     21 H13        -3.8891    0.8785    0.0697 H         1 <0>         0.4543
@<TRIPOS>BOND
     1    1    2 1
     2    1   10 1
     3    1   11 1
     4    1   12 1
     5    2    3 1
     6    2    8 1
     7    2    4 1
     8    4    5 1
     9    4   13 1
    10    4   14 1
    11    5    6 1
    12    5   15 1
    13    5   16 1
    14    6    7 1
    15    6   17 1
    16    6   18 1
    17    7    8 2
    18    7   21 1
    19    8    9 1
    20    9   19 1
    21    9   20 1
@<TRIPOS>MOLECULE
ZINC13776732
   21    21     0     0     0
SMALL
USER_CHARGES
(3S)-3-methyl-3,4,5,6-tetrahydropyridin-2-amine
@<TRIPOS>ATOM
      1 C1          2.8385   -0.9436   -1.9754 C.3       1 <0>        -0.1580
      2 C2          2.3337   -0.1682   -0.7569 C.3       1 <0>        -0.0842
      3 H1          3.0356   -0.2793    0.0827 H         1 <0>         0.1358
      4 C3          2.1909    1.3121   -1.1218 C.3       1 <0>        -0.1309
      5 C4          1.4076    2.0081   -0.0006 C.3       1 <0>        -0.1530
      6 C5         -0.0177    1.4526    0.0100 C.3       1 <0>         0.0818
      7 N1          0.0021   -0.0041    0.0020 N.pl3     1 <0>        -0.6257
      8 C6          1.0044   -0.7200   -0.3305 C.cat     1 <0>         0.5367
      9 N2          0.8578   -2.0817   -0.2965 N.pl3     1 <0>        -0.8330
     10 H2          3.8127   -0.5402   -2.2889 H         1 <0>         0.0961
     11 H3          2.1170   -0.8417   -2.7995 H         1 <0>         0.0745
     12 H4          2.9487   -2.0063   -1.7138 H         1 <0>         0.0700
     13 H5          3.1892    1.7630   -1.2220 H         1 <0>         0.1067
     14 H6          1.6496    1.4042   -2.0750 H         1 <0>         0.0870
     15 H7          1.8957    1.8101    0.9651 H         1 <0>         0.0871
     16 H8          1.3874    3.0922   -0.1858 H         1 <0>         0.1127
     17 H9         -0.5390    1.7978    0.9150 H         1 <0>         0.1174
     18 H10        -0.5562    1.8074   -0.8811 H         1 <0>         0.1088
     19 H11        -0.1013   -2.5241    0.0107 H         1 <0>         0.4484
     20 H12         1.6992   -2.7326   -0.5764 H         1 <0>         0.4676
     21 H13        -0.9377   -0.4840    0.3126 H         1 <0>         0.4543
@<TRIPOS>BOND
     1    1    2 1
     2    1   10 1
     3    1   11 1
     4    1   12 1
     5    2    3 1
     6    2    8 1
     7    2    4 1
     8    4    5 1
     9    4   13 1
    10    4   14 1
    11    5    6 1
    12    5   15 1
    13    5   16 1
    14    6    7 1
    15    6   17 1
    16    6   18 1
    17    7    8 2
    18    7   21 1
    19    8    9 1
    20    9   19 1
    21    9   20 1
@<TRIPOS>MOLECULE
ZINC02141055
   18    18     0     0     0
SMALL
USER_CHARGES

@<TRIPOS>ATOM
      1 C1         -0.0187    1.5287    0.0104 C.3       1 <0>        -0.1250
      2 C2          1.4193    2.0538   -0.0005 C.3       1 <0>        -0.1549
      3 C3          2.1181    1.6037   -1.2870 C.3       1 <0>         0.1091
      4 N1          2.0558    0.1366   -1.3716 N.pl3     1 <0>        -0.7233
      5 C4          0.8280   -0.4643   -1.1803 C.cat     1 <0>         0.5604
      6 N2          0.3997   -1.3856   -1.9804 N.pl3     1 <0>        -0.7013
      7 C5          0.0021   -0.0041    0.0020 C.3       1 <0>        -0.1259
      8 H1         -0.5279    1.8809    0.9076 H         1 <0>         0.1050
      9 H2         -0.5449    1.8904   -0.8730 H         1 <0>         0.0836
     10 H3          1.4087    3.1428    0.0453 H         1 <0>         0.1043
     11 H4          1.9566    1.6593    0.8619 H         1 <0>         0.0868
     12 H5          1.6140    2.0411   -2.1488 H         1 <0>         0.0910
     13 H6          3.1596    1.9248   -1.2686 H         1 <0>         0.1146
     14 H7          2.8495   -0.3900   -1.5549 H         1 <0>         0.4325
     15 H8          0.9443   -1.6667   -2.7323 H         1 <0>         0.4339
     16 H9          0.4487   -0.3702    0.9265 H         1 <0>         0.1408
     17 H10        -1.0152   -0.3844   -0.0906 H         1 <0>         0.1193
     18 H11        -0.4663   -1.7955   -1.8287 H         1 <0>         0.4491
@<TRIPOS>BOND
     1    1    7 1
     2    1    2 1
     3    1    8 1
     4    1    9 1
     5    2    3 1
     6    2   10 1
     7    2   11 1
     8    3    4 1
     9    3   12 1
    10    3   13 1
    11    4    5 1
    12    4   14 1
    13    5    6 2
    14    5    7 1
    15    6   15 1
    16    6   18 1
    17    7   16 1
    18    7   17 1
@<TRIPOS>MOLECULE
ZINC06266252
   24    24     0     0     0
SMALL
USER_CHARGES
4,6-dimethyl-3,4,5,6-tetrahydropyridin-2-amine
@<TRIPOS>ATOM
      1 C1         -2.9264    1.6016    2.4589 C.3       1 <0>        -0.1541
      2 C2         -2.2143    1.2579    1.1491 C.3       1 <0>        -0.0973
      3 H1         -2.3496    0.2002    0.9234 H         1 <0>         0.0952
      4 C3         -0.7186    1.5741    1.2742 C.3       1 <0>        -0.1379
      5 C4         -0.0127    1.0858    0.0080 C.3       1 <0>         0.1192
      6 H2          0.0021   -0.0041    0.0020 H         1 <0>         0.1155
      7 C5         -1.9057    2.0025   -1.1990 C.cat     1 <0>         0.5391
      8 C6         -2.7879    2.1066    0.0109 C.3       1 <0>        -0.1098
      9 N1         -2.4207    2.4045   -2.4032 N.pl3     1 <0>        -0.8042
     10 C7          1.4246    1.6102   -0.0029 C.3       1 <0>        -0.1775
     11 H3         -3.9922    1.3968    2.3576 H         1 <0>         0.0701
     12 H4         -2.5151    0.9954    3.2660 H         1 <0>         0.0748
     13 H5         -2.7793    2.6574    2.6863 H         1 <0>         0.0668
     14 H6         -0.3077    1.0618    2.1442 H         1 <0>         0.1165
     15 H7         -0.5783    2.6498    1.3810 H         1 <0>         0.0898
     16 H8         -2.8449    3.1477    0.3289 H         1 <0>         0.1406
     17 H9         -3.7870    1.7488   -0.2376 H         1 <0>         0.1358
     18 H10        -1.8778    2.3503   -3.2053 H         1 <0>         0.4242
     19 H11        -3.3282    2.7433   -2.4538 H         1 <0>         0.4384
     20 H12         1.4137    2.7002    0.0031 H         1 <0>         0.0733
     21 H13         1.9505    1.2473    0.8802 H         1 <0>         0.0968
     22 H14         1.9335    1.2568   -0.8997 H         1 <0>         0.0739
     23 N2         -0.6584    1.5632   -1.2716 N.pl3     1 <0>        -0.6386
     24 H15        -0.1498    1.5477   -2.1634 H         1 <0>         0.4494
@<TRIPOS>BOND
     1    1    2 1
     2    1   11 1
     3    1   12 1
     4    1   13 1
     5    2    3 1
     6    2    8 1
     7    2    4 1
     8    4    5 1
     9    4   14 1
    10    4   15 1
    11    5    6 1
    12    5   10 1
    13    5   23 1
    14    7    8 1
    15    7    9 1
    16    7   23 2
    17    8   16 1
    18    8   17 1
    19    9   18 1
    20    9   19 1
    21   10   20 1
    22   10   21 1
    23   10   22 1
    24   23   24 1
@<TRIPOS>MOLECULE
ZINC06268312
   24    24     0     0     0
SMALL
USER_CHARGES
4,6-dimethyl-3,4,5,6-tetrahydropyridin-2-amine
@<TRIPOS>ATOM
      1 C1          0.8717   -1.9931   -1.2499 C.3       1 <0>        -0.1539
      2 C2          0.9404   -0.4703   -1.1191 C.3       1 <0>        -0.0989
      3 H1          0.6471   -0.0066   -2.0609 H         1 <0>         0.0966
      4 C3          0.0021   -0.0041    0.0020 C.3       1 <0>        -0.1376
      5 C4         -0.0187    1.5255    0.0104 C.3       1 <0>         0.1188
      6 H2         -0.5336    1.8733    0.9060 H         1 <0>         0.1178
      7 C5          2.3784    1.3942   -0.3323 C.cat     1 <0>         0.5397
      8 C6          2.3661   -0.0458   -0.7561 C.3       1 <0>        -0.1098
      9 N1          3.5852    2.0418   -0.3004 N.pl3     1 <0>        -0.8040
     10 C7         -0.7653    2.0271   -1.2272 C.3       1 <0>        -0.1775
     11 H3         -0.1496   -2.2918   -1.4863 H         1 <0>         0.0747
     12 H4          1.5395   -2.3198   -2.0471 H         1 <0>         0.0698
     13 H5          1.1762   -2.4527   -0.3097 H         1 <0>         0.0667
     14 H6          0.3659   -0.3714    0.9616 H         1 <0>         0.0894
     15 H7         -1.0034   -0.3837   -0.1794 H         1 <0>         0.1167
     16 H8          2.7318   -0.6669    0.0615 H         1 <0>         0.1409
     17 H9          3.0138   -0.1733   -1.6235 H         1 <0>         0.1357
     18 H10         4.3958    1.5695   -0.5472 H         1 <0>         0.4384
     19 H11         3.6292    2.9727   -0.0312 H         1 <0>         0.4243
     20 H12        -1.7871    1.6480   -1.2136 H         1 <0>         0.0961
     21 H13        -0.7821    3.1170   -1.2246 H         1 <0>         0.0727
     22 H14        -0.2586    1.6737   -2.1253 H         1 <0>         0.0717
     23 N2          1.3552    2.1537    0.0284 N.pl3     1 <0>        -0.6387
     24 H15         1.4904    3.1319    0.3096 H         1 <0>         0.4503
@<TRIPOS>BOND
     1    1    2 1
     2    1   11 1
     3    1   12 1
     4    1   13 1
     5    2    3 1
     6    2    8 1
     7    2    4 1
     8    4    5 1
     9    4   14 1
    10    4   15 1
    11    5    6 1
    12    5   10 1
    13    5   23 1
    14    7    8 1
    15    7    9 1
    16    7   23 2
    17    8   16 1
    18    8   17 1
    19    9   18 1
    20    9   19 1
    21   10   20 1
    22   10   21 1
    23   10   22 1
    24   23   24 1
@<TRIPOS>MOLECULE
ZINC06268382
   24    24     0     0     0
SMALL
USER_CHARGES
4,6-dimethyl-3,4,5,6-tetrahydropyridin-2-amine
@<TRIPOS>ATOM
      1 C1         -2.8076   -2.6233    0.1051 C.3       1 <0>        -0.1541
      2 C2         -1.3990   -2.0427    0.2457 C.3       1 <0>        -0.0973
      3 H1         -0.7323   -2.5166   -0.4747 H         1 <0>         0.0952
      4 C3         -1.4350   -0.5284    0.0004 C.3       1 <0>        -0.1379
      5 C4          0.0021   -0.0041    0.0020 C.3       1 <0>         0.1191
      6 H2          0.5129   -0.3519   -0.8959 H         1 <0>         0.1155
      7 C5          0.3557   -1.4658    1.9044 C.cat     1 <0>         0.5391
      8 C6         -0.8803   -2.2835    1.6661 C.3       1 <0>        -0.1098
      9 N1          1.1472   -1.7983    2.9720 N.pl3     1 <0>        -0.8041
     10 C7         -0.0187    1.5258    0.0104 C.3       1 <0>        -0.1775
     11 H3         -3.4732   -2.1389    0.8195 H         1 <0>         0.0668
     12 H4         -3.1728   -2.4496   -0.9072 H         1 <0>         0.0748
     13 H5         -2.7803   -3.6948    0.3026 H         1 <0>         0.0701
     14 H6         -2.0043   -0.0411    0.7920 H         1 <0>         0.0898
     15 H7         -1.8989   -0.3245   -0.9647 H         1 <0>         0.1166
     16 H8         -0.6448   -3.3404    1.7912 H         1 <0>         0.1358
     17 H9         -1.6479   -1.9974    2.3852 H         1 <0>         0.1405
     18 H10         1.9535   -1.2909    3.1546 H         1 <0>         0.4242
     19 H11         0.9014   -2.5412    3.5452 H         1 <0>         0.4384
     20 H12         1.0039    1.9031    0.0027 H         1 <0>         0.0739
     21 H13        -0.5459    1.8868   -0.8726 H         1 <0>         0.0967
     22 H14        -0.5289    1.8773    0.9072 H         1 <0>         0.0733
     23 N2          0.8056   -0.4336    1.2071 N.pl3     1 <0>        -0.6386
     24 H15         1.6674    0.0559    1.4752 H         1 <0>         0.4494
@<TRIPOS>BOND
     1    1    2 1
     2    1   11 1
     3    1   12 1
     4    1   13 1
     5    2    3 1
     6    2    8 1
     7    2    4 1
     8    4    5 1
     9    4   14 1
    10    4   15 1
    11    5    6 1
    12    5   10 1
    13    5   23 1
    14    7    8 1
    15    7    9 1
    16    7   23 2
    17    8   16 1
    18    8   17 1
    19    9   18 1
    20    9   19 1
    21   10   20 1
    22   10   21 1
    23   10   22 1
    24   23   24 1
@<TRIPOS>MOLECULE
ZINC25968090
   24    24     0     0     0
SMALL
USER_CHARGES
(4R,6R)-4,6-dimethyl-3,4,5,6-tetrahydropyridin-2-amine
@<TRIPOS>ATOM
      1 C1         -0.7650    1.5986   -1.2216 C.3       1 <0>        -0.1559
      2 C2         -0.0127    1.0858    0.0080 C.3       1 <0>        -0.0993
      3 H1         -0.0077   -0.0139   -0.0173 H         1 <0>         0.0949
      4 C3         -0.7017    1.5873    1.2841 C.3       1 <0>        -0.1448
      5 C4         -0.0166    0.9409    2.4895 C.3       1 <0>         0.1187
      6 H2         -0.3194    1.4500    3.4164 H         1 <0>         0.1220
      7 N1          1.4293    1.0926    2.3970 N.pl3     1 <0>        -0.6251
      8 C5          2.0676    1.3805    1.3304 C.cat     1 <0>         0.5371
      9 C6          1.4215    1.6221   -0.0028 C.3       1 <0>        -0.1196
     10 N2          3.4321    1.4758    1.4071 N.pl3     1 <0>        -0.8358
     11 C7         -0.3666   -0.5480    2.5298 C.3       1 <0>        -0.1770
     12 H3         -1.7944    1.2110   -1.2097 H         1 <0>         0.0739
     13 H4         -0.2544    1.2552   -2.1334 H         1 <0>         0.0694
     14 H5         -0.7870    2.6983   -1.2057 H         1 <0>         0.0656
     15 H6         -0.6122    2.6821    1.3431 H         1 <0>         0.0878
     16 H7         -1.7652    1.3071    1.2610 H         1 <0>         0.1118
     17 H8          1.9995    1.1075   -0.7845 H         1 <0>         0.1297
     18 H9          1.4074    2.7026   -0.2086 H         1 <0>         0.1345
     19 H10         4.0176    1.7222    0.5090 H         1 <0>         0.4693
     20 H11         3.9422    1.3060    2.3667 H         1 <0>         0.4485
     21 H12         0.1243   -1.0167    3.3955 H         1 <0>         0.0735
     22 H13        -0.0190   -1.0315    1.6049 H         1 <0>         0.0719
     23 H14        -1.4567   -0.6661    2.6180 H         1 <0>         0.0959
     24 H15         1.9747    0.9392    3.3399 H         1 <0>         0.4530
@<TRIPOS>BOND
     1    1    2 1
     2    1   12 1
     3    1   13 1
     4    1   14 1
     5    2    3 1
     6    2    9 1
     7    2    4 1
     8    4    5 1
     9    4   15 1
    10    4   16 1
    11    5    6 1
    12    5    7 1
    13    5   11 1
    14    7    8 2
    15    7   24 1
    16    8    9 1
    17    8   10 1
    18    9   17 1
    19    9   18 1
    20   10   19 1
    21   10   20 1
    22   11   21 1
    23   11   22 1
    24   11   23 1
@<TRIPOS>MOLECULE
ZINC13776733
   21    21     0     0     0
SMALL
USER_CHARGES
(5R)-5-methyl-3,4,5,6-tetrahydropyridin-2-amine
@<TRIPOS>ATOM
      1 C1         -0.1053    0.9739    2.5091 C.3       1 <0>        -0.1543
      2 C2         -0.7434    1.5869    1.2609 C.3       1 <0>        -0.1181
      3 H1         -1.8035    1.2955    1.2260 H         1 <0>         0.0939
      4 C3         -0.0127    1.0858    0.0080 C.3       1 <0>        -0.1303
      5 C4         -0.7655    1.5991   -1.2226 C.3       1 <0>        -0.1209
      6 C5         -1.0538    3.0645   -1.0709 C.cat     1 <0>         0.5358
      7 N1         -0.9912    3.6989    0.0342 N.pl3     1 <0>        -0.6258
      8 C6         -0.6213    3.1108    1.3147 C.3       1 <0>         0.0839
      9 N2         -1.4069    3.7668   -2.1930 N.pl3     1 <0>        -0.8351
     10 H2         -0.1952   -0.1216    2.4665 H         1 <0>         0.0760
     11 H3         -0.6197    1.3494    3.4059 H         1 <0>         0.0699
     12 H4          0.9578    1.2532    2.5522 H         1 <0>         0.0669
     13 H5          1.0185    1.4687    0.0072 H         1 <0>         0.0866
     14 H6          0.0046   -0.0141    0.0089 H         1 <0>         0.1072
     15 H7         -0.1504    1.4415   -2.1208 H         1 <0>         0.1306
     16 H8         -1.7139    1.0517   -1.3270 H         1 <0>         0.1341
     17 H9         -1.2894    3.5048    2.0947 H         1 <0>         0.1169
     18 H10         0.4175    3.3874    1.5477 H         1 <0>         0.1091
     19 H11        -1.6259    4.8425   -2.1224 H         1 <0>         0.4488
     20 H12        -1.4714    3.2550   -3.1645 H         1 <0>         0.4701
     21 H13        -1.2267    4.7729    0.0659 H         1 <0>         0.4547
@<TRIPOS>BOND
     1    1    2 1
     2    1   10 1
     3    1   11 1
     4    1   12 1
     5    2    3 1
     6    2    8 1
     7    2    4 1
     8    4    5 1
     9    4   13 1
    10    4   14 1
    11    5    6 1
    12    5   15 1
    13    5   16 1
    14    6    7 2
    15    6    9 1
    16    7    8 1
    17    7   21 1
    18    8   17 1
    19    8   18 1
    20    9   19 1
    21    9   20 1
@<TRIPOS>MOLECULE
ZINC13776734
   21    21     0     0     0
SMALL
USER_CHARGES
(5S)-5-methyl-3,4,5,6-tetrahydropyridin-2-amine
@<TRIPOS>ATOM
      1 C1         -0.1893    0.8818   -2.4788 C.3       1 <0>        -0.1543
      2 C2         -0.7426    1.5876   -1.2392 C.3       1 <0>        -0.1182
      3 H1         -0.5930    2.6715   -1.3523 H         1 <0>         0.0939
      4 C3         -2.2363    1.2704   -1.0877 C.3       1 <0>        -0.1302
      5 C4         -2.7871    2.1068    0.0706 C.3       1 <0>        -0.1210
      6 C5         -1.8814    1.9892    1.2619 C.cat     1 <0>         0.5359
      7 N1         -0.6849    1.5508    1.2139 N.pl3     1 <0>        -0.6256
      8 C6         -0.0127    1.0858    0.0080 C.3       1 <0>         0.0838
      9 N2         -2.3726    2.3783    2.4802 N.pl3     1 <0>        -0.8352
     10 H2         -0.7163    1.2450   -3.3734 H         1 <0>         0.0760
     11 H3         -0.3391   -0.2035   -2.3803 H         1 <0>         0.0669
     12 H4          0.8854    1.0965   -2.5739 H         1 <0>         0.0699
     13 H5         -2.7614    1.5238   -2.0205 H         1 <0>         0.1072
     14 H6         -2.3638    0.1988   -0.8747 H         1 <0>         0.0866
     15 H7         -2.8486    3.1615   -0.2356 H         1 <0>         0.1340
     16 H8         -3.7900    1.7442    0.3402 H         1 <0>         0.1306
     17 H9          0.0003   -0.0141    0.0076 H         1 <0>         0.1092
     18 H10         1.0200    1.4646    0.0058 H         1 <0>         0.1170
     19 H11        -1.7393    2.3071    3.3768 H         1 <0>         0.4488
     20 H12        -3.4003    2.7619    2.5618 H         1 <0>         0.4701
     21 H13        -0.0793    1.5035    2.1309 H         1 <0>         0.4546
@<TRIPOS>BOND
     1    1    2 1
     2    1   10 1
     3    1   11 1
     4    1   12 1
     5    2    3 1
     6    2    8 1
     7    2    4 1
     8    4    5 1
     9    4   13 1
    10    4   14 1
    11    5    6 1
    12    5   15 1
    13    5   16 1
    14    6    7 2
    15    6    9 1
    16    7    8 1
    17    7   21 1
    18    8   17 1
    19    8   18 1
    20    9   19 1
    21    9   20 1
@<TRIPOS>MOLECULE
ZINC22779407
   41    42     0     0     0
SMALL
USER_CHARGES
N-[(5-chloro-2-nitro-phenyl)methyl]-N,1-dimethyl-piperidin-4-amine
@<TRIPOS>ATOM
      1 C1         -7.7433    6.8744    2.6007 C.3       1 <0>        -0.0458
      2 N1         -6.4207    6.2519    2.4550 N.4       1 <0>        -0.4003
      3 C2         -6.4501    4.8475    2.8829 C.3       1 <0>        -0.0025
      4 C3         -5.0312    4.2748    2.8557 C.3       1 <0>        -0.1412
      5 C4         -4.4693    4.3834    1.4355 C.3       1 <0>         0.0767
      6 C5         -4.4947    5.8499    0.9957 C.3       1 <0>        -0.1890
      7 C6         -5.9292    6.3769    1.0769 C.3       1 <0>         0.0023
      8 N2         -3.0862    3.8888    1.4155 N.3       1 <0>        -0.5151
      9 C7         -2.2286    4.6879    2.3009 C.3       1 <0>        -0.0013
     10 C8         -2.5545    3.8674    0.0463 C.3       1 <0>         0.0742
     11 C9         -1.2388    3.1326    0.0298 C.ar      1 <0>        -0.0097
     12 C10        -0.0518    3.8410    0.0223 C.ar      1 <0>        -0.1106
     13 C11         1.1558    3.1665    0.0076 C.ar      1 <0>         0.0112
     14 C12         1.1747    1.7828    0.0004 C.ar      1 <0>        -0.1043
     15 C13        -0.0126    1.0758    0.0080 C.ar      1 <0>        -0.0388
     16 C14        -1.2193    1.7507    0.0173 C.ar      1 <0>        -0.0248
     17 N3         -2.4907    0.9929    0.0192 N.pl3     1 <0>         0.0341
     18 O1         -2.4737   -0.2250    0.0125 O.2       1 <0>        -0.1622
     19 O2         -3.5538    1.5871    0.0275 O.3       1 <0>        -0.1405
     20 Cl1         2.6469    4.0553   -0.0025 Cl        1 <0>        -0.0272
     21 H1         -8.0868    6.7665    3.6401 H         1 <0>         0.1246
     22 H2         -8.4574    6.3805    1.9254 H         1 <0>         0.1198
     23 H3         -7.6760    7.9423    2.3457 H         1 <0>         0.1234
     24 H4         -6.8511    4.7840    3.9052 H         1 <0>         0.1339
     25 H5         -7.0914    4.2697    2.2010 H         1 <0>         0.1299
     26 H6         -4.3932    4.8428    3.5487 H         1 <0>         0.0890
     27 H7         -5.0561    3.2187    3.1623 H         1 <0>         0.1224
     28 H8         -5.0464    3.7574    0.7390 H         1 <0>         0.1134
     29 H9         -3.8464    6.4425    1.6579 H         1 <0>         0.0925
     30 H10        -4.1313    5.9286   -0.0396 H         1 <0>         0.1118
     31 H11        -6.5729    5.7919    0.4036 H         1 <0>         0.1288
     32 H12        -5.9484    7.4346    0.7753 H         1 <0>         0.1303
     33 H13        -1.2010    4.2968    2.2669 H         1 <0>         0.0752
     34 H14        -2.6094    4.6290    3.3312 H         1 <0>         0.0782
     35 H15        -2.2332    5.7362    1.9676 H         1 <0>         0.0367
     36 H16        -3.2684    3.3562   -0.6163 H         1 <0>         0.1243
     37 H17        -2.4028    4.8989   -0.3043 H         1 <0>         0.0570
     38 H18        -0.0672    4.9209    0.0275 H         1 <0>         0.1537
     39 H19         2.1172    1.2556   -0.0114 H         1 <0>         0.1622
     40 H20         0.0021   -0.0041    0.0020 H         1 <0>         0.1669
     41 H21        -5.7189    6.7876    3.1111 H         1 <0>         0.4409
@<TRIPOS>BOND
     1    1    2 1
     2    1   21 1
     3    1   22 1
     4    1   23 1
     5    2    7 1
     6    2    3 1
     7    2   41 1
     8    3    4 1
     9    3   24 1
    10    3   25 1
    11    4    5 1
    12    4   26 1
    13    4   27 1
    14    5    6 1
    15    5    8 1
    16    5   28 1
    17    6    7 1
    18    6   29 1
    19    6   30 1
    20    7   31 1
    21    7   32 1
    22    8    9 1
    23    8   10 1
    24    9   33 1
    25    9   34 1
    26    9   35 1
    27   10   11 1
    28   10   36 1
    29   10   37 1
    30   11   16 ar
    31   11   12 ar
    32   12   13 ar
    33   12   38 1
    34   13   14 ar
    35   13   20 1
    36   14   15 ar
    37   14   39 1
    38   15   16 ar
    39   15   40 1
    40   16   17 1
    41   17   18 2
    42   17   19 1
@<TRIPOS>MOLECULE
ZINC22779407
   41    42     0     0     0
SMALL
USER_CHARGES
N-[(5-chloro-2-nitro-phenyl)methyl]-N,1-dimethyl-piperidin-4-amine
@<TRIPOS>ATOM
      1 C1         -7.7433    6.8744    2.6007 C.3       1 <0>         0.0187
      2 N1         -6.4207    6.2519    2.4550 N.3       1 <0>        -0.5447
      3 C2         -6.4501    4.8475    2.8829 C.3       1 <0>         0.0537
      4 C3         -5.0312    4.2748    2.8557 C.3       1 <0>        -0.1374
      5 C4         -4.4693    4.3834    1.4355 C.3       1 <0>         0.0332
      6 C5         -4.4947    5.8499    0.9957 C.3       1 <0>        -0.1381
      7 C6         -5.9292    6.3769    1.0769 C.3       1 <0>         0.0531
      8 N2         -3.0862    3.8888    1.4155 N.4       1 <0>        -0.3919
      9 C7         -2.2286    4.6879    2.3009 C.3       1 <0>        -0.0649
     10 C8         -2.5545    3.8674    0.0463 C.3       1 <0>         0.0250
     11 C9         -1.2388    3.1326    0.0298 C.ar      1 <0>        -0.0739
     12 C10        -0.0518    3.8410    0.0223 C.ar      1 <0>        -0.0864
     13 C11         1.1558    3.1665    0.0076 C.ar      1 <0>         0.0122
     14 C12         1.1747    1.7828    0.0004 C.ar      1 <0>        -0.0798
     15 C13        -0.0126    1.0758    0.0080 C.ar      1 <0>        -0.0272
     16 C14        -1.2193    1.7507    0.0173 C.ar      1 <0>        -0.0338
     17 N3         -2.4907    0.9929    0.0192 N.pl3     1 <0>         0.0242
     18 O1         -2.4737   -0.2250    0.0125 O.2       1 <0>        -0.0865
     19 O2         -3.5538    1.5871    0.0275 O.3       1 <0>        -0.2045
     20 Cl1         2.6469    4.0553   -0.0025 Cl        1 <0>        -0.0030
     21 H1         -8.0868    6.7665    3.6401 H         1 <0>         0.0780
     22 H2         -8.4574    6.3805    1.9254 H         1 <0>         0.0347
     23 H3         -7.6760    7.9423    2.3457 H         1 <0>         0.0780
     24 H4         -6.8511    4.7840    3.9052 H         1 <0>         0.0983
     25 H5         -7.0914    4.2697    2.2010 H         1 <0>         0.0493
     26 H6         -4.3932    4.8428    3.5487 H         1 <0>         0.0967
     27 H7         -5.0561    3.2187    3.1623 H         1 <0>         0.0935
     28 H8         -5.0464    3.7574    0.7390 H         1 <0>         0.1420
     29 H9         -3.8464    6.4425    1.6579 H         1 <0>         0.0973
     30 H10        -4.1313    5.9286   -0.0396 H         1 <0>         0.0904
     31 H11        -6.5729    5.7919    0.4036 H         1 <0>         0.0483
     32 H12        -5.9484    7.4346    0.7753 H         1 <0>         0.0972
     33 H13        -1.2010    4.2968    2.2669 H         1 <0>         0.1169
     34 H14        -2.6094    4.6290    3.3312 H         1 <0>         0.1326
     35 H15        -2.2332    5.7362    1.9676 H         1 <0>         0.1295
     36 H16        -3.2684    3.3562   -0.6163 H         1 <0>         0.1678
     37 H17        -2.4028    4.8989   -0.3043 H         1 <0>         0.1467
     38 H18        -0.0672    4.9209    0.0275 H         1 <0>         0.1684
     39 H19         2.1172    1.2556   -0.0114 H         1 <0>         0.1732
     40 H20         0.0021   -0.0041    0.0020 H         1 <0>         0.1783
     41 H21        -3.0912    2.8553    1.7922 H         1 <0>         0.4351
@<TRIPOS>BOND
     1    1    2 1
     2    1   21 1
     3    1   22 1
     4    1   23 1
     5    2    7 1
     6    2    3 1
     7    3    4 1
     8    3   24 1
     9    3   25 1
    10    4    5 1
    11    4   26 1
    12    4   27 1
    13    5    6 1
    14    5    8 1
    15    5   28 1
    16    6    7 1
    17    6   29 1
    18    6   30 1
    19    7   31 1
    20    7   32 1
    21    8    9 1
    22    8   10 1
    23    8   41 1
    24    9   33 1
    25    9   34 1
    26    9   35 1
    27   10   11 1
    28   10   36 1
    29   10   37 1
    30   11   16 ar
    31   11   12 ar
    32   12   13 ar
    33   12   38 1
    34   13   14 ar
    35   13   20 1
    36   14   15 ar
    37   14   39 1
    38   15   16 ar
    39   15   40 1
    40   16   17 1
    41   17   18 2
    42   17   19 1
