@<TRIPOS>MOLECULE
ZINC03981896
   58    61     0     0     0
SMALL
USER_CHARGES
4-[(2-amidino-3,4-dihydro-1H-isoquinolin-7-yl)oxymethyl]-1-(4-pyridyl)piperidine-4-carboxylic acid
@<TRIPOS>ATOM
      1 C1         -0.9992    5.8595    4.6527 C.ar      1 <0>        -0.2009
      2 C2         -1.9341    5.8698    5.6656 C.ar      1 <0>        -0.0691
      3 C3         -3.1984    5.3271    5.4687 C.ar      1 <0>        -0.1309
      4 C4         -3.5236    4.7864    4.2441 C.ar      1 <0>        -0.0745
      5 C5         -2.5859    4.7751    3.2221 C.ar      1 <0>        -0.1448
      6 C6         -1.3247    5.3120    3.4204 C.ar      1 <0>         0.1572
      7 O1         -0.4098    5.2975    2.4156 O.3       1 <0>        -0.2659
      8 C7          0.8696    5.8696    2.6948 C.3       1 <0>         0.0881
      9 C8          1.7581    5.7622    1.4539 C.3       1 <0>        -0.1125
     10 C9          1.1074    6.5177    0.2918 C.3       1 <0>        -0.0922
     11 C10         2.0310    6.4572   -0.9286 C.3       1 <0>         0.0580
     12 N1          3.3281    7.0587   -0.5937 N.pl3     1 <0>        -0.4674
     13 C11         3.9919    6.3209    0.4887 C.3       1 <0>         0.0283
     14 C12         3.1283    6.3777    1.7508 C.3       1 <0>        -0.0888
     15 C13         4.1456    7.1387   -1.7171 C.ar      1 <0>         0.2548
     16 C14         5.4179    6.5670   -1.7184 C.ar      1 <0>        -0.1914
     17 C15         6.1945    6.6637   -2.8538 C.ar      1 <0>         0.1644
     18 C16         4.5567    7.8546   -3.9608 C.ar      1 <0>         0.1559
     19 C17         3.7164    7.7977   -2.8690 C.ar      1 <0>        -0.1684
     20 C18         1.9276    4.3122    1.0799 C.2       1 <0>         0.4692
     21 O2          3.0306    3.8196    1.0553 O.co2     1 <0>        -0.6356
     22 C19        -4.8858    4.2075    3.9539 C.3       1 <0>         0.1534
     23 N2         -5.6394    4.0672    5.2044 N.pl3     1 <0>        -0.5861
     24 C20        -5.5991    5.1964    6.1482 C.3       1 <0>         0.1086
     25 C21        -4.1578    5.3557    6.6295 C.3       1 <0>        -0.0911
     26 C22        -6.3545    2.9268    5.4842 C.cat     1 <0>         0.7401
     27 N3         -6.3732    1.8888    4.5829 N.pl3     1 <0>        -0.8078
     28 H1         -0.0178    6.2795    4.8169 H         1 <0>         0.1327
     29 H2         -1.6804    6.3003    6.6230 H         1 <0>         0.1278
     30 H3         -2.8409    4.3445    2.2651 H         1 <0>         0.1383
     31 H4          1.3346    5.3333    3.5221 H         1 <0>         0.0604
     32 H5          0.7474    6.9186    2.9646 H         1 <0>         0.0572
     33 H6          0.1500    6.0568    0.0487 H         1 <0>         0.0973
     34 H7          0.9494    7.5578    0.5770 H         1 <0>         0.0667
     35 H8          1.5782    7.0066   -1.7540 H         1 <0>         0.0896
     36 H9          2.1776    5.4176   -1.2214 H         1 <0>         0.0770
     37 H10         4.9632    6.7714    0.6927 H         1 <0>         0.0855
     38 H11         4.1292    5.2820    0.1890 H         1 <0>         0.1103
     39 H12         3.0020    7.4155    2.0589 H         1 <0>         0.0653
     40 H13         3.6138    5.8169    2.5495 H         1 <0>         0.0858
     41 H14         5.7879    6.0526   -0.8440 H         1 <0>         0.1871
     42 H15         7.1793    6.2204   -2.8653 H         1 <0>         0.1932
     43 H16         4.2328    8.3631   -4.8568 H         1 <0>         0.1928
     44 H17         2.7397    8.2572   -2.9052 H         1 <0>         0.1821
     45 H18        -5.4252    4.8707    3.2778 H         1 <0>         0.1126
     46 H19        -4.7721    3.2290    3.4872 H         1 <0>         0.1012
     47 H20        -6.2507    4.9907    6.9975 H         1 <0>         0.0936
     48 H21        -5.9231    6.1081    5.6465 H         1 <0>         0.1119
     49 H22        -3.9165    4.5424    7.3140 H         1 <0>         0.0830
     50 H23        -4.0580    6.3060    7.1538 H         1 <0>         0.1025
     51 H24        -7.5487    2.0658    6.8917 H         1 <0>         0.4492
     52 H25        -5.8819    1.9610    3.7497 H         1 <0>         0.4381
     53 H26        -6.8778    1.0842    4.7802 H         1 <0>         0.4371
     54 N4          5.7995    7.3006   -3.9899 N.ar      1 <0>        -0.5179
     55 H27         6.4026    7.3596   -4.8187 H         1 <0>         0.4719
     56 O3          0.8534    3.5679    0.7739 O.co2     1 <0>        -0.7320
     57 N5         -7.0040    2.8904    6.6387 N.pl3     1 <0>        -0.8016
     58 H28        -6.9590    3.6921    7.2786 H         1 <0>         0.4510
@<TRIPOS>BOND
     1    1    6 ar
     2    1    2 ar
     3    1   28 1
     4    2    3 ar
     5    2   29 1
     6    3   25 1
     7    3    4 ar
     8    4    5 ar
     9    4   22 1
    10    5    6 ar
    11    5   30 1
    12    6    7 1
    13    7    8 1
    14    8    9 1
    15    8   31 1
    16    8   32 1
    17    9   14 1
    18    9   10 1
    19    9   20 1
    20   10   11 1
    21   10   33 1
    22   10   34 1
    23   11   12 1
    24   11   35 1
    25   11   36 1
    26   12   13 1
    27   12   15 1
    28   13   14 1
    29   13   37 1
    30   13   38 1
    31   14   39 1
    32   14   40 1
    33   15   19 ar
    34   15   16 ar
    35   16   17 ar
    36   16   41 1
    37   17   42 1
    38   17   54 ar
    39   18   19 ar
    40   18   43 1
    41   18   54 ar
    42   19   44 1
    43   20   21 2
    44   20   56 1
    45   22   23 1
    46   22   45 1
    47   22   46 1
    48   23   24 1
    49   23   26 1
    50   24   25 1
    51   24   47 1
    52   24   48 1
    53   25   49 1
    54   25   50 1
    55   26   27 1
    56   26   57 2
    57   27   52 1
    58   27   53 1
    59   51   57 1
    60   54   55 1
    61   57   58 1
