@<TRIPOS>MOLECULE
ZINC00005152
   28    27     0     0     0
SMALL
USER_CHARGES

@<TRIPOS>ATOM
      1 C1         -0.0284    1.4730    0.3254 C.3       1 <0>        -0.1526
      2 C2         -0.0192   -0.0501    0.1800 C.3       1 <0>        -0.1012
      3 C3          0.6151   -0.6772    1.4231 C.3       1 <0>        -0.1565
      4 C4         -1.4550   -0.5567    0.0292 C.3       1 <0>        -0.1297
      5 C5         -1.4383   -2.0610   -0.2495 C.3       1 <0>        -0.0924
      6 H1         -0.8692   -2.5686    0.5293 H         1 <0>         0.1204
      7 C6         -2.8727   -2.5933   -0.2618 C.3       1 <0>        -0.1975
      8 C7         -2.8509   -4.0925   -0.4137 C.2       1 <0>         0.4813
      9 O1         -1.7868   -4.6806   -0.5038 O.co2     1 <0>        -0.6916
     10 O2         -3.8974   -4.7171   -0.4466 O.co2     1 <0>        -0.6804
     11 C8         -0.7863   -2.3206   -1.6090 C.3       1 <0>        -0.0107
     12 N1         -1.4913   -1.5537   -2.6447 N.4       1 <0>        -0.6381
     13 H2          0.9945    1.8339    0.4328 H         1 <0>         0.0589
     14 H3         -0.4803    1.9198   -0.5602 H         1 <0>         0.0515
     15 H4         -0.6060    1.7503    1.2072 H         1 <0>         0.0597
     16 H5          0.5584   -0.3274   -0.7018 H         1 <0>         0.0646
     17 H6          0.6216   -1.7622    1.3195 H         1 <0>         0.0640
     18 H7          1.6379   -0.3162    1.5305 H         1 <0>         0.0574
     19 H8          0.0374   -0.3999    2.3049 H         1 <0>         0.0595
     20 H9         -2.0068   -0.3637    0.9492 H         1 <0>         0.0864
     21 H10        -1.9378   -0.0390   -0.7995 H         1 <0>         0.0490
     22 H11        -3.3660   -2.3301    0.6738 H         1 <0>         0.0816
     23 H12        -3.4171   -2.1514   -1.0964 H         1 <0>         0.0499
     24 H13         0.2584   -2.0114   -1.5759 H         1 <0>         0.1213
     25 H14        -0.8433   -3.3839   -1.8422 H         1 <0>         0.1618
     26 H15        -2.4413   -1.8852   -2.7206 H         1 <0>         0.4336
     27 H16        -1.4953   -0.5760   -2.3951 H         1 <0>         0.4206
     28 H17        -1.0217   -1.6729   -3.5297 H         1 <0>         0.4289
@<TRIPOS>BOND
     1    1    2 1
     2    1   13 1
     3    1   14 1
     4    1   15 1
     5    2    3 1
     6    2    4 1
     7    2   16 1
     8    3   17 1
     9    3   18 1
    10    3   19 1
    11    4    5 1
    12    4   20 1
    13    4   21 1
    14    5    6 1
    15    5    7 1
    16    5   11 1
    17    7    8 1
    18    7   22 1
    19    7   23 1
    20    8    9 2
    21    8   10 1
    22   11   12 1
    23   11   24 1
    24   11   25 1
    25   12   26 1
    26   12   27 1
    27   12   28 1
@<TRIPOS>MOLECULE
ZINC33961501
   29    29     0     0     0
SMALL
USER_CHARGES

@<TRIPOS>ATOM
      1 C1          0.8171    1.5302    0.2409 C.3       1 <0>        -0.1460
      2 C2          0.5824    0.0212    0.1475 C.3       1 <0>        -0.1066
      3 H1          1.1503   -0.4061   -0.6789 H         1 <0>         0.0712
      4 C3         -0.9271   -0.2911   -0.0044 C.3       1 <0>        -0.1184
      5 C4         -1.0691   -1.7353    0.5190 C.3       1 <0>        -0.1344
      6 C5          0.1196   -1.9788    1.4652 C.3       1 <0>        -0.0610
      7 C6          0.9473   -0.6747    1.4822 C.3       1 <0>        -0.0815
      8 C7         -0.3879   -2.2985    2.8727 C.3       1 <0>        -0.1940
      9 C8          0.7842   -2.4399    3.8093 C.2       1 <0>         0.4806
     10 O1          1.9137   -2.2111    3.4112 O.co2     1 <0>        -0.6846
     11 O2          0.6031   -2.7832    4.9651 O.co2     1 <0>        -0.6822
     12 C9          0.9779   -3.1324    0.9423 C.3       1 <0>        -0.0030
     13 N1          0.2019   -4.3790    0.9859 N.4       1 <0>        -0.6368
     14 H2          1.8754    1.7231    0.4170 H         1 <0>         0.0580
     15 H3          0.5119    2.0039   -0.6921 H         1 <0>         0.0530
     16 H4          0.2314    1.9388    1.0644 H         1 <0>         0.0565
     17 H5         -1.5211    0.3940    0.6004 H         1 <0>         0.0710
     18 H6         -1.2251   -0.2337   -1.0513 H         1 <0>         0.0655
     19 H7         -2.0076   -1.8448    1.0625 H         1 <0>         0.0752
     20 H8         -1.0346   -2.4389   -0.3128 H         1 <0>         0.0547
     21 H9          2.0139   -0.8967    1.5175 H         1 <0>         0.0892
     22 H10         0.6580   -0.0520    2.3287 H         1 <0>         0.0754
     23 H11        -1.0336   -1.4911    3.2182 H         1 <0>         0.0828
     24 H12        -0.9515   -3.2312    2.8526 H         1 <0>         0.0486
     25 H13         1.2767   -2.9262   -0.0854 H         1 <0>         0.1199
     26 H14         1.8664   -3.2356    1.5653 H         1 <0>         0.1606
     27 H15         0.7321   -5.1205    0.5535 H         1 <0>         0.4286
     28 H16         0.0071   -4.6205    1.9460 H         1 <0>         0.4360
     29 H17        -0.6666   -4.2521    0.4882 H         1 <0>         0.4214
@<TRIPOS>BOND
     1    1    2 1
     2    1   14 1
     3    1   15 1
     4    1   16 1
     5    2    3 1
     6    2    7 1
     7    2    4 1
     8    4    5 1
     9    4   17 1
    10    4   18 1
    11    5    6 1
    12    5   19 1
    13    5   20 1
    14    6    7 1
    15    6    8 1
    16    6   12 1
    17    7   21 1
    18    7   22 1
    19    8    9 1
    20    8   23 1
    21    8   24 1
    22    9   10 2
    23    9   11 1
    24   12   13 1
    25   12   25 1
    26   12   26 1
    27   13   27 1
    28   13   28 1
    29   13   29 1
@<TRIPOS>MOLECULE
ZINC33961502
   29    29     0     0     0
SMALL
USER_CHARGES

@<TRIPOS>ATOM
      1 C1          0.1372    1.6137    0.8027 C.3       1 <0>        -0.1444
      2 C2          0.0814    0.1191    0.4799 C.3       1 <0>        -0.1063
      3 H1         -0.9532   -0.2159    0.4061 H         1 <0>         0.0745
      4 C3          0.8434   -0.1803   -0.8349 C.3       1 <0>        -0.1200
      5 C4          1.2072   -1.6785   -0.6855 C.3       1 <0>        -0.1298
      6 C5          1.5556   -1.8359    0.8090 C.3       1 <0>        -0.0599
      7 C6          0.8368   -0.6933    1.5519 C.3       1 <0>        -0.0809
      8 C7          1.0569   -3.1877    1.3238 C.3       1 <0>        -0.1949
      9 C8          1.2983   -3.2799    2.8085 C.2       1 <0>         0.4804
     10 O1          1.7615   -2.3266    3.4112 O.co2     1 <0>        -0.6845
     11 O2          1.0304   -4.3078    3.4070 O.co2     1 <0>        -0.6820
     12 C9          3.0683   -1.7239    1.0092 C.3       1 <0>        -0.0023
     13 N1          3.7344   -2.8560    0.3515 N.4       1 <0>        -0.6373
     14 H2          1.1774    1.9343    0.8606 H         1 <0>         0.0535
     15 H3         -0.3726    2.1739    0.0189 H         1 <0>         0.0532
     16 H4         -0.3534    1.7975    1.7585 H         1 <0>         0.0583
     17 H5          0.1982   -0.0238   -1.6995 H         1 <0>         0.0689
     18 H6          1.7433    0.4304   -0.9076 H         1 <0>         0.0669
     19 H7          0.3550   -2.3059   -0.9468 H         1 <0>         0.0826
     20 H8          2.0685   -1.9256   -1.3061 H         1 <0>         0.0503
     21 H9          1.5662   -0.0592    2.0559 H         1 <0>         0.0736
     22 H10         0.1321   -1.1012    2.2766 H         1 <0>         0.0834
     23 H11        -0.0103   -3.2818    1.1227 H         1 <0>         0.0834
     24 H12         1.5941   -3.9898    0.8178 H         1 <0>         0.0481
     25 H13         3.4242   -0.7902    0.5739 H         1 <0>         0.1198
     26 H14         3.2958   -1.7379    2.0751 H         1 <0>         0.1605
     27 H15         4.7347   -2.7501    0.4310 H         1 <0>         0.4288
     28 H16         3.4510   -3.7169    0.7950 H         1 <0>         0.4356
     29 H17         3.4750   -2.8787   -0.6234 H         1 <0>         0.4206
@<TRIPOS>BOND
     1    1    2 1
     2    1   14 1
     3    1   15 1
     4    1   16 1
     5    2    3 1
     6    2    7 1
     7    2    4 1
     8    4    5 1
     9    4   17 1
    10    4   18 1
    11    5    6 1
    12    5   19 1
    13    5   20 1
    14    6    7 1
    15    6    8 1
    16    6   12 1
    17    7   21 1
    18    7   22 1
    19    8    9 1
    20    8   23 1
    21    8   24 1
    22    9   10 2
    23    9   11 1
    24   12   13 1
    25   12   25 1
    26   12   26 1
    27   13   27 1
    28   13   28 1
    29   13   29 1
@<TRIPOS>MOLECULE
ZINC33961503
   29    29     0     0     0
SMALL
USER_CHARGES

@<TRIPOS>ATOM
      1 C1         -0.8665    1.4945    0.0855 C.3       1 <0>        -0.1441
      2 C2         -0.5193    0.0057    0.0252 C.3       1 <0>        -0.1029
      3 H1          0.0189   -0.2271   -0.8937 H         1 <0>         0.0762
      4 C3         -1.7970   -0.8613    0.1476 C.3       1 <0>        -0.1175
      5 C4         -1.2852   -2.2167    0.6775 C.3       1 <0>        -0.1341
      6 C5          0.0489   -1.9345    1.3904 C.3       1 <0>        -0.0606
      7 C6          0.3056   -0.4163    1.2664 C.3       1 <0>        -0.0929
      8 C7          1.1800   -2.7099    0.7120 C.3       1 <0>        -0.1920
      9 C8          2.4973   -2.3236    1.3337 C.2       1 <0>         0.4831
     10 O1          2.5215   -1.5702    2.2920 O.co2     1 <0>        -0.6863
     11 O2          3.5389   -2.7644    0.8784 O.co2     1 <0>        -0.6788
     12 C9         -0.0499   -2.3329    2.8643 C.3       1 <0>        -0.0068
     13 N1         -0.2644   -3.7825    2.9664 N.4       1 <0>        -0.6367
     14 H2          0.0511    2.0826    0.0680 H         1 <0>         0.0586
     15 H3         -1.4838    1.7587   -0.7732 H         1 <0>         0.0539
     16 H4         -1.4141    1.7030    1.0046 H         1 <0>         0.0537
     17 H5         -2.4951   -0.4141    0.8552 H         1 <0>         0.0673
     18 H6         -2.2681   -0.9862   -0.8274 H         1 <0>         0.0668
     19 H7         -2.0030   -2.6375    1.3815 H         1 <0>         0.0536
     20 H8         -1.1268   -2.9061   -0.1518 H         1 <0>         0.0752
     21 H9          1.3652   -0.2173    1.1059 H         1 <0>         0.0986
     22 H10        -0.0507    0.1032    2.1559 H         1 <0>         0.0660
     23 H11         1.0164   -3.7796    0.8426 H         1 <0>         0.0484
     24 H12         1.1966   -2.4721   -0.3516 H         1 <0>         0.0834
     25 H13         0.8748   -2.0655    3.3758 H         1 <0>         0.1670
     26 H14        -0.8858   -1.8084    3.3272 H         1 <0>         0.1182
     27 H15        -0.2610   -4.0555    3.9377 H         1 <0>         0.4294
     28 H16        -1.1536   -4.0209    2.5532 H         1 <0>         0.4200
     29 H17         0.4739   -4.2670    2.4783 H         1 <0>         0.4334
@<TRIPOS>BOND
     1    1    2 1
     2    1   14 1
     3    1   15 1
     4    1   16 1
     5    2    3 1
     6    2    7 1
     7    2    4 1
     8    4    5 1
     9    4   17 1
    10    4   18 1
    11    5    6 1
    12    5   19 1
    13    5   20 1
    14    6    7 1
    15    6    8 1
    16    6   12 1
    17    7   21 1
    18    7   22 1
    19    8    9 1
    20    8   23 1
    21    8   24 1
    22    9   10 2
    23    9   11 1
    24   12   13 1
    25   12   25 1
    26   12   26 1
    27   13   27 1
    28   13   28 1
    29   13   29 1
@<TRIPOS>MOLECULE
ZINC33961504
   29    29     0     0     0
SMALL
USER_CHARGES

@<TRIPOS>ATOM
      1 C1         -0.2245    1.2459   -0.2662 C.3       1 <0>        -0.1471
      2 C2         -0.1072   -0.2731   -0.1257 C.3       1 <0>        -0.1032
      3 H1         -1.0964   -0.7284   -0.0784 H         1 <0>         0.0711
      4 C3          0.7063   -0.8653   -1.3033 C.3       1 <0>        -0.1163
      5 C4          1.2326   -2.1994   -0.7184 C.3       1 <0>        -0.1394
      6 C5          1.5703   -1.8622    0.7486 C.3       1 <0>        -0.0589
      7 C6          0.7154   -0.6375    1.1274 C.3       1 <0>        -0.0845
      8 C7          3.0573   -1.5270    0.8804 C.3       1 <0>        -0.1912
      9 C8          3.3462   -1.0688    2.2867 C.2       1 <0>         0.4831
     10 O1          2.4643   -1.0906    3.1282 O.co2     1 <0>        -0.6869
     11 O2          4.4619   -0.6764    2.5829 O.co2     1 <0>        -0.6800
     12 C9          1.2169   -3.0448    1.6528 C.3       1 <0>        -0.0075
     13 N1          2.0310   -4.2086    1.2775 N.4       1 <0>        -0.6364
     14 H2          0.7722    1.6834   -0.3246 H         1 <0>         0.0573
     15 H3         -0.7799    1.4851   -1.1730 H         1 <0>         0.0533
     16 H4         -0.7492    1.6514    0.5989 H         1 <0>         0.0572
     17 H5          0.0629   -1.0480   -2.1640 H         1 <0>         0.0675
     18 H6          1.5334   -0.2077   -1.5707 H         1 <0>         0.0724
     19 H7          0.4606   -2.9675   -0.7654 H         1 <0>         0.0651
     20 H8          2.1269   -2.5230   -1.2511 H         1 <0>         0.0698
     21 H9          1.3605    0.1958    1.4059 H         1 <0>         0.0838
     22 H10         0.0482   -0.8859    1.9528 H         1 <0>         0.0715
     23 H11         3.6508   -2.4138    0.6580 H         1 <0>         0.0481
     24 H12         3.3142   -0.7327    0.1795 H         1 <0>         0.0828
     25 H13         1.4174   -2.7807    2.6912 H         1 <0>         0.1661
     26 H14         0.1607   -3.2877    1.5371 H         1 <0>         0.1189
     27 H15         1.8506   -4.9661    1.9191 H         1 <0>         0.4293
     28 H16         1.7930   -4.4974    0.3405 H         1 <0>         0.4208
     29 H17         3.0085   -3.9615    1.3152 H         1 <0>         0.4331
@<TRIPOS>BOND
     1    1    2 1
     2    1   14 1
     3    1   15 1
     4    1   16 1
     5    2    3 1
     6    2    7 1
     7    2    4 1
     8    4    5 1
     9    4   17 1
    10    4   18 1
    11    5    6 1
    12    5   19 1
    13    5   20 1
    14    6    7 1
    15    6    8 1
    16    6   12 1
    17    7   21 1
    18    7   22 1
    19    8    9 1
    20    8   23 1
    21    8   24 1
    22    9   10 2
    23    9   11 1
    24   12   13 1
    25   12   25 1
    26   12   26 1
    27   13   27 1
    28   13   28 1
    29   13   29 1
@<TRIPOS>MOLECULE
ZINC33975407
   35    35     0     0     0
SMALL
USER_CHARGES

@<TRIPOS>ATOM
      1 C1          0.8645    1.3682    0.9891 C.3       1 <0>        -0.1545
      2 C2          0.6546   -0.1272    0.7430 C.3       1 <0>        -0.1247
      3 C3          1.2665   -0.5129   -0.6052 C.3       1 <0>        -0.1112
      4 C4          1.0566   -2.0084   -0.8514 C.3       1 <0>        -0.0973
      5 H1          0.0016   -2.2682   -0.7647 H         1 <0>         0.0764
      6 C5          1.9117   -2.8511    0.1272 C.3       1 <0>        -0.1157
      7 C6          2.0873   -4.2042   -0.5927 C.3       1 <0>        -0.1345
      8 C7          1.8990   -3.9304   -2.0951 C.3       1 <0>        -0.0599
      9 C8          1.6110   -2.4196   -2.2380 C.3       1 <0>        -0.0925
     10 C9          0.7150   -4.7381   -2.6307 C.3       1 <0>        -0.1919
     11 C10         0.4590   -4.3618   -4.0673 C.2       1 <0>         0.4831
     12 O1          1.2105   -3.5901   -4.6386 O.co2     1 <0>        -0.6862
     13 O2         -0.4996   -4.8290   -4.6584 O.co2     1 <0>        -0.6789
     14 C11         3.1730   -4.2979   -2.8585 C.3       1 <0>        -0.0069
     15 N1          3.4170   -5.7414   -2.7377 N.4       1 <0>        -0.6368
     16 H2          1.9320    1.5886    0.9982 H         1 <0>         0.0523
     17 H3          0.3826    1.9384    0.1949 H         1 <0>         0.0546
     18 H4          0.4286    1.6431    1.9496 H         1 <0>         0.0528
     19 H5          1.1366   -0.6973    1.5372 H         1 <0>         0.0594
     20 H6         -0.4128   -0.3476    0.7339 H         1 <0>         0.0608
     21 H7          0.7845    0.0572   -1.3995 H         1 <0>         0.0653
     22 H8          2.3340   -0.2926   -0.5962 H         1 <0>         0.0609
     23 H9          2.8799   -2.3783    0.2921 H         1 <0>         0.0670
     24 H10         1.3866   -2.9873    1.0726 H         1 <0>         0.0668
     25 H11         3.0863   -4.5988   -0.4074 H         1 <0>         0.0533
     26 H12         1.3352   -4.9124   -0.2451 H         1 <0>         0.0749
     27 H13         0.8670   -2.2416   -3.0144 H         1 <0>         0.0986
     28 H14         2.5303   -1.8766   -2.4575 H         1 <0>         0.0657
     29 H15         0.9434   -5.8021   -2.5690 H         1 <0>         0.0481
     30 H16        -0.1717   -4.5216   -2.0349 H         1 <0>         0.0833
     31 H17         3.0548   -4.0361   -3.9100 H         1 <0>         0.1669
     32 H18         4.0177   -3.7504   -2.4405 H         1 <0>         0.1181
     33 H19         4.2176   -5.9952   -3.2970 H         1 <0>         0.4293
     34 H20         3.5945   -5.9729   -1.7718 H         1 <0>         0.4199
     35 H21         2.6066   -6.2478   -3.0615 H         1 <0>         0.4334
@<TRIPOS>BOND
     1    1    2 1
     2    1   16 1
     3    1   17 1
     4    1   18 1
     5    2    3 1
     6    2   19 1
     7    2   20 1
     8    3    4 1
     9    3   21 1
    10    3   22 1
    11    4    5 1
    12    4    9 1
    13    4    6 1
    14    6    7 1
    15    6   23 1
    16    6   24 1
    17    7    8 1
    18    7   25 1
    19    7   26 1
    20    8    9 1
    21    8   10 1
    22    8   14 1
    23    9   27 1
    24    9   28 1
    25   10   11 1
    26   10   29 1
    27   10   30 1
    28   11   12 2
    29   11   13 1
    30   14   15 1
    31   14   31 1
    32   14   32 1
    33   15   33 1
    34   15   34 1
    35   15   35 1
@<TRIPOS>MOLECULE
ZINC34017481
   35    35     0     0     0
SMALL
USER_CHARGES

@<TRIPOS>ATOM
      1 C1         -0.6140    1.6312   -1.2961 C.3       1 <0>        -0.1556
      2 C2         -0.5169    0.1248   -1.0465 C.3       1 <0>        -0.1229
      3 C3          0.4277   -0.5025   -2.0737 C.3       1 <0>        -0.1137
      4 C4          0.5247   -2.0089   -1.8240 C.3       1 <0>        -0.1011
      5 H1         -0.4666   -2.4620   -1.8143 H         1 <0>         0.0716
      6 C5          1.2738   -2.2987   -0.4996 C.3       1 <0>        -0.1165
      7 C6          1.8212   -3.7297   -0.6799 C.3       1 <0>        -0.1347
      8 C7          1.9209   -3.9745   -2.1958 C.3       1 <0>        -0.0603
      9 C8          1.4266   -2.6844   -2.8868 C.3       1 <0>        -0.0810
     10 C9          3.3728   -4.2577   -2.5865 C.3       1 <0>        -0.1938
     11 C10         3.4714   -4.4003   -4.0835 C.2       1 <0>         0.4806
     12 O1          2.4920   -4.1984   -4.7810 O.co2     1 <0>        -0.6845
     13 O2          4.5307   -4.7176   -4.5972 O.co2     1 <0>        -0.6825
     14 C11         1.0304   -5.1525   -2.5962 C.3       1 <0>        -0.0032
     15 N1          1.5432   -6.3847   -1.9824 N.4       1 <0>        -0.6369
     16 H2          0.3750    2.0796   -1.2017 H         1 <0>         0.0538
     17 H3         -0.9992    1.8090   -2.3002 H         1 <0>         0.0543
     18 H4         -1.2870    2.0781   -0.5644 H         1 <0>         0.0525
     19 H5         -0.1318   -0.0530   -0.0425 H         1 <0>         0.0594
     20 H6         -1.5059   -0.3236   -1.1410 H         1 <0>         0.0583
     21 H7          0.0425   -0.3247   -3.0777 H         1 <0>         0.0651
     22 H8          1.4167   -0.0541   -1.9792 H         1 <0>         0.0636
     23 H9          2.0920   -1.5919   -0.3616 H         1 <0>         0.0707
     24 H10         0.5858   -2.2570    0.3447 H         1 <0>         0.0655
     25 H11         2.8071   -3.8127   -0.2226 H         1 <0>         0.0749
     26 H12         1.1384   -4.4501   -0.2295 H         1 <0>         0.0543
     27 H13         0.8498   -2.9235   -3.7802 H         1 <0>         0.0890
     28 H14         2.2696   -2.0403   -3.1368 H         1 <0>         0.0752
     29 H15         4.0051   -3.4329   -2.2577 H         1 <0>         0.0827
     30 H16         3.7035   -5.1810   -2.1110 H         1 <0>         0.0484
     31 H17         0.0121   -4.9716   -2.2520 H         1 <0>         0.1198
     32 H18         1.0339   -5.2582   -3.6810 H         1 <0>         0.1606
     33 H19         0.9043   -7.1434   -2.1670 H         1 <0>         0.4286
     34 H20         2.4474   -6.6039   -2.3729 H         1 <0>         0.4360
     35 H21         1.6302   -6.2530   -0.9858 H         1 <0>         0.4214
@<TRIPOS>BOND
     1    1    2 1
     2    1   16 1
     3    1   17 1
     4    1   18 1
     5    2    3 1
     6    2   19 1
     7    2   20 1
     8    3    4 1
     9    3   21 1
    10    3   22 1
    11    4    5 1
    12    4    9 1
    13    4    6 1
    14    6    7 1
    15    6   23 1
    16    6   24 1
    17    7    8 1
    18    7   25 1
    19    7   26 1
    20    8    9 1
    21    8   10 1
    22    8   14 1
    23    9   27 1
    24    9   28 1
    25   10   11 1
    26   10   29 1
    27   10   30 1
    28   11   12 2
    29   11   13 1
    30   14   15 1
    31   14   31 1
    32   14   32 1
    33   15   33 1
    34   15   34 1
    35   15   35 1
@<TRIPOS>MOLECULE
ZINC03932233
   32    32     0     0     0
SMALL
USER_CHARGES
2-[1-(aminomethyl)-3,4-dimethyl-cyclopentyl]acetic acid
@<TRIPOS>ATOM
      1 C1         -0.9349    0.9302   -0.9165 C.3       1 <0>        -0.1478
      2 C2         -0.5756   -0.5518   -0.7915 C.3       1 <0>        -0.0884
      3 H1         -1.4560   -1.1722   -0.9588 H         1 <0>         0.0759
      4 C3          0.5453   -0.9212   -1.7849 C.3       1 <0>        -0.1302
      5 C4          1.4599   -1.9255   -1.0621 C.3       1 <0>        -0.0657
      6 C5          0.8628   -2.1314    0.3454 C.3       1 <0>        -0.0951
      7 C6          0.0381   -0.8453    0.6000 C.3       1 <0>        -0.0971
      8 H2          0.6829   -0.0262    0.9184 H         1 <0>         0.0780
      9 C7         -1.0602   -1.1013    1.6339 C.3       1 <0>        -0.1441
     10 C8          2.8770   -1.3592   -0.9525 C.3       1 <0>        -0.1660
     11 C9          3.7600   -2.3497   -0.2381 C.2       1 <0>         0.4484
     12 O1          3.2810   -3.3499    0.2415 O.co2     1 <0>        -0.6287
     13 C10         1.4829   -3.2538   -1.8211 C.3       1 <0>        -0.0027
     14 H3         -0.0359    1.5338   -0.7914 H         1 <0>         0.0570
     15 H4         -1.3647    1.1182   -1.9004 H         1 <0>         0.0527
     16 H5         -1.6600    1.1944   -0.1467 H         1 <0>         0.0586
     17 H6          0.1179   -1.3800   -2.6765 H         1 <0>         0.0552
     18 H7          1.1111   -0.0303   -2.0577 H         1 <0>         0.0791
     19 H8          1.6566   -2.2285    1.0860 H         1 <0>         0.0970
     20 H9          0.2161   -3.0087    0.3608 H         1 <0>         0.0678
     21 H10        -1.6574   -1.9592    1.3248 H         1 <0>         0.0539
     22 H11        -0.6060   -1.3052    2.6036 H         1 <0>         0.0583
     23 H12        -1.6997   -0.2219    1.7100 H         1 <0>         0.0548
     24 H13         3.2726   -1.1742   -1.9512 H         1 <0>         0.0571
     25 H14         2.8524   -0.4244   -0.3925 H         1 <0>         0.0900
     26 H15         2.0712   -3.9815   -1.2622 H         1 <0>         0.1637
     27 H16         0.4641   -3.6231   -1.9381 H         1 <0>         0.1189
     28 H17         3.0174   -2.6729   -3.0647 H         1 <0>         0.4375
     29 H18         2.0873   -3.9082   -3.6771 H         1 <0>         0.4315
     30 O2          5.0785   -2.1207   -0.1344 O.co2     1 <0>        -0.7481
     31 N1          2.0690   -3.0337   -3.1551 N.4       1 <0>        -0.6459
     32 H19         1.4979   -2.3503   -3.6661 H         1 <0>         0.4247
@<TRIPOS>BOND
     1    1    2 1
     2    1   14 1
     3    1   15 1
     4    1   16 1
     5    2    3 1
     6    2    7 1
     7    2    4 1
     8    4    5 1
     9    4   17 1
    10    4   18 1
    11    5    6 1
    12    5   10 1
    13    5   13 1
    14    6    7 1
    15    6   19 1
    16    6   20 1
    17    7    8 1
    18    7    9 1
    19    9   21 1
    20    9   22 1
    21    9   23 1
    22   10   11 1
    23   10   24 1
    24   10   25 1
    25   11   12 2
    26   11   30 1
    27   13   26 1
    28   13   27 1
    29   13   31 1
    30   28   31 1
    31   29   31 1
    32   31   32 1
@<TRIPOS>MOLECULE
ZINC33966195
   32    32     0     0     0
SMALL
USER_CHARGES

@<TRIPOS>ATOM
      1 C1          0.6622    0.9525    0.7806 C.3       1 <0>        -0.1524
      2 C2          0.4889   -0.5379    0.4814 C.3       1 <0>        -0.1183
      3 C3          1.0536   -0.8485   -0.9063 C.3       1 <0>        -0.1013
      4 H1          2.0859   -0.5081   -0.9866 H         1 <0>         0.0716
      5 C4          0.1770   -0.2086   -2.0114 C.3       1 <0>        -0.1166
      6 C5          0.4624   -1.0640   -3.2631 C.3       1 <0>        -0.1347
      7 C6          0.9504   -2.4331   -2.7581 C.3       1 <0>        -0.0604
      8 C7          0.9493   -2.3627   -1.2150 C.3       1 <0>        -0.0815
      9 C8          0.0033   -3.5358   -3.2354 C.3       1 <0>        -0.1940
     10 C9          0.4378   -4.8571   -2.6552 C.2       1 <0>         0.4807
     11 O1          1.3591   -4.8993   -1.8578 O.co2     1 <0>        -0.6845
     12 O2         -0.1319   -5.8838   -2.9834 O.co2     1 <0>        -0.6824
     13 C10         2.3684   -2.7036   -3.2649 C.3       1 <0>        -0.0031
     14 N1          2.3498   -2.8283   -4.7285 N.4       1 <0>        -0.6368
     15 H2          1.7216    1.2077    0.7540 H         1 <0>         0.0517
     16 H3          0.1286    1.5379    0.0318 H         1 <0>         0.0526
     17 H4          0.2599    1.1738    1.7692 H         1 <0>         0.0535
     18 H5          1.0225   -1.1233    1.2302 H         1 <0>         0.0649
     19 H6         -0.5705   -0.7930    0.5080 H         1 <0>         0.0633
     20 H7         -0.8777   -0.2658   -1.7426 H         1 <0>         0.0707
     21 H8          0.4728    0.8266   -2.1813 H         1 <0>         0.0656
     22 H9         -0.4492   -1.1852   -3.8483 H         1 <0>         0.0750
     23 H10         1.2357   -0.5923   -3.8693 H         1 <0>         0.0544
     24 H11         1.8072   -2.8956   -0.8051 H         1 <0>         0.0891
     25 H12         0.0200   -2.7701   -0.8167 H         1 <0>         0.0753
     26 H13        -1.0113   -3.3108   -2.9067 H         1 <0>         0.0828
     27 H14         0.0289   -3.5909   -4.3237 H         1 <0>         0.0485
     28 H15         3.0202   -1.8782   -2.9788 H         1 <0>         0.1198
     29 H16         2.7407   -3.6294   -2.8261 H         1 <0>         0.1606
     30 H17         3.2953   -2.9110   -5.0710 H         1 <0>         0.4286
     31 H18         1.8245   -3.6492   -4.9895 H         1 <0>         0.4360
     32 H19         1.9170   -2.0102   -5.1303 H         1 <0>         0.4214
@<TRIPOS>BOND
     1    1    2 1
     2    1   15 1
     3    1   16 1
     4    1   17 1
     5    2    3 1
     6    2   18 1
     7    2   19 1
     8    3    4 1
     9    3    8 1
    10    3    5 1
    11    5    6 1
    12    5   20 1
    13    5   21 1
    14    6    7 1
    15    6   22 1
    16    6   23 1
    17    7    8 1
    18    7    9 1
    19    7   13 1
    20    8   24 1
    21    8   25 1
    22    9   10 1
    23    9   26 1
    24    9   27 1
    25   10   11 2
    26   10   12 1
    27   13   14 1
    28   13   28 1
    29   13   29 1
    30   14   30 1
    31   14   31 1
    32   14   32 1
@<TRIPOS>MOLECULE
ZINC33966196
   32    32     0     0     0
SMALL
USER_CHARGES

@<TRIPOS>ATOM
      1 C1         -0.7205    1.7844   -0.6457 C.3       1 <0>        -0.1534
      2 C2         -0.6384    0.2644   -0.4910 C.3       1 <0>        -0.1159
      3 C3          0.3230   -0.3034   -1.5371 C.3       1 <0>        -0.0976
      4 H1          1.2927    0.1908   -1.4770 H         1 <0>         0.0765
      5 C4         -0.2736   -0.1705   -2.9603 C.3       1 <0>        -0.1159
      6 C5          0.4431   -1.2673   -3.7748 C.3       1 <0>        -0.1344
      7 C6          0.9173   -2.3262   -2.7642 C.3       1 <0>        -0.0600
      8 C7          0.4763   -1.8353   -1.3676 C.3       1 <0>        -0.0929
      9 C8          2.4414   -2.4522   -2.8134 C.3       1 <0>        -0.1919
     10 C9          2.9029   -3.3928   -1.7302 C.2       1 <0>         0.4832
     11 O1          2.0844   -3.9806   -1.0438 O.co2     1 <0>        -0.6863
     12 O2          4.0947   -3.5660   -1.5403 O.co2     1 <0>        -0.6788
     13 C10         0.2689   -3.6763   -3.0766 C.3       1 <0>        -0.0069
     14 N1          0.7207   -4.1434   -4.3940 N.4       1 <0>        -0.6368
     15 H2          0.2692    2.2181   -0.5029 H         1 <0>         0.0540
     16 H3         -1.0839    2.0289   -1.6438 H         1 <0>         0.0524
     17 H4         -1.4054    2.1889    0.0996 H         1 <0>         0.0531
     18 H5         -0.2750    0.0198    0.5071 H         1 <0>         0.0651
     19 H6         -1.6281   -0.1693   -0.6338 H         1 <0>         0.0605
     20 H7         -1.3485   -0.3502   -2.9417 H         1 <0>         0.0670
     21 H8         -0.0576    0.8145   -3.3741 H         1 <0>         0.0668
     22 H9         -0.2490   -1.7152   -4.4879 H         1 <0>         0.0534
     23 H10         1.2987   -0.8431   -4.3004 H         1 <0>         0.0749
     24 H11         1.2381   -2.0623   -0.6218 H         1 <0>         0.0986
     25 H12        -0.4768   -2.2857   -1.0900 H         1 <0>         0.0658
     26 H13         2.7425   -2.8421   -3.7857 H         1 <0>         0.0482
     27 H14         2.8921   -1.4718   -2.6596 H         1 <0>         0.0833
     28 H15         0.5560   -4.4021   -2.3157 H         1 <0>         0.1669
     29 H16        -0.8155   -3.5659   -3.0825 H         1 <0>         0.1181
     30 H17         0.3479   -5.0643   -4.5705 H         1 <0>         0.4294
     31 H18         0.3957   -3.5068   -5.1062 H         1 <0>         0.4199
     32 H19         1.7289   -4.1799   -4.4103 H         1 <0>         0.4334
@<TRIPOS>BOND
     1    1    2 1
     2    1   15 1
     3    1   16 1
     4    1   17 1
     5    2    3 1
     6    2   18 1
     7    2   19 1
     8    3    4 1
     9    3    8 1
    10    3    5 1
    11    5    6 1
    12    5   20 1
    13    5   21 1
    14    6    7 1
    15    6   22 1
    16    6   23 1
    17    7    8 1
    18    7    9 1
    19    7   13 1
    20    8   24 1
    21    8   25 1
    22    9   10 1
    23    9   26 1
    24    9   27 1
    25   10   11 2
    26   10   12 1
    27   13   14 1
    28   13   28 1
    29   13   29 1
    30   14   30 1
    31   14   31 1
    32   14   32 1
@<TRIPOS>MOLECULE
ZINC45339644
   32    32     0     0     0
SMALL
USER_CHARGES

@<TRIPOS>ATOM
      1 C1         -0.6572    0.8212    0.3623 C.3       1 <0>        -0.1537
      2 C2         -0.4407   -0.6742    0.1224 C.3       1 <0>        -0.1162
      3 C3          0.4099   -0.8713   -1.1341 C.3       1 <0>        -0.1011
      4 H1         -0.0392   -0.3550   -1.9825 H         1 <0>         0.0747
      5 C4          1.8546   -0.3666   -0.8952 C.3       1 <0>        -0.1184
      6 C5          2.6717   -1.1597   -1.9452 C.3       1 <0>        -0.1301
      7 C6          2.0179   -2.5570   -1.9566 C.3       1 <0>        -0.0593
      8 C7          0.5768   -2.3735   -1.4429 C.3       1 <0>        -0.0808
      9 C8          1.9967   -3.1140   -3.3814 C.3       1 <0>        -0.1949
     10 C9          1.2523   -4.4243   -3.3975 C.2       1 <0>         0.4805
     11 O1          0.7271   -4.8396   -2.3785 O.co2     1 <0>        -0.6845
     12 O2          1.1752   -5.0690   -4.4294 O.co2     1 <0>        -0.6820
     13 C10         2.7886   -3.5038   -1.0345 C.3       1 <0>        -0.0024
     14 N1          4.1380   -3.7210   -1.5729 N.4       1 <0>        -0.6374
     15 H2          0.3074    1.3111    0.4960 H         1 <0>         0.0523
     16 H3         -1.1699    1.2564   -0.4955 H         1 <0>         0.0538
     17 H4         -1.2631    0.9616    1.2574 H         1 <0>         0.0530
     18 H5          0.0720   -1.1094    0.9802 H         1 <0>         0.0602
     19 H6         -1.4052   -1.1641   -0.0113 H         1 <0>         0.0650
     20 H7          1.9249    0.7053   -1.0804 H         1 <0>         0.0690
     21 H8          2.1861   -0.6078    0.1147 H         1 <0>         0.0667
     22 H9          2.5887   -0.6917   -2.9261 H         1 <0>         0.0823
     23 H10         3.7163   -1.2299   -1.6421 H         1 <0>         0.0501
     24 H11         0.4265   -2.9600   -0.5365 H         1 <0>         0.0734
     25 H12        -0.1366   -2.6788   -2.2083 H         1 <0>         0.0834
     26 H13         1.4977   -2.4046   -4.0416 H         1 <0>         0.0833
     27 H14         3.0189   -3.2727   -3.7248 H         1 <0>         0.0479
     28 H15         2.8608   -3.0636   -0.0400 H         1 <0>         0.1198
     29 H16         2.2643   -4.4574   -0.9726 H         1 <0>         0.1605
     30 H17         4.6665   -4.2960   -0.9341 H         1 <0>         0.4287
     31 H18         4.0729   -4.1840   -2.4670 H         1 <0>         0.4355
     32 H19         4.6015   -2.8321   -1.6875 H         1 <0>         0.4206
@<TRIPOS>BOND
     1    1    2 1
     2    1   15 1
     3    1   16 1
     4    1   17 1
     5    2    3 1
     6    2   18 1
     7    2   19 1
     8    3    4 1
     9    3    8 1
    10    3    5 1
    11    5    6 1
    12    5   20 1
    13    5   21 1
    14    6    7 1
    15    6   22 1
    16    6   23 1
    17    7    8 1
    18    7    9 1
    19    7   13 1
    20    8   24 1
    21    8   25 1
    22    9   10 1
    23    9   26 1
    24    9   27 1
    25   10   11 2
    26   10   12 1
    27   13   14 1
    28   13   28 1
    29   13   29 1
    30   14   30 1
    31   14   31 1
    32   14   32 1
@<TRIPOS>MOLECULE
ZINC45339646
   32    32     0     0     0
SMALL
USER_CHARGES

@<TRIPOS>ATOM
      1 C1          0.2286    1.7546   -0.4844 C.3       1 <0>        -0.1523
      2 C2          0.1755    0.2332   -0.3309 C.3       1 <0>        -0.1195
      3 C3          0.8531   -0.4248   -1.5346 C.3       1 <0>        -0.0979
      4 H1          0.4108   -0.0655   -2.4638 H         1 <0>         0.0715
      5 C4          2.3770   -0.1479   -1.5171 C.3       1 <0>        -0.1145
      6 C5          2.9461   -1.3146   -2.3622 C.3       1 <0>        -0.1398
      7 C6          2.0773   -2.5267   -1.9673 C.3       1 <0>        -0.0583
      8 C7          0.7435   -1.9608   -1.4429 C.3       1 <0>        -0.0844
      9 C8          2.7733   -3.3352   -0.8706 C.3       1 <0>        -0.1911
     10 C9          1.8571   -4.4350   -0.3993 C.2       1 <0>         0.4831
     11 O1          0.7826   -4.6105   -0.9481 O.co2     1 <0>        -0.6869
     12 O2          2.1904   -5.1494    0.5308 O.co2     1 <0>        -0.6801
     13 C10         1.8240   -3.4105   -3.1902 C.3       1 <0>        -0.0076
     14 N1          3.1022   -3.9373   -3.6869 N.4       1 <0>        -0.6365
     15 H2          1.2680    2.0783   -0.5380 H         1 <0>         0.0529
     16 H3         -0.2903    2.0459   -1.3977 H         1 <0>         0.0517
     17 H4         -0.2542    2.2233    0.3731 H         1 <0>         0.0535
     18 H5          0.6943   -0.0582    0.5823 H         1 <0>         0.0640
     19 H6         -0.8639   -0.0905   -0.2773 H         1 <0>         0.0641
     20 H7          2.6006    0.8117   -1.9832 H         1 <0>         0.0677
     21 H8          2.7644   -0.1837   -0.4989 H         1 <0>         0.0721
     22 H9          2.8421   -1.1011   -3.4260 H         1 <0>         0.0649
     23 H10         3.9907   -1.4951   -2.1087 H         1 <0>         0.0696
     24 H11         0.5918   -2.2631   -0.4067 H         1 <0>         0.0837
     25 H12        -0.0828   -2.3136   -2.0601 H         1 <0>         0.0714
     26 H13         3.6903   -3.7711   -1.2670 H         1 <0>         0.0479
     27 H14         3.0147   -2.6799   -0.0338 H         1 <0>         0.0827
     28 H15         1.1734   -4.2393   -2.9110 H         1 <0>         0.1661
     29 H16         1.3458   -2.8206   -3.9721 H         1 <0>         0.1188
     30 H17         2.9295   -4.5769   -4.4479 H         1 <0>         0.4293
     31 H18         3.6766   -3.1744   -4.0125 H         1 <0>         0.4208
     32 H19         3.5785   -4.4225   -2.9413 H         1 <0>         0.4331
@<TRIPOS>BOND
     1    1    2 1
     2    1   15 1
     3    1   16 1
     4    1   17 1
     5    2    3 1
     6    2   18 1
     7    2   19 1
     8    3    4 1
     9    3    8 1
    10    3    5 1
    11    5    6 1
    12    5   20 1
    13    5   21 1
    14    6    7 1
    15    6   22 1
    16    6   23 1
    17    7    8 1
    18    7    9 1
    19    7   13 1
    20    8   24 1
    21    8   25 1
    22    9   10 1
    23    9   26 1
    24    9   27 1
    25   10   11 2
    26   10   12 1
    27   13   14 1
    28   13   28 1
    29   13   29 1
    30   14   30 1
    31   14   31 1
    32   14   32 1
@<TRIPOS>MOLECULE
ZINC33966193
   32    32     0     0     0
SMALL
USER_CHARGES

@<TRIPOS>ATOM
      1 C1          0.4003    1.4054    0.0253 C.3       1 <0>        -0.1396
      2 C2          0.4692   -0.1189    0.1381 C.3       1 <0>        -0.0773
      3 C3         -0.9490   -0.7342    0.0428 C.3       1 <0>        -0.1147
      4 C4         -1.5011   -0.5444    1.4775 C.3       1 <0>        -0.1295
      5 C5         -0.2840   -0.8052    2.3888 C.3       1 <0>        -0.0589
      6 C6          0.9688   -0.5347    1.5372 C.3       1 <0>        -0.0760
      7 C7         -0.3159    0.1422    3.5898 C.3       1 <0>        -0.1943
      8 C8          0.9362   -0.0417    4.4081 C.2       1 <0>         0.4809
      9 O1          1.8053   -0.8080    4.0287 O.co2     1 <0>        -0.6845
     10 O2          1.0800    0.5758    5.4494 O.co2     1 <0>        -0.6821
     11 C9         -0.2890   -2.2586    2.8667 C.3       1 <0>        -0.0026
     12 N1         -1.4551   -2.4860    3.7307 N.4       1 <0>        -0.6374
     13 C10         1.3798   -0.6943   -0.9484 C.3       1 <0>        -0.1389
     14 H1          1.3924    1.8269    0.1868 H         1 <0>         0.0585
     15 H2          0.0460    1.6805   -0.9681 H         1 <0>         0.0529
     16 H3         -0.2867    1.7946    0.7768 H         1 <0>         0.0546
     17 H4         -1.5578   -0.1915   -0.6803 H         1 <0>         0.0697
     18 H5         -0.8946   -1.7923   -0.2133 H         1 <0>         0.0669
     19 H6         -1.8684    0.4728    1.6134 H         1 <0>         0.0828
     20 H7         -2.2916   -1.2668    1.6808 H         1 <0>         0.0499
     21 H8          1.5732   -1.4388    1.4644 H         1 <0>         0.0730
     22 H9          1.5540    0.2715    1.9795 H         1 <0>         0.0854
     23 H10        -0.3723    1.1724    3.2385 H         1 <0>         0.0832
     24 H11        -1.1879   -0.0802    4.2049 H         1 <0>         0.0476
     25 H12        -0.3399   -2.9243    2.0051 H         1 <0>         0.1198
     26 H13         0.6236   -2.4598    3.4278 H         1 <0>         0.1605
     27 H14        -1.3772   -1.9140    4.5582 H         1 <0>         0.4355
     28 H15        -2.2968   -2.2415    3.2309 H         1 <0>         0.4206
     29 H16         2.3865   -0.2942   -0.8283 H         1 <0>         0.0585
     30 H17         1.4077   -1.7805   -0.8614 H         1 <0>         0.0535
     31 H18         0.9938   -0.4183   -1.9297 H         1 <0>         0.0536
     32 H19        -1.4922   -3.4586    3.9965 H         1 <0>         0.4287
@<TRIPOS>BOND
     1    1    2 1
     2    1   14 1
     3    1   15 1
     4    1   16 1
     5    2    6 1
     6    2    3 1
     7    2   13 1
     8    3    4 1
     9    3   17 1
    10    3   18 1
    11    4    5 1
    12    4   19 1
    13    4   20 1
    14    5    6 1
    15    5    7 1
    16    5   11 1
    17    6   21 1
    18    6   22 1
    19    7    8 1
    20    7   23 1
    21    7   24 1
    22    8    9 2
    23    8   10 1
    24   11   12 1
    25   11   25 1
    26   11   26 1
    27   12   27 1
    28   12   28 1
    29   12   32 1
    30   13   29 1
    31   13   30 1
    32   13   31 1
@<TRIPOS>MOLECULE
ZINC33966194
   32    32     0     0     0
SMALL
USER_CHARGES

@<TRIPOS>ATOM
      1 C1         -0.2150    1.2460   -0.2735 C.3       1 <0>        -0.1413
      2 C2         -0.1028   -0.2731   -0.1299 C.3       1 <0>        -0.0778
      3 C3          0.7512   -0.8646   -1.2788 C.3       1 <0>        -0.1101
      4 C4          1.2568   -2.1991   -0.6767 C.3       1 <0>        -0.1390
      5 C5          1.5432   -1.8628    0.8014 C.3       1 <0>        -0.0577
      6 C6          0.6787   -0.6382    1.1490 C.3       1 <0>        -0.0778
      7 C7          3.0247   -1.5278    0.9851 C.3       1 <0>        -0.1911
      8 C8          3.2645   -1.0705    2.4009 C.2       1 <0>         0.4832
      9 O1          2.3537   -1.0927    3.2112 O.co2     1 <0>        -0.6869
     10 O2          4.3692   -0.6784    2.7360 O.co2     1 <0>        -0.6800
     11 C9          1.1584   -3.0458    1.6921 C.3       1 <0>        -0.0080
     12 N1          1.9847   -4.2096    1.3445 N.4       1 <0>        -0.6364
     13 C10        -1.4929   -0.9117   -0.1087 C.3       1 <0>        -0.1356
     14 H1          0.7831    1.6801   -0.3323 H         1 <0>         0.0574
     15 H2         -0.7692    1.4852   -1.1811 H         1 <0>         0.0537
     16 H3         -0.7388    1.6550    0.5905 H         1 <0>         0.0576
     17 H4          0.1381   -1.0467   -2.1615 H         1 <0>         0.0683
     18 H5          1.5872   -0.2069   -1.5168 H         1 <0>         0.0724
     19 H6          0.4868   -2.9671   -0.7509 H         1 <0>         0.0652
     20 H7          2.1690   -2.5224   -1.1780 H         1 <0>         0.0694
     21 H8          1.3147    0.1948    1.4486 H         1 <0>         0.0834
     22 H9         -0.0149   -0.8867    1.9523 H         1 <0>         0.0726
     23 H10         3.6255   -2.4145    0.7830 H         1 <0>         0.0478
     24 H11         3.3059   -0.7331    0.2941 H         1 <0>         0.0827
     25 H12         1.3228   -2.7825    2.7369 H         1 <0>         0.1663
     26 H13         0.1067   -3.2884    1.5397 H         1 <0>         0.1183
     27 H14         1.7793   -4.4978    0.3996 H         1 <0>         0.4207
     28 H15         2.9604   -3.9627    1.4162 H         1 <0>         0.4332
     29 H16        -2.0178   -0.6705   -1.0330 H         1 <0>         0.0542
     30 H17        -1.3944   -1.9935   -0.0185 H         1 <0>         0.0484
     31 H18        -2.0570   -0.5262    0.7407 H         1 <0>         0.0577
     32 H19         1.7820   -4.9675    1.9789 H         1 <0>         0.4293
@<TRIPOS>BOND
     1    1    2 1
     2    1   14 1
     3    1   15 1
     4    1   16 1
     5    2    6 1
     6    2    3 1
     7    2   13 1
     8    3    4 1
     9    3   17 1
    10    3   18 1
    11    4    5 1
    12    4   19 1
    13    4   20 1
    14    5    6 1
    15    5    7 1
    16    5   11 1
    17    6   21 1
    18    6   22 1
    19    7    8 1
    20    7   23 1
    21    7   24 1
    22    8    9 2
    23    8   10 1
    24   11   12 1
    25   11   25 1
    26   11   26 1
    27   12   27 1
    28   12   28 1
    29   12   32 1
    30   13   29 1
    31   13   30 1
    32   13   31 1
@<TRIPOS>MOLECULE
ZINC34016806
   26    26     0     0     0
SMALL
USER_CHARGES

@<TRIPOS>ATOM
      1 C1          0.3024    1.7645   -0.2859 C.3       1 <0>        -0.1221
      2 C2          1.8450    1.8836   -0.2138 C.3       1 <0>        -0.1313
      3 C3          2.3212    0.6413   -1.0070 C.3       1 <0>        -0.0988
      4 C4          1.3171   -0.4634   -0.6183 C.3       1 <0>        -0.0602
      5 C5          0.0335    0.2507   -0.1598 C.3       1 <0>        -0.1348
      6 C6          1.8837   -1.3081    0.5247 C.3       1 <0>        -0.1957
      7 C7          3.1505   -1.9852    0.0688 C.2       1 <0>         0.4792
      8 O1          3.6167   -1.7308   -1.0287 O.co2     1 <0>        -0.6840
      9 O2          3.7092   -2.7873    0.7974 O.co2     1 <0>        -0.6798
     10 C8          1.0195   -1.3506   -1.8288 C.3       1 <0>        -0.0049
     11 N1          0.1694   -2.4748   -1.4147 N.4       1 <0>        -0.6360
     12 H1         -0.1609    2.3043    0.5400 H         1 <0>         0.0668
     13 H2         -0.0649    2.1389   -1.2414 H         1 <0>         0.0662
     14 H3          2.1844    2.8016   -0.6934 H         1 <0>         0.0697
     15 H4          2.1882    1.8368    0.8198 H         1 <0>         0.0680
     16 H5          2.2800    0.8344   -2.0789 H         1 <0>         0.0653
     17 H6          3.3312    0.3615   -0.7073 H         1 <0>         0.0994
     18 H7         -0.1858   -0.0045    0.8769 H         1 <0>         0.0746
     19 H8         -0.8014   -0.0348   -0.7997 H         1 <0>         0.0555
     20 H9          2.1019   -0.6656    1.3777 H         1 <0>         0.0846
     21 H10         1.1529   -2.0627    0.8156 H         1 <0>         0.0502
     22 H11         0.5031   -0.7656   -2.5898 H         1 <0>         0.1181
     23 H12         1.9547   -1.7335   -2.2373 H         1 <0>         0.1640
     24 H13        -0.0847   -3.0205   -2.2245 H         1 <0>         0.4284
     25 H14         0.6743   -3.0559   -0.7625 H         1 <0>         0.4366
     26 H15        -0.6655   -2.1202   -0.9728 H         1 <0>         0.4208
@<TRIPOS>BOND
     1    1    5 1
     2    1    2 1
     3    1   12 1
     4    1   13 1
     5    2    3 1
     6    2   14 1
     7    2   15 1
     8    3    4 1
     9    3   16 1
    10    3   17 1
    11    4    5 1
    12    4    6 1
    13    4   10 1
    14    5   18 1
    15    5   19 1
    16    6    7 1
    17    6   20 1
    18    6   21 1
    19    7    8 2
    20    7    9 1
    21   10   11 1
    22   10   22 1
    23   10   23 1
    24   11   24 1
    25   11   25 1
    26   11   26 1
@<TRIPOS>MOLECULE
ZINC00004949
   29    29     0     0     0
SMALL
USER_CHARGES

@<TRIPOS>ATOM
      1 C1          0.6128    1.8465    0.4180 C.3       1 <0>        -0.1212
      2 C2          2.1217    2.0368    0.2505 C.3       1 <0>        -0.1215
      3 C3          2.5530    1.5106   -1.1199 C.3       1 <0>        -0.1148
      4 C4          2.2117    0.0229   -1.2255 C.3       1 <0>        -0.0532
      5 C5          0.7029   -0.1674   -1.0580 C.3       1 <0>        -0.1230
      6 C6          0.2715    0.3588    0.3124 C.3       1 <0>        -0.1198
      7 C7          2.9479   -0.7484   -0.1283 C.3       1 <0>        -0.2013
      8 C8          4.4351   -0.6014   -0.3223 C.2       1 <0>         0.4819
      9 O1          4.8663    0.1222   -1.2038 O.co2     1 <0>        -0.6833
     10 O2          5.2072   -1.2060    0.4021 O.co2     1 <0>        -0.6777
     11 C9          2.6430   -0.5033   -2.5959 C.3       1 <0>        -0.0118
     12 N1          2.4374   -1.9569   -2.6492 N.4       1 <0>        -0.6359
     13 H1          0.3056    2.2214    1.3943 H         1 <0>         0.0621
     14 H2          0.0883    2.3960   -0.3637 H         1 <0>         0.0601
     15 H3          2.3648    3.0966    0.3257 H         1 <0>         0.0643
     16 H4          2.6462    1.4873    1.0322 H         1 <0>         0.0668
     17 H5          2.0285    2.0600   -1.9017 H         1 <0>         0.0535
     18 H6          3.6279    1.6461   -1.2393 H         1 <0>         0.1158
     19 H7          0.1783    0.3821   -1.8397 H         1 <0>         0.0699
     20 H8          0.4597   -1.2273   -1.1332 H         1 <0>         0.0484
     21 H9          0.7961   -0.1907    1.0941 H         1 <0>         0.0688
     22 H10        -0.8034    0.2233    0.4318 H         1 <0>         0.0628
     23 H11         2.6676   -0.3497    0.8467 H         1 <0>         0.0910
     24 H12         2.6771   -1.8029   -0.1811 H         1 <0>         0.0488
     25 H13         2.0481   -0.0235   -3.3731 H         1 <0>         0.1166
     26 H14         3.6978   -0.2795   -2.7556 H         1 <0>         0.1694
     27 H15         1.4593   -2.1635   -2.5123 H         1 <0>         0.4196
     28 H16         2.7320   -2.3055   -3.5491 H         1 <0>         0.4287
     29 H17         2.9797   -2.4001   -1.9229 H         1 <0>         0.4352
@<TRIPOS>BOND
     1    1    6 1
     2    1    2 1
     3    1   13 1
     4    1   14 1
     5    2    3 1
     6    2   15 1
     7    2   16 1
     8    3    4 1
     9    3   17 1
    10    3   18 1
    11    4    5 1
    12    4    7 1
    13    4   11 1
    14    5    6 1
    15    5   19 1
    16    5   20 1
    17    6   21 1
    18    6   22 1
    19    7    8 1
    20    7   23 1
    21    7   24 1
    22    8    9 2
    23    8   10 1
    24   11   12 1
    25   11   25 1
    26   11   26 1
    27   12   27 1
    28   12   28 1
    29   12   29 1
