@<TRIPOS>MOLECULE
ZINC00001553
   30    32     0     0     0
SMALL
USER_CHARGES

@<TRIPOS>ATOM
      1 C1         -0.0169    1.3933    0.0097 C.ar      1 <0>        -0.0474
      2 C2          1.1680    2.0964    0.0022 C.ar      1 <0>        -0.1378
      3 C3          2.3808    1.4179   -0.0135 C.ar      1 <0>         0.1550
      4 C4          2.4041    0.0283   -0.0212 C.ar      1 <0>        -0.1353
      5 C5          1.2238   -0.6824   -0.0138 C.ar      1 <0>        -0.0626
      6 C6          0.0021   -0.0041    0.0020 C.ar      1 <0>        -0.0581
      7 C7         -1.2632   -0.7605    0.0105 C.2       1 <0>         0.1537
      8 N1         -2.3857   -0.1200    0.0198 N.2       1 <0>        -0.2436
      9 N2         -3.6108   -0.7914    0.0545 N.am      1 <0>        -0.5600
     10 C8         -3.6669   -2.0960    0.3833 C.2       1 <0>         0.4943
     11 O1         -4.7226   -2.6919    0.3373 O.2       1 <0>        -0.5184
     12 C9         -2.4092   -2.8127    0.8085 C.3       1 <0>        -0.1438
     13 C10        -1.2252   -2.2657    0.0021 C.3       1 <0>        -0.1215
     14 N3          3.5832    2.1367   -0.0221 N.pl3     1 <0>        -0.4158
     15 C11         4.8484    1.6087   -0.0430 C.2       1 <0>        -0.0544
     16 C12         5.7047    2.6479   -0.0442 C.2       1 <0>        -0.0182
     17 N4          4.9879    3.7814   -0.0245 N.2       1 <0>        -0.4823
     18 C13         3.7160    3.4888   -0.0171 C.2       1 <0>         0.1917
     19 H1         -0.9589    1.9212    0.0260 H         1 <0>         0.1471
     20 H2          1.1542    3.1763    0.0081 H         1 <0>         0.1387
     21 H3          3.3487   -0.4951   -0.0334 H         1 <0>         0.1384
     22 H4          1.2428   -1.7622   -0.0205 H         1 <0>         0.1429
     23 H5         -4.4274   -0.3137   -0.1596 H         1 <0>         0.4334
     24 H6         -2.2376   -2.6473    1.8721 H         1 <0>         0.1090
     25 H7         -2.5160   -3.8805    0.6174 H         1 <0>         0.1179
     26 H8         -1.2851   -2.6243   -1.0255 H         1 <0>         0.1018
     27 H9         -0.2926   -2.6075    0.4510 H         1 <0>         0.1077
     28 H10         5.1083    0.5605   -0.0556 H         1 <0>         0.1802
     29 H11         6.7825    2.5803   -0.0585 H         1 <0>         0.1768
     30 H12         2.9050    4.2019   -0.0057 H         1 <0>         0.2107
@<TRIPOS>BOND
     1    1    6 ar
     2    1    2 ar
     3    1   19 1
     4    2    3 ar
     5    2   20 1
     6    3    4 ar
     7    3   14 1
     8    4    5 ar
     9    4   21 1
    10    5    6 ar
    11    5   22 1
    12    6    7 1
    13    7   13 1
    14    7    8 2
    15    8    9 1
    16    9   10 am
    17    9   23 1
    18   10   11 2
    19   10   12 1
    20   12   13 1
    21   12   24 1
    22   12   25 1
    23   13   26 1
    24   13   27 1
    25   14   18 1
    26   14   15 1
    27   15   16 2
    28   15   28 1
    29   16   17 1
    30   16   29 1
    31   17   18 2
    32   18   30 1
@<TRIPOS>MOLECULE
ZINC00001553
   31    33     0     0     0
SMALL
USER_CHARGES

@<TRIPOS>ATOM
      1 C1         -0.0169    1.3933    0.0097 C.ar      1 <0>        -0.0564
      2 C2          1.1680    2.0964    0.0022 C.ar      1 <0>        -0.0994
      3 C3          2.3808    1.4179   -0.0135 C.ar      1 <0>         0.0862
      4 C4          2.4041    0.0283   -0.0212 C.ar      1 <0>        -0.1073
      5 C5          1.2238   -0.6824   -0.0138 C.ar      1 <0>        -0.0696
      6 C6          0.0021   -0.0041    0.0020 C.ar      1 <0>        -0.0043
      7 C7         -1.2632   -0.7605    0.0105 C.2       1 <0>         0.1265
      8 N1         -2.3857   -0.1200    0.0198 N.2       1 <0>        -0.2211
      9 N2         -3.6108   -0.7914    0.0545 N.am      1 <0>        -0.5570
     10 C8         -3.6669   -2.0960    0.3833 C.2       1 <0>         0.4939
     11 O1         -4.7226   -2.6919    0.3373 O.2       1 <0>        -0.5030
     12 C9         -2.4092   -2.8127    0.8085 C.3       1 <0>        -0.1449
     13 C10        -1.2252   -2.2657    0.0021 C.3       1 <0>        -0.1195
     14 N3          3.5832    2.1367   -0.0221 N.pl3     1 <0>        -0.3495
     15 C11         3.7173    3.5013   -0.0106 C.2       1 <0>         0.0226
     16 C12         5.0379    3.7635   -0.0251 C.2       1 <0>         0.0125
     17 N4          5.6968    2.5953   -0.0449 N.pl3     1 <0>        -0.4704
     18 C13         4.8369    1.6135   -0.0374 C.cat     1 <0>         0.2851
     19 H1         -0.9589    1.9212    0.0260 H         1 <0>         0.1590
     20 H2          1.1542    3.1763    0.0081 H         1 <0>         0.1468
     21 H3          3.3487   -0.4951   -0.0334 H         1 <0>         0.1453
     22 H4          1.2428   -1.7622   -0.0205 H         1 <0>         0.1564
     23 H5         -4.4274   -0.3137   -0.1596 H         1 <0>         0.4373
     24 H6         -2.2376   -2.6473    1.8721 H         1 <0>         0.1112
     25 H7         -2.5160   -3.8805    0.6174 H         1 <0>         0.1223
     26 H8         -1.2851   -2.6243   -1.0255 H         1 <0>         0.1047
     27 H9         -0.2926   -2.6075    0.4510 H         1 <0>         0.1075
     28 H10         2.9172    4.2265    0.0062 H         1 <0>         0.2254
     29 H11         5.4888    4.7449   -0.0214 H         1 <0>         0.2288
     30 H12         5.0809    0.5615   -0.0452 H         1 <0>         0.2625
     31 H13         6.6616    2.4957   -0.0583 H         1 <0>         0.4683
@<TRIPOS>BOND
     1    1    6 ar
     2    1    2 ar
     3    1   19 1
     4    2    3 ar
     5    2   20 1
     6    3    4 ar
     7    3   14 1
     8    4    5 ar
     9    4   21 1
    10    5    6 ar
    11    5   22 1
    12    6    7 1
    13    7   13 1
    14    7    8 2
    15    8    9 1
    16    9   10 am
    17    9   23 1
    18   10   11 2
    19   10   12 1
    20   12   13 1
    21   12   24 1
    22   12   25 1
    23   13   26 1
    24   13   27 1
    25   14   18 1
    26   14   15 1
    27   15   16 2
    28   15   28 1
    29   16   17 1
    30   16   29 1
    31   17   18 2
    32   17   31 1
    33   18   30 1
@<TRIPOS>MOLECULE
ZINC08144603
   29    30     0     0     0
SMALL
USER_CHARGES

@<TRIPOS>ATOM
      1 C1         -0.0184    1.5028    0.0103 C.3       1 <0>        -0.1200
      2 C2          0.0021   -0.0041    0.0020 C.2       1 <0>         0.4632
      3 N1          0.0050   -0.6288   -1.1442 N.2       1 <0>        -0.5686
      4 C3          0.0229   -1.9660   -1.2126 C.2       1 <0>         0.5136
      5 C4          0.0388   -2.7147   -0.0241 C.2       1 <0>        -0.3197
      6 C5          0.0351   -2.0107    1.2074 C.2       1 <0>         0.5645
      7 N2          0.0222   -0.6615    1.1776 N.am      1 <0>        -0.6360
      8 O1          0.0480   -2.6107    2.2684 O.2       1 <0>        -0.5245
      9 C6          0.0576   -4.1462   -0.0549 C.1       1 <0>         0.2847
     10 N3          0.0726   -5.2819   -0.0793 N.1       1 <0>        -0.4331
     11 N4          0.0252   -2.5987   -2.4315 N.pl3     1 <0>        -0.6828
     12 C7          0.0080   -1.8102   -3.6661 C.3       1 <0>         0.1686
     13 C8          0.0145   -2.7371   -4.8543 C.ar      1 <0>        -0.1755
     14 C9          1.2133   -3.1572   -5.4105 C.ar      1 <0>        -0.0525
     15 C10         1.1709   -4.0098   -6.5028 C.ar      1 <0>        -0.1737
     16 C11        -0.0562   -4.4100   -6.9976 C.ar      1 <0>         0.1120
     17 N5         -1.1764   -3.9900   -6.4433 N.ar      1 <0>        -0.4843
     18 C12        -1.1740   -3.1837   -5.3997 C.ar      1 <0>         0.1227
     19 H1          1.0042    1.8801    0.0026 H         1 <0>         0.1102
     20 H2         -0.5455    1.8639   -0.8728 H         1 <0>         0.1120
     21 H3         -0.5286    1.8543    0.9071 H         1 <0>         0.0965
     22 H4          0.0381   -3.5676   -2.4750 H         1 <0>         0.4183
     23 H5         -0.8906   -1.1937   -3.6910 H         1 <0>         0.0920
     24 H6          0.8892   -1.1695   -3.7003 H         1 <0>         0.0903
     25 H7          2.1575   -2.8277   -5.0027 H         1 <0>         0.1381
     26 H8          2.0850   -4.3567   -6.9615 H         1 <0>         0.1403
     27 H9         -0.0978   -5.0741   -7.8483 H         1 <0>         0.1602
     28 H10        -2.1119   -2.8649   -4.9693 H         1 <0>         0.1581
     29 H11         0.0236   -0.1615    2.0089 H         1 <0>         0.4253
@<TRIPOS>BOND
     1    1    2 1
     2    1   19 1
     3    1   20 1
     4    1   21 1
     5    2    7 1
     6    2    3 2
     7    3    4 1
     8    4    5 2
     9    4   11 1
    10    5    6 1
    11    5    9 1
    12    6    7 am
    13    6    8 2
    14    7   29 1
    15    9   10 3
    16   11   12 1
    17   11   22 1
    18   12   13 1
    19   12   23 1
    20   12   24 1
    21   13   18 ar
    22   13   14 ar
    23   14   15 ar
    24   14   25 1
    25   15   16 ar
    26   15   26 1
    27   16   17 ar
    28   16   27 1
    29   17   18 ar
    30   18   28 1
@<TRIPOS>MOLECULE
ZINC09224016
   25    26     0     0     0
SMALL
USER_CHARGES

@<TRIPOS>ATOM
      1 C1         -0.0184    1.5028    0.0103 C.3       1 <0>        -0.1391
      2 C2          0.0021   -0.0041    0.0020 C.2       1 <0>         0.2276
      3 C3         -1.1906   -0.6918    0.0041 C.2       1 <0>        -0.1838
      4 C4         -1.1990   -2.0975   -0.0031 C.2       1 <0>         0.0727
      5 C5          0.0161   -2.7742   -0.0126 C.2       1 <0>        -0.1606
      6 C6          1.2525   -1.9900   -0.0149 C.2       1 <0>         0.5412
      7 N1          1.1865   -0.6449   -0.0127 N.am      1 <0>        -0.5906
      8 O1          2.3345   -2.5509   -0.0232 O.2       1 <0>        -0.5158
      9 C7          0.0570   -4.2056   -0.0197 C.1       1 <0>         0.2716
     10 N2          0.0895   -5.3411   -0.0253 N.1       1 <0>        -0.4064
     11 C8         -2.4728    0.0540    0.0144 C.ar      1 <0>         0.0158
     12 C9         -2.8306    0.8519    1.1050 C.ar      1 <0>        -0.1625
     13 C10        -4.0319    1.5289    1.0733 C.ar      1 <0>         0.1042
     14 N3         -4.8375    1.4306    0.0329 N.ar      1 <0>        -0.4835
     15 C11        -4.5375    0.6886   -1.0161 C.ar      1 <0>         0.1054
     16 C12        -3.3536   -0.0172   -1.0689 C.ar      1 <0>        -0.1591
     17 H1          1.0042    1.8801    0.0026 H         1 <0>         0.0841
     18 H2         -0.5455    1.8639   -0.8728 H         1 <0>         0.1024
     19 H3         -0.5286    1.8543    0.9071 H         1 <0>         0.1042
     20 H4         -2.1318   -2.6419   -0.0008 H         1 <0>         0.1516
     21 H5         -2.1762    0.9367    1.9600 H         1 <0>         0.1377
     22 H6         -4.3172    2.1475    1.9114 H         1 <0>         0.1588
     23 H7         -5.2263    0.6366   -1.8464 H         1 <0>         0.1591
     24 H8         -3.1125   -0.6192   -1.9325 H         1 <0>         0.1389
     25 H9          2.0073   -0.1280   -0.0178 H         1 <0>         0.4261
@<TRIPOS>BOND
     1    1    2 1
     2    1   17 1
     3    1   18 1
     4    1   19 1
     5    2    7 1
     6    2    3 2
     7    3    4 1
     8    3   11 1
     9    4    5 2
    10    4   20 1
    11    5    6 1
    12    5    9 1
    13    6    7 am
    14    6    8 2
    15    7   25 1
    16    9   10 3
    17   11   16 ar
    18   11   12 ar
    19   12   13 ar
    20   12   21 1
    21   13   14 ar
    22   13   22 1
    23   14   15 ar
    24   15   16 ar
    25   15   23 1
    26   16   24 1
@<TRIPOS>MOLECULE
ZINC19796168
   63    66     0     0     0
SMALL
USER_CHARGES

@<TRIPOS>ATOM
      1 C1         -0.0187    1.5258    0.0104 C.3       1 <0>        -0.1516
      2 C2          0.0021   -0.0041    0.0020 C.3       1 <0>        -0.1160
      3 C3          0.7182   -0.4975   -1.2568 C.3       1 <0>        -0.0368
      4 C4          0.7386   -2.0043   -1.2651 C.2       1 <0>         0.1083
      5 C5          1.7436   -2.8145   -0.7017 C.2       1 <0>         0.0436
      6 C6          1.3716   -4.1454   -0.9309 C.2       1 <0>        -0.0357
      7 C7          2.2155   -5.1793   -0.4631 C.2       1 <0>         0.5719
      8 O1          1.9272   -6.3498   -0.6430 O.2       1 <0>        -0.5217
      9 N1          3.3497   -4.8379    0.1877 N.am      1 <0>        -0.6330
     10 H1          3.9439   -5.5300    0.5176 H         1 <0>         0.4219
     11 C8          3.6639   -3.5203    0.3833 C.2       1 <0>         0.3994
     12 N2          2.8908   -2.5515   -0.0437 N.2       1 <0>        -0.4298
     13 C9          4.9101   -3.1798    1.0980 C.ar      1 <0>        -0.1126
     14 C10         5.7536   -4.1922    1.5597 C.ar      1 <0>         0.0399
     15 C11         6.9158   -3.8678    2.2265 C.ar      1 <0>        -0.7185
     16 C12         7.2508   -2.5412    2.4411 C.ar      1 <0>         0.0430
     17 C13         6.4250   -1.5305    1.9894 C.ar      1 <0>        -0.2315
     18 C14         5.2556   -1.8391    1.3116 C.ar      1 <0>         0.2415
     19 O2          4.4461   -0.8467    0.8623 O.3       1 <0>        -0.2578
     20 C15         4.8632    0.4961    1.1168 C.3       1 <0>         0.0414
     21 C16         3.8319    1.4685    0.5407 C.3       1 <0>        -0.1519
     22 S1          7.9793   -5.1464    2.8085 S.o2      1 <0>         2.6926
     23 O3          8.7312   -4.5930    3.8798 O.2       1 <0>        -0.9482
     24 O4          7.1730   -6.3063    2.9631 O.2       1 <0>        -0.9501
     25 N3          9.0568   -5.4772    1.5953 N.pl3     1 <0>        -0.9979
     26 C17         8.7556   -6.4921    0.5742 C.3       1 <0>         0.1239
     27 C18         8.9742   -5.8704   -0.8093 C.3       1 <0>         0.0382
     28 N4         10.3268   -5.3015   -0.8788 N.3       1 <0>        -0.5395
     29 C19        10.4964   -4.2104    0.0900 C.3       1 <0>         0.0386
     30 C20        10.3376   -4.7598    1.5068 C.3       1 <0>         0.1243
     31 C21        10.6381   -4.8489   -2.2412 C.3       1 <0>         0.0245
     32 N5          0.1842   -4.1164   -1.6082 N.pl3     1 <0>        -0.3299
     33 N6         -0.1751   -2.7746   -1.7907 N.2       1 <0>        -0.2328
     34 C22        -0.5794   -5.2824   -2.0596 C.3       1 <0>         0.0994
     35 H2          1.0039    1.9031    0.0027 H         1 <0>         0.0577
     36 H3         -0.5459    1.8868   -0.8726 H         1 <0>         0.0559
     37 H4         -0.5289    1.8773    0.9072 H         1 <0>         0.0565
     38 H5          0.5293   -0.3651    0.8851 H         1 <0>         0.0665
     39 H6         -1.0205   -0.3814    0.0098 H         1 <0>         0.0628
     40 H7          0.1910   -0.1364   -2.1398 H         1 <0>         0.0831
     41 H8          1.7408   -0.1202   -1.2645 H         1 <0>         0.0935
     42 H9          5.4957   -5.2279    1.3950 H         1 <0>         0.1438
     43 H10         8.1628   -2.2958    2.9650 H         1 <0>         0.1492
     44 H11         6.6926   -0.4983    2.1608 H         1 <0>         0.1488
     45 H12         4.9489    0.6524    2.1922 H         1 <0>         0.0678
     46 H13         5.8306    0.6715    0.6460 H         1 <0>         0.0666
     47 H14         3.7463    1.3123   -0.5346 H         1 <0>         0.0692
     48 H15         2.8646    1.2931    1.0115 H         1 <0>         0.0720
     49 H16         4.1502    2.4927    0.7349 H         1 <0>         0.0796
     50 H17         9.4199   -7.3470    0.7005 H         1 <0>         0.0879
     51 H18         7.7185   -6.8131    0.6717 H         1 <0>         0.0935
     52 H19         8.8627   -6.6382   -1.5748 H         1 <0>         0.0901
     53 H20         8.2393   -5.0824   -0.9741 H         1 <0>         0.0394
     54 H21        11.4890   -3.7744   -0.0233 H         1 <0>         0.0905
     55 H22         9.7403   -3.4456   -0.0874 H         1 <0>         0.0393
     56 H23        10.3460   -3.9360    2.2206 H         1 <0>         0.0948
     57 H24        11.1569   -5.4449    1.7245 H         1 <0>         0.0867
     58 H25         9.9216   -4.0848   -2.5429 H         1 <0>         0.0257
     59 H26        11.6450   -4.4322   -2.2645 H         1 <0>         0.0713
     60 H27        10.5786   -5.6939   -2.9273 H         1 <0>         0.0713
     61 H28        -1.2781   -5.5834   -1.2791 H         1 <0>         0.0824
     62 H29        -1.1323   -5.0268   -2.9634 H         1 <0>         0.0965
     63 H30         0.1042   -6.1043   -2.2721 H         1 <0>         0.1003
@<TRIPOS>BOND
     1    1    2 1
     2    1   35 1
     3    1   36 1
     4    1   37 1
     5    2    3 1
     6    2   38 1
     7    2   39 1
     8    3    4 1
     9    3   40 1
    10    3   41 1
    11    4   33 2
    12    4    5 1
    13    5   12 1
    14    5    6 2
    15    6    7 1
    16    6   32 1
    17    7    8 2
    18    7    9 am
    19    9   10 1
    20    9   11 1
    21   11   12 2
    22   11   13 1
    23   13   18 ar
    24   13   14 ar
    25   14   15 ar
    26   14   42 1
    27   15   16 ar
    28   15   22 1
    29   16   17 ar
    30   16   43 1
    31   17   18 ar
    32   17   44 1
    33   18   19 1
    34   19   20 1
    35   20   21 1
    36   20   45 1
    37   20   46 1
    38   21   47 1
    39   21   48 1
    40   21   49 1
    41   22   23 2
    42   22   24 2
    43   22   25 1
    44   25   30 1
    45   25   26 1
    46   26   27 1
    47   26   50 1
    48   26   51 1
    49   27   28 1
    50   27   52 1
    51   27   53 1
    52   28   29 1
    53   28   31 1
    54   29   30 1
    55   29   54 1
    56   29   55 1
    57   30   56 1
    58   30   57 1
    59   31   58 1
    60   31   59 1
    61   31   60 1
    62   32   33 1
    63   32   34 1
    64   34   61 1
    65   34   62 1
    66   34   63 1
@<TRIPOS>MOLECULE
ZINC19796168
   63    66     0     0     0
SMALL
USER_CHARGES

@<TRIPOS>ATOM
      1 C1         -0.0187    1.5258    0.0104 C.3       1 <0>        -0.1539
      2 C2          0.0021   -0.0041    0.0020 C.3       1 <0>        -0.1188
      3 C3          0.7182   -0.4975   -1.2568 C.3       1 <0>        -0.0455
      4 C4          0.7386   -2.0043   -1.2651 C.2       1 <0>         0.0795
      5 C5          1.7371   -2.8090   -0.7054 C.2       1 <0>         0.0226
      6 C6          1.3740   -4.1350   -0.9304 C.2       1 <0>        -0.0270
      7 C7          2.2608   -5.1909   -0.4384 C.2       1 <0>         0.5560
      8 O1          1.9844   -6.3672   -0.6123 O.2       1 <0>        -0.4907
      9 N1          3.3842   -4.8398    0.2075 N.2       1 <0>        -0.5489
     10 C8          3.6977   -3.5767    0.4033 C.2       1 <0>         0.4949
     11 N2          2.9154   -2.5523   -0.0295 N.pl3     1 <0>        -0.5912
     12 C9          4.9471   -3.2598    1.1207 C.ar      1 <0>        -0.1387
     13 C10         5.3072   -1.9297    1.3507 C.ar      1 <0>         0.0502
     14 C11         6.4754   -1.6404    2.0219 C.ar      1 <0>        -0.7241
     15 C12         7.2958   -2.6630    2.4697 C.ar      1 <0>         0.0516
     16 C13         6.9520   -3.9820    2.2486 C.ar      1 <0>        -0.2347
     17 C14         5.7769   -4.2915    1.5805 C.ar      1 <0>         0.2542
     18 O2          5.4349   -5.5872    1.3679 O.3       1 <0>        -0.2513
     19 C15         6.3296   -6.5843    1.8652 C.3       1 <0>         0.0415
     20 C16         5.7806   -7.9733    1.5332 C.3       1 <0>        -0.1498
     21 S1          6.9282    0.0377    2.3112 S.o2      1 <0>         2.6935
     22 O3          8.3389    0.0542    2.4813 O.2       1 <0>        -0.9470
     23 O4          6.2716    0.8126    1.3174 O.2       1 <0>        -0.9501
     24 N3          6.2708    0.4783    3.7659 N.pl3     1 <0>        -0.9978
     25 C17         4.9211    1.0580    3.8397 C.3       1 <0>         0.1243
     26 C18         4.1139    0.2804    4.8848 C.3       1 <0>         0.0380
     27 N4          4.8523    0.2619    6.1546 N.3       1 <0>        -0.5392
     28 C19         6.1314   -0.4472    6.0169 C.3       1 <0>         0.0382
     29 C20         7.0189    0.2948    5.0189 C.3       1 <0>         0.1242
     30 C21         4.0386   -0.3238    7.2283 C.3       1 <0>         0.0243
     31 N5          0.1890   -4.1166   -1.6070 N.pl3     1 <0>        -0.3265
     32 N6         -0.1769   -2.7759   -1.7917 N.2       1 <0>        -0.2363
     33 C22        -0.5677   -5.2881   -2.0556 C.3       1 <0>         0.1018
     34 H1          1.0039    1.9031    0.0027 H         1 <0>         0.0587
     35 H2         -0.5459    1.8868   -0.8726 H         1 <0>         0.0584
     36 H3         -0.5289    1.8773    0.9072 H         1 <0>         0.0590
     37 H4          0.5293   -0.3651    0.8851 H         1 <0>         0.0617
     38 H5         -1.0205   -0.3814    0.0098 H         1 <0>         0.0685
     39 H6          0.1910   -0.1364   -2.1398 H         1 <0>         0.0924
     40 H7          1.7408   -0.1202   -1.2645 H         1 <0>         0.0851
     41 H8          4.6710   -1.1293    1.0027 H         1 <0>         0.1448
     42 H9          8.2097   -2.4272    2.9946 H         1 <0>         0.1511
     43 H10         7.5970   -4.7736    2.6002 H         1 <0>         0.1511
     44 H11         7.3075   -6.4595    1.4002 H         1 <0>         0.0690
     45 H12         6.4252   -6.4802    2.9460 H         1 <0>         0.0679
     46 H13         6.4630   -8.7339    1.9125 H         1 <0>         0.0796
     47 H14         4.8027   -8.0982    1.9981 H         1 <0>         0.0699
     48 H15         5.6850   -8.0774    0.4524 H         1 <0>         0.0705
     49 H16         4.9880    2.1054    4.1338 H         1 <0>         0.0882
     50 H17         4.4346    0.9780    2.8676 H         1 <0>         0.0929
     51 H18         3.1485    0.7644    5.0325 H         1 <0>         0.0901
     52 H19         3.9598   -0.7416    4.5387 H         1 <0>         0.0392
     53 H20         6.6291   -0.4910    6.9857 H         1 <0>         0.0908
     54 H21         5.9492   -1.4591    5.6551 H         1 <0>         0.0394
     55 H22         7.9186   -0.2894    4.8260 H         1 <0>         0.0949
     56 H23         7.2913    1.2675    5.4285 H         1 <0>         0.0873
     57 H24         3.7712   -1.3470    6.9645 H         1 <0>         0.0259
     58 H25         4.6091   -0.3253    8.1570 H         1 <0>         0.0715
     59 H26         3.1316    0.2663    7.3599 H         1 <0>         0.0715
     60 H27        -1.2651   -5.5910   -1.2745 H         1 <0>         0.0826
     61 H28        -1.1218   -5.0381   -2.9604 H         1 <0>         0.0959
     62 H29         0.1207   -6.1067   -2.2656 H         1 <0>         0.1018
     63 H30         3.1857   -1.6357    0.1370 H         1 <0>         0.4171
@<TRIPOS>BOND
     1    1    2 1
     2    1   34 1
     3    1   35 1
     4    1   36 1
     5    2    3 1
     6    2   37 1
     7    2   38 1
     8    3    4 1
     9    3   39 1
    10    3   40 1
    11    4   32 2
    12    4    5 1
    13    5   11 1
    14    5    6 2
    15    6    7 1
    16    6   31 1
    17    7    8 2
    18    7    9 1
    19    9   10 2
    20   10   11 1
    21   10   12 1
    22   11   63 1
    23   12   17 ar
    24   12   13 ar
    25   13   14 ar
    26   13   41 1
    27   14   15 ar
    28   14   21 1
    29   15   16 ar
    30   15   42 1
    31   16   17 ar
    32   16   43 1
    33   17   18 1
    34   18   19 1
    35   19   20 1
    36   19   44 1
    37   19   45 1
    38   20   46 1
    39   20   47 1
    40   20   48 1
    41   21   22 2
    42   21   23 2
    43   21   24 1
    44   24   29 1
    45   24   25 1
    46   25   26 1
    47   25   49 1
    48   25   50 1
    49   26   27 1
    50   26   51 1
    51   26   52 1
    52   27   28 1
    53   27   30 1
    54   28   29 1
    55   28   53 1
    56   28   54 1
    57   29   55 1
    58   29   56 1
    59   30   57 1
    60   30   58 1
    61   30   59 1
    62   31   32 1
    63   31   33 1
    64   33   60 1
    65   33   61 1
    66   33   62 1
@<TRIPOS>MOLECULE
ZINC19796168
   62    65     0     0     0
SMALL
USER_CHARGES

@<TRIPOS>ATOM
      1 C1         -0.0187    1.5258    0.0104 C.3       1 <0>        -0.1485
      2 C2          0.0021   -0.0041    0.0020 C.3       1 <0>        -0.1148
      3 C3         -1.4333   -0.5336    0.0129 C.3       1 <0>        -0.0265
      4 C4         -1.4129   -2.0405    0.0046 C.2       1 <0>         0.0755
      5 C5         -1.4070   -2.8569   -1.1475 C.ar      1 <0>         0.0668
      6 C6         -1.3869   -4.1920   -0.7014 C.ar      1 <0>        -0.0515
      7 C7         -1.3777   -5.2165   -1.6565 C.ar      1 <0>         0.4648
      8 O1         -1.3588   -6.5164   -1.2751 O.3       1 <0>        -0.6909
      9 N1         -1.3884   -4.8893   -2.9402 N.ar      1 <0>        -0.5725
     10 C8         -1.4074   -3.6162   -3.3266 C.ar      1 <0>         0.3612
     11 N2         -1.4163   -2.6161   -2.4630 N.ar      1 <0>        -0.5554
     12 C9         -1.4186   -3.3091   -4.7764 C.ar      1 <0>        -0.0636
     13 C10        -1.4328   -1.9850   -5.2116 C.ar      1 <0>         0.0543
     14 C11        -1.4432   -1.7045   -6.5622 C.ar      1 <0>        -0.7317
     15 C12        -1.4396   -2.7334   -7.4883 C.ar      1 <0>         0.0205
     16 C13        -1.4256   -4.0494   -7.0685 C.ar      1 <0>        -0.2451
     17 C14        -1.4092   -4.3463   -5.7145 C.ar      1 <0>         0.2216
     18 O2         -1.3897   -5.6394   -5.3005 O.3       1 <0>        -0.2427
     19 C15        -1.3811   -6.6454   -6.3153 C.3       1 <0>         0.0442
     20 C16        -1.3591   -8.0288   -5.6620 C.3       1 <0>        -0.1464
     21 S1         -1.4617   -0.0302   -7.1108 S.o2      1 <0>         2.6962
     22 O3         -2.0201   -0.0370   -8.4174 O.2       1 <0>        -0.9629
     23 O4         -2.0135    0.7385   -6.0505 O.2       1 <0>        -0.9522
     24 N3          0.1150    0.4496   -7.2724 N.pl3     1 <0>        -1.0004
     25 C17         0.8390    1.0557   -6.1447 C.3       1 <0>         0.1268
     26 C18         2.1670    0.3130   -5.9632 C.3       1 <0>         0.0372
     27 N4          2.8976    0.3041   -7.2376 N.3       1 <0>        -0.5398
     28 C19         2.1569   -0.4314   -8.2713 C.3       1 <0>         0.0376
     29 C20         0.8304    0.2753   -8.5456 C.3       1 <0>         0.1276
     30 C21         4.2487   -0.2463   -7.0660 C.3       1 <0>         0.0248
     31 N5         -1.3812   -4.1504    0.6672 N.pl3     1 <0>        -0.3678
     32 N6         -1.3920   -2.8055    1.0596 N.2       1 <0>        -0.2631
     33 C22        -1.3618   -5.3088    1.5638 C.3       1 <0>         0.1224
     34 H1          1.0039    1.9031    0.0027 H         1 <0>         0.0507
     35 H2         -0.5459    1.8868   -0.8726 H         1 <0>         0.0575
     36 H3         -0.5289    1.8773    0.9072 H         1 <0>         0.0512
     37 H4          0.5123   -0.3556   -0.8948 H         1 <0>         0.0656
     38 H5          0.5293   -0.3651    0.8851 H         1 <0>         0.0578
     39 H6         -1.9435   -0.1821    0.9097 H         1 <0>         0.0708
     40 H7         -1.9605   -0.1726   -0.8702 H         1 <0>         0.0861
     41 H8         -1.4360   -1.1795   -4.4922 H         1 <0>         0.1566
     42 H9         -1.4482   -2.5062   -8.5441 H         1 <0>         0.1359
     43 H10        -1.4233   -4.8477   -7.7959 H         1 <0>         0.1361
     44 H11        -2.2755   -6.5484   -6.9307 H         1 <0>         0.0581
     45 H12        -0.4957   -6.5243   -6.9395 H         1 <0>         0.0570
     46 H13        -1.3526   -8.7961   -6.4360 H         1 <0>         0.0694
     47 H14        -0.4647   -8.1258   -5.0466 H         1 <0>         0.0690
     48 H15        -2.2445   -8.1499   -5.0378 H         1 <0>         0.0696
     49 H16         1.0335    2.1070   -6.3571 H         1 <0>         0.0814
     50 H17         0.2427    0.9670   -5.2366 H         1 <0>         0.0979
     51 H18         2.7652    0.8176   -5.2045 H         1 <0>         0.0879
     52 H19         1.9704   -0.7122   -5.6495 H         1 <0>         0.0449
     53 H20         2.7478   -0.4666   -9.1865 H         1 <0>         0.0858
     54 H21         1.9605   -1.4462   -7.9254 H         1 <0>         0.0417
     55 H22         0.2284   -0.3292   -9.2240 H         1 <0>         0.0922
     56 H23         1.0240    1.2501   -8.9932 H         1 <0>         0.0807
     57 H24         4.1801   -1.2690   -6.6954 H         1 <0>         0.0264
     58 H25         4.7675   -0.2413   -8.0246 H         1 <0>         0.0675
     59 H26         4.8011    0.3631   -6.3508 H         1 <0>         0.0692
     60 H27        -0.3294   -5.5825    1.7815 H         1 <0>         0.0592
     61 H28        -1.8748   -5.0582    2.4923 H         1 <0>         0.0722
     62 H29        -1.8667   -6.1476    1.0847 H         1 <0>         0.0961
@<TRIPOS>BOND
     1    1    2 1
     2    1   34 1
     3    1   35 1
     4    1   36 1
     5    2    3 1
     6    2   37 1
     7    2   38 1
     8    3    4 1
     9    3   39 1
    10    3   40 1
    11    4   32 2
    12    4    5 1
    13    5   11 ar
    14    5    6 ar
    15    6    7 ar
    16    6   31 1
    17    7    8 1
    18    7    9 ar
    19    9   10 ar
    20   10   11 ar
    21   10   12 1
    22   12   17 ar
    23   12   13 ar
    24   13   14 ar
    25   13   41 1
    26   14   15 ar
    27   14   21 1
    28   15   16 ar
    29   15   42 1
    30   16   17 ar
    31   16   43 1
    32   17   18 1
    33   18   19 1
    34   19   20 1
    35   19   44 1
    36   19   45 1
    37   20   46 1
    38   20   47 1
    39   20   48 1
    40   21   22 2
    41   21   23 2
    42   21   24 1
    43   24   29 1
    44   24   25 1
    45   25   26 1
    46   25   49 1
    47   25   50 1
    48   26   27 1
    49   26   51 1
    50   26   52 1
    51   27   28 1
    52   27   30 1
    53   28   29 1
    54   28   53 1
    55   28   54 1
    56   29   55 1
    57   29   56 1
    58   30   57 1
    59   30   58 1
    60   30   59 1
    61   31   32 1
    62   31   33 1
    63   33   60 1
    64   33   61 1
    65   33   62 1
@<TRIPOS>MOLECULE
ZINC19796168
   64    67     0     0     0
SMALL
USER_CHARGES

@<TRIPOS>ATOM
      1 C1         -0.0187    1.5258    0.0104 C.3       1 <0>        -0.1524
      2 C2          0.0021   -0.0041    0.0020 C.3       1 <0>        -0.1163
      3 C3         -1.4333   -0.5336    0.0129 C.3       1 <0>        -0.0382
      4 C4         -1.4129   -2.0405    0.0046 C.2       1 <0>         0.1125
      5 C5         -1.4070   -2.8548   -1.1446 C.2       1 <0>         0.0358
      6 C6         -1.3861   -4.1841   -0.7032 C.2       1 <0>        -0.0303
      7 C7         -1.3769   -5.2214   -1.6643 C.2       1 <0>         0.5721
      8 O1         -1.3591   -6.3907   -1.3206 O.2       1 <0>        -0.5177
      9 N1         -1.3887   -4.8848   -2.9731 N.am      1 <0>        -0.6346
     10 H1         -1.3827   -5.5793   -3.6502 H         1 <0>         0.4185
     11 C8         -1.4095   -3.5686   -3.3476 C.2       1 <0>         0.3827
     12 N2         -1.4171   -2.5966   -2.4679 N.2       1 <0>        -0.4195
     13 C9         -1.4219   -3.2333   -4.7854 C.ar      1 <0>        -0.1025
     14 C10        -1.4183   -4.2493   -5.7432 C.ar      1 <0>         0.0333
     15 C11        -1.4299   -3.9298   -7.0842 C.ar      1 <0>        -0.7276
     16 C12        -1.4448   -2.6046   -7.4863 C.ar      1 <0>         0.0370
     17 C13        -1.4485   -1.5903   -6.5488 C.ar      1 <0>        -0.2285
     18 C14        -1.4433   -1.8942   -5.1961 C.ar      1 <0>         0.2470
     19 O2         -1.4527   -0.8984   -4.2738 O.3       1 <0>        -0.2539
     20 C15        -1.4745    0.4426   -4.7671 C.3       1 <0>         0.0414
     21 C16        -1.4823    1.4191   -3.5893 C.3       1 <0>        -0.1545
     22 S1         -1.4253   -5.2129   -8.2917 S.o2      1 <0>         2.6914
     23 O3         -0.8874   -4.6500   -9.4805 O.2       1 <0>        -0.9316
     24 O4         -0.8594   -6.3568   -7.6667 O.2       1 <0>        -0.9334
     25 N3         -3.0059   -5.5847   -8.6172 N.pl3     1 <0>        -1.0127
     26 C17        -3.7155   -6.6148   -7.8430 C.3       1 <0>         0.0947
     27 C18        -5.0462   -6.0287   -7.3599 C.3       1 <0>        -0.0248
     28 N4         -5.7976   -5.5098   -8.5098 N.4       1 <0>        -0.3832
     29 C19        -5.0699   -4.3889   -9.1182 C.3       1 <0>        -0.0235
     30 C20        -3.7420   -4.8899   -9.6846 C.3       1 <0>         0.0949
     31 C21        -7.1182   -5.0483   -8.0616 C.3       1 <0>        -0.0476
     32 N5         -1.3799   -4.1501    0.6637 N.pl3     1 <0>        -0.3251
     33 N6         -1.3920   -2.8068    1.0614 N.2       1 <0>        -0.2289
     34 C22        -1.3598   -5.3128    1.5547 C.3       1 <0>         0.0963
     35 H2          1.0039    1.9031    0.0027 H         1 <0>         0.0582
     36 H3         -0.5459    1.8868   -0.8726 H         1 <0>         0.0570
     37 H4         -0.5289    1.8773    0.9072 H         1 <0>         0.0575
     38 H5          0.5123   -0.3556   -0.8948 H         1 <0>         0.0655
     39 H6          0.5293   -0.3651    0.8851 H         1 <0>         0.0644
     40 H7         -1.9435   -0.1821    0.9097 H         1 <0>         0.0854
     41 H8         -1.9605   -0.1726   -0.8702 H         1 <0>         0.0931
     42 H9         -1.4060   -5.2840   -5.4339 H         1 <0>         0.1444
     43 H10        -1.4531   -2.3629   -8.5389 H         1 <0>         0.1495
     44 H11        -1.4598   -0.5592   -6.8698 H         1 <0>         0.1518
     45 H12        -0.5902    0.6189   -5.3794 H         1 <0>         0.0706
     46 H13        -2.3699    0.5934   -5.3701 H         1 <0>         0.0677
     47 H14        -1.4990    2.4420   -3.9655 H         1 <0>         0.0830
     48 H15        -2.3667    1.2428   -2.9770 H         1 <0>         0.0703
     49 H16        -0.5869    1.2683   -2.9863 H         1 <0>         0.0743
     50 H17        -3.9053   -7.4822   -8.4752 H         1 <0>         0.1071
     51 H18        -3.1115   -6.9087   -6.9845 H         1 <0>         0.1349
     52 H19        -5.6284   -6.8070   -6.8666 H         1 <0>         0.1469
     53 H20        -4.8527   -5.2186   -6.6568 H         1 <0>         0.1345
     54 H21        -5.6695   -3.9589   -9.9204 H         1 <0>         0.1472
     55 H22        -4.8756   -3.6285   -8.3618 H         1 <0>         0.1345
     56 H23        -3.1556   -4.0439  -10.0432 H         1 <0>         0.1362
     57 H24        -3.9345   -5.5801  -10.5059 H         1 <0>         0.1058
     58 H25        -6.9949   -4.2582   -7.3209 H         1 <0>         0.1220
     59 H26        -7.6771   -4.6629   -8.9144 H         1 <0>         0.1268
     60 H27        -7.6626   -5.8814   -7.6170 H         1 <0>         0.1264
     61 H28        -0.3273   -5.5873    1.7707 H         1 <0>         0.0857
     62 H29        -1.8725   -5.0668    2.4846 H         1 <0>         0.0997
     63 H30        -1.8648   -6.1494    1.0718 H         1 <0>         0.1010
     64 H31        -5.9143   -6.2436   -9.1925 H         1 <0>         0.4277
@<TRIPOS>BOND
     1    1    2 1
     2    1   35 1
     3    1   36 1
     4    1   37 1
     5    2    3 1
     6    2   38 1
     7    2   39 1
     8    3    4 1
     9    3   40 1
    10    3   41 1
    11    4   33 2
    12    4    5 1
    13    5   12 1
    14    5    6 2
    15    6    7 1
    16    6   32 1
    17    7    8 2
    18    7    9 am
    19    9   10 1
    20    9   11 1
    21   11   12 2
    22   11   13 1
    23   13   18 ar
    24   13   14 ar
    25   14   15 ar
    26   14   42 1
    27   15   16 ar
    28   15   22 1
    29   16   17 ar
    30   16   43 1
    31   17   18 ar
    32   17   44 1
    33   18   19 1
    34   19   20 1
    35   20   21 1
    36   20   45 1
    37   20   46 1
    38   21   47 1
    39   21   48 1
    40   21   49 1
    41   22   23 2
    42   22   24 2
    43   22   25 1
    44   25   30 1
    45   25   26 1
    46   26   27 1
    47   26   50 1
    48   26   51 1
    49   27   28 1
    50   27   52 1
    51   27   53 1
    52   28   29 1
    53   28   31 1
    54   28   64 1
    55   29   30 1
    56   29   54 1
    57   29   55 1
    58   30   56 1
    59   30   57 1
    60   31   58 1
    61   31   59 1
    62   31   60 1
    63   32   33 1
    64   32   34 1
    65   34   61 1
    66   34   62 1
    67   34   63 1
@<TRIPOS>MOLECULE
ZINC00056555
   46    48     0     0     0
SMALL
USER_CHARGES

@<TRIPOS>ATOM
      1 C1         -0.0173    1.4248    0.0099 C.3       1 <0>         0.0258
      2 O1          0.0021   -0.0041    0.0020 O.3       1 <0>        -0.3063
      3 C2          0.6262   -0.6188    1.0422 C.ar      1 <0>         0.0999
      4 C3          1.2021    0.1367    2.0510 C.ar      1 <0>        -0.1710
      5 C4          1.8358   -0.4897    3.1079 C.ar      1 <0>        -0.1122
      6 C5          1.8971   -1.8699    3.1612 C.ar      1 <0>        -0.0760
      7 C6          1.3251   -2.6295    2.1578 C.ar      1 <0>        -0.1547
      8 C7          0.6830   -2.0080    1.0988 C.ar      1 <0>         0.1015
      9 O2          0.1145   -2.7540    0.1140 O.3       1 <0>        -0.3064
     10 C8          0.2115   -4.1743    0.2380 C.3       1 <0>         0.0255
     11 C9          2.5896   -2.5476    4.3154 C.3       1 <0>        -0.0305
     12 C10         1.5954   -2.8002    5.4194 C.ar      1 <0>         0.1803
     13 C11         1.3868   -1.8306    6.4126 C.ar      1 <0>        -0.0927
     14 C12         2.0813   -0.6102    6.4178 C.ar      1 <0>        -0.1656
     15 C13         1.8397    0.2976    7.4073 C.ar      1 <0>         0.1202
     16 C14         0.9067    0.0284    8.4207 C.ar      1 <0>         0.1418
     17 C15         0.2161   -1.1496    8.4419 C.ar      1 <0>        -0.1891
     18 C16         0.4428   -2.1015    7.4380 C.ar      1 <0>        -0.0102
     19 C17        -0.2384   -3.3323    7.4069 C.ar      1 <0>        -0.1601
     20 C18         0.0362   -4.2060    6.3992 C.ar      1 <0>         0.0826
     21 N1          0.9194   -3.9252    5.4505 N.ar      1 <0>        -0.4840
     22 O3          0.6880    0.9516    9.3935 O.3       1 <0>        -0.3019
     23 C19        -0.2734    0.6206   10.3977 C.3       1 <0>         0.0223
     24 O4          2.5122    1.4790    7.4120 O.3       1 <0>        -0.3019
     25 C20         3.4494    1.6962    6.3553 C.3       1 <0>         0.0208
     26 H1          1.0053    1.8021    0.0021 H         1 <0>         0.0553
     27 H2         -0.5445    1.7859   -0.8732 H         1 <0>         0.1013
     28 H3         -0.5275    1.7763    0.9067 H         1 <0>         0.0545
     29 H4          1.1562    1.2150    2.0113 H         1 <0>         0.1358
     30 H5          2.2842    0.1003    3.8935 H         1 <0>         0.1221
     31 H6          1.3747   -3.7075    2.2017 H         1 <0>         0.1401
     32 H7          1.2614   -4.4664    0.2576 H         1 <0>         0.0558
     33 H8         -0.2714   -4.4922    1.1620 H         1 <0>         0.0564
     34 H9         -0.2815   -4.6476   -0.6111 H         1 <0>         0.1010
     35 H10         3.0097   -3.4961    3.9808 H         1 <0>         0.0985
     36 H11         3.3894   -1.9067    4.6863 H         1 <0>         0.0913
     37 H12         2.8023   -0.3917    5.6438 H         1 <0>         0.1473
     38 H13        -0.4993   -1.3466    9.2266 H         1 <0>         0.1459
     39 H14        -0.9645   -3.5793    8.1673 H         1 <0>         0.1371
     40 H15        -0.4831   -5.1525    6.3692 H         1 <0>         0.1540
     41 H16        -0.3511    1.4413   11.1107 H         1 <0>         0.1057
     42 H17        -1.2436    0.4521    9.9304 H         1 <0>         0.0589
     43 H18         0.0414   -0.2840   10.9179 H         1 <0>         0.0591
     44 H19         4.2164    0.9223    6.3853 H         1 <0>         0.0590
     45 H20         2.9316    1.6577    5.3969 H         1 <0>         0.0571
     46 H21         3.9148    2.6741    6.4778 H         1 <0>         0.1062
@<TRIPOS>BOND
     1    1    2 1
     2    1   26 1
     3    1   27 1
     4    1   28 1
     5    2    3 1
     6    3    8 ar
     7    3    4 ar
     8    4    5 ar
     9    4   29 1
    10    5    6 ar
    11    5   30 1
    12    6    7 ar
    13    6   11 1
    14    7    8 ar
    15    7   31 1
    16    8    9 1
    17    9   10 1
    18   10   32 1
    19   10   33 1
    20   10   34 1
    21   11   12 1
    22   11   35 1
    23   11   36 1
    24   12   21 ar
    25   12   13 ar
    26   13   18 ar
    27   13   14 ar
    28   14   15 ar
    29   14   37 1
    30   15   16 ar
    31   15   24 1
    32   16   17 ar
    33   16   22 1
    34   17   18 ar
    35   17   38 1
    36   18   19 ar
    37   19   20 ar
    38   19   39 1
    39   20   21 ar
    40   20   40 1
    41   22   23 1
    42   23   41 1
    43   23   42 1
    44   23   43 1
    45   24   25 1
    46   25   44 1
    47   25   45 1
    48   25   46 1
@<TRIPOS>MOLECULE
ZINC13736993
   43    45     0     0     0
SMALL
USER_CHARGES
N-(3-chloro-4-pyridyl)-3-(cyclopentoxy)-4-methoxy-benzamide
@<TRIPOS>ATOM
      1 C1         -8.2387    7.4861   -0.3809 C.3       1 <0>         0.0218
      2 O1         -8.3582    6.0622   -0.3906 O.3       1 <0>        -0.2981
      3 C2         -7.2116    5.3482   -0.5310 C.ar      1 <0>         0.1364
      4 C3         -5.9962    6.0074   -0.6573 C.ar      1 <0>        -0.1816
      5 C4         -4.8295    5.2875   -0.7947 C.ar      1 <0>        -0.0758
      6 C5         -4.8689    3.8910   -0.8188 C.ar      1 <0>        -0.1444
      7 C6         -6.0922    3.2273   -0.6916 C.ar      1 <0>        -0.1095
      8 C7         -7.2575    3.9550   -0.5484 C.ar      1 <0>         0.0988
      9 O2         -8.4496    3.3123   -0.4239 O.3       1 <0>        -0.2924
     10 C8         -8.4105    1.8880   -0.3152 C.3       1 <0>         0.0756
     11 C9         -8.4021    1.2508   -1.7202 C.3       1 <0>        -0.1504
     12 C10        -9.2743   -0.0206   -1.5650 C.3       1 <0>        -0.1236
     13 C11       -10.3975    0.4492   -0.6075 C.3       1 <0>        -0.1237
     14 C12        -9.6784    1.3783    0.3922 C.3       1 <0>        -0.1208
     15 C13        -3.6209    3.1185   -0.9721 C.2       1 <0>         0.5708
     16 O3         -3.6562    1.9033   -0.9878 O.2       1 <0>        -0.5052
     17 N1         -2.4420    3.7601   -1.0946 N.am      1 <0>        -0.6597
     18 C14        -1.2777    3.0365   -1.3537 C.ar      1 <0>         0.2078
     19 C15        -1.3400    1.7307   -1.8378 C.ar      1 <0>        -0.1868
     20 C16        -0.1658    1.0472   -2.0762 C.ar      1 <0>         0.1265
     21 N2          1.0049    1.6176   -1.8625 N.ar      1 <0>        -0.4854
     22 C17         1.1067    2.8532   -1.4105 C.ar      1 <0>         0.1398
     23 C18        -0.0208    3.6030   -1.1411 C.ar      1 <0>        -0.1330
     24 Cl1         0.1235    5.2273   -0.5457 Cl        1 <0>        -0.0509
     25 H1         -9.2259    7.9328   -0.2627 H         1 <0>         0.1056
     26 H2         -7.6001    7.7916    0.4480 H         1 <0>         0.0592
     27 H3         -7.7989    7.8202   -1.3206 H         1 <0>         0.0592
     28 H4         -5.9648    7.0868   -0.6434 H         1 <0>         0.1460
     29 H5         -3.8849    5.8027   -0.8883 H         1 <0>         0.1301
     30 H6         -6.1262    2.1480   -0.7049 H         1 <0>         0.1529
     31 H7         -7.5241    1.5803    0.2395 H         1 <0>         0.0779
     32 H8         -8.8440    1.9297   -2.4495 H         1 <0>         0.0808
     33 H9         -7.3864    0.9843   -2.0121 H         1 <0>         0.0734
     34 H10        -8.6988   -0.8308   -1.1172 H         1 <0>         0.0713
     35 H11        -9.6884   -0.3249   -2.5263 H         1 <0>         0.0728
     36 H12       -10.8373   -0.4024   -0.0884 H         1 <0>         0.0717
     37 H13       -11.1620    0.9986   -1.1568 H         1 <0>         0.0705
     38 H14        -9.4073    0.8226    1.2898 H         1 <0>         0.0787
     39 H15       -10.3235    2.2174    0.6526 H         1 <0>         0.0828
     40 H16        -2.4031    4.7249   -1.0026 H         1 <0>         0.4165
     41 H17        -2.2945    1.2591   -2.0192 H         1 <0>         0.1761
     42 H18        -0.2051    0.0335   -2.4468 H         1 <0>         0.1687
     43 H19         2.0842    3.2831   -1.2490 H         1 <0>         0.1695
@<TRIPOS>BOND
     1    1    2 1
     2    1   25 1
     3    1   26 1
     4    1   27 1
     5    2    3 1
     6    3    8 ar
     7    3    4 ar
     8    4    5 ar
     9    4   28 1
    10    5    6 ar
    11    5   29 1
    12    6    7 ar
    13    6   15 1
    14    7    8 ar
    15    7   30 1
    16    8    9 1
    17    9   10 1
    18   10   14 1
    19   10   11 1
    20   10   31 1
    21   11   12 1
    22   11   32 1
    23   11   33 1
    24   12   13 1
    25   12   34 1
    26   12   35 1
    27   13   14 1
    28   13   36 1
    29   13   37 1
    30   14   38 1
    31   14   39 1
    32   15   16 2
    33   15   17 am
    34   17   18 1
    35   17   40 1
    36   18   23 ar
    37   18   19 ar
    38   19   20 ar
    39   19   41 1
    40   20   21 ar
    41   20   42 1
    42   21   22 ar
    43   22   23 ar
    44   22   43 1
    45   23   24 1
@<TRIPOS>MOLECULE
ZINC00617116
   34    35     0     0     0
SMALL
USER_CHARGES
N-(2,6-difluorophenyl)-3,4-dimethoxy-benzamide
@<TRIPOS>ATOM
      1 C1          4.4185    1.8703   -0.2998 C.3       1 <0>         0.0224
      2 O1          3.6529    1.7081   -1.4955 O.3       1 <0>        -0.2998
      3 C2          2.5462    0.9250   -1.4175 C.ar      1 <0>         0.1334
      4 C3          2.2055    0.3253   -0.2126 C.ar      1 <0>        -0.1821
      5 C4          1.0838   -0.4705   -0.1283 C.ar      1 <0>        -0.0749
      6 C5          0.2858   -0.6747   -1.2568 C.ar      1 <0>        -0.1371
      7 C6          0.6283   -0.0709   -2.4696 C.ar      1 <0>        -0.1105
      8 C7          1.7544    0.7254   -2.5473 C.ar      1 <0>         0.0936
      9 O2          2.0908    1.3142   -3.7262 O.3       1 <0>        -0.3028
     10 C8          1.2346    1.0659   -4.8430 C.3       1 <0>         0.0224
     11 C9         -0.9160   -1.5268   -1.1683 C.2       1 <0>         0.5725
     12 O3         -1.6094   -1.7040   -2.1514 O.2       1 <0>        -0.5181
     13 N1         -1.2449   -2.1085    0.0021 N.am      1 <0>        -0.6789
     14 C10        -2.4421   -2.8275    0.1150 C.ar      1 <0>         0.0620
     15 C11        -3.6210   -2.1702    0.4472 C.ar      1 <0>         0.1390
     16 C12        -4.8022   -2.8827    0.5516 C.ar      1 <0>        -0.1587
     17 C13        -4.8089   -4.2487    0.3376 C.ar      1 <0>        -0.0518
     18 C14        -3.6372   -4.9071    0.0130 C.ar      1 <0>        -0.1590
     19 C15        -2.4530   -4.2008   -0.0994 C.ar      1 <0>         0.1395
     20 F1         -1.3087   -4.8450   -0.4166 F         1 <0>        -0.1223
     21 F2         -3.6143   -0.8365    0.6624 F         1 <0>        -0.1224
     22 H1          3.7950    2.3205    0.4726 H         1 <0>         0.0589
     23 H2          4.7719    0.8968    0.0402 H         1 <0>         0.0588
     24 H3          5.2726    2.5171   -0.5002 H         1 <0>         0.1049
     25 H4          2.8213    0.4827    0.6606 H         1 <0>         0.1453
     26 H5          0.8213   -0.9360    0.8101 H         1 <0>         0.1316
     27 H6          0.0164   -0.2300   -3.3452 H         1 <0>         0.1509
     28 H7          1.2058   -0.0043   -5.0479 H         1 <0>         0.0581
     29 H8          0.2289    1.4195   -4.6155 H         1 <0>         0.0581
     30 H9          1.6160    1.5932   -5.7175 H         1 <0>         0.1049
     31 H10        -0.6528   -2.0294    0.7664 H         1 <0>         0.4126
     32 H11        -5.7194   -2.3720    0.8050 H         1 <0>         0.1496
     33 H12        -5.7318   -4.8029    0.4245 H         1 <0>         0.1502
     34 H13        -3.6465   -5.9742   -0.1534 H         1 <0>         0.1496
@<TRIPOS>BOND
     1    1    2 1
     2    1   22 1
     3    1   23 1
     4    1   24 1
     5    2    3 1
     6    3    8 ar
     7    3    4 ar
     8    4    5 ar
     9    4   25 1
    10    5    6 ar
    11    5   26 1
    12    6    7 ar
    13    6   11 1
    14    7    8 ar
    15    7   27 1
    16    8    9 1
    17    9   10 1
    18   10   28 1
    19   10   29 1
    20   10   30 1
    21   11   12 2
    22   11   13 am
    23   13   14 1
    24   13   31 1
    25   14   19 ar
    26   14   15 ar
    27   15   16 ar
    28   15   21 1
    29   16   17 ar
    30   16   32 1
    31   17   18 ar
    32   17   33 1
    33   18   19 ar
    34   18   34 1
    35   19   20 1
@<TRIPOS>MOLECULE
ZINC00598965
   43    45     0     0     0
SMALL
USER_CHARGES
3-cyclopentoxy-N-(3,5-dichloro-4-pyridyl)-4-methoxy-benzamide
@<TRIPOS>ATOM
      1 C1          9.6941    5.2505   -0.4383 C.3       1 <0>         0.0223
      2 O1          8.5286    6.0007   -0.7860 O.3       1 <0>        -0.2989
      3 C2          7.3431    5.3385   -0.7746 C.ar      1 <0>         0.1325
      4 C3          7.3045    3.9929   -0.4347 C.ar      1 <0>        -0.1806
      5 C4          6.1035    3.3178   -0.4166 C.ar      1 <0>        -0.0791
      6 C5          4.9221    3.9847   -0.7510 C.ar      1 <0>        -0.1335
      7 C6          4.9607    5.3392   -1.0927 C.ar      1 <0>        -0.1127
      8 C7          6.1674    6.0114   -1.1038 C.ar      1 <0>         0.0992
      9 O2          6.2084    7.3297   -1.4354 O.3       1 <0>        -0.2923
     10 C8          4.9555    7.9917   -1.6195 C.3       1 <0>         0.0740
     11 C9          4.5596    7.9686   -3.1103 C.3       1 <0>        -0.1466
     12 C10         3.8906    9.3463   -3.3463 C.3       1 <0>        -0.1237
     13 C11         4.7525   10.2985   -2.4805 C.3       1 <0>        -0.1234
     14 C12         5.0777    9.4723   -1.2190 C.3       1 <0>        -0.1230
     15 C13         3.6357    3.2617   -0.7376 C.2       1 <0>         0.5534
     16 O3          2.6078    3.8446   -1.0241 O.2       1 <0>        -0.4848
     17 N1          3.6002    1.9554   -0.4079 N.am      1 <0>        -0.6654
     18 C14         2.3955    1.2532   -0.4672 C.ar      1 <0>         0.2115
     19 C15         2.0520    0.3365    0.5262 C.ar      1 <0>        -0.1092
     20 C16         0.8509   -0.3377    0.4303 C.ar      1 <0>         0.1361
     21 N2          0.0338   -0.1235   -0.5835 N.ar      1 <0>        -0.4618
     22 C17         0.3226    0.7354   -1.5429 C.ar      1 <0>         0.1370
     23 C18         1.5038    1.4499   -1.5213 C.ar      1 <0>        -0.0892
     24 Cl1         1.8740    2.5769   -2.7888 Cl        1 <0>        -0.0061
     25 Cl2         3.1192    0.0475    1.8645 Cl        1 <0>        -0.0347
     26 H1         10.5703    5.8971   -0.4870 H         1 <0>         0.1049
     27 H2          9.5864    4.8600    0.5736 H         1 <0>         0.0587
     28 H3          9.8146    4.4222   -1.1365 H         1 <0>         0.0587
     29 H4          8.2175    3.4752   -0.1800 H         1 <0>         0.1449
     30 H5          6.0758    2.2723   -0.1475 H         1 <0>         0.1294
     31 H6          4.0490    5.8593   -1.3472 H         1 <0>         0.1519
     32 H7          4.1851    7.5054   -1.0211 H         1 <0>         0.0798
     33 H8          5.4441    7.8616   -3.7383 H         1 <0>         0.0809
     34 H9          3.8527    7.1620   -3.3049 H         1 <0>         0.0720
     35 H10         2.8573    9.3378   -2.9993 H         1 <0>         0.0709
     36 H11         3.9436    9.6265   -4.3984 H         1 <0>         0.0727
     37 H12         4.1861   11.1914   -2.2163 H         1 <0>         0.0713
     38 H13         5.6684   10.5682   -3.0065 H         1 <0>         0.0704
     39 H14         4.3661    9.7048   -0.4267 H         1 <0>         0.0777
     40 H15         6.0928    9.6860   -0.8842 H         1 <0>         0.0823
     41 H16         4.4119    1.5033   -0.1293 H         1 <0>         0.4177
     42 H17         0.5745   -1.0461    1.1973 H         1 <0>         0.1776
     43 H18        -0.3741    0.8815   -2.3551 H         1 <0>         0.1772
@<TRIPOS>BOND
     1    1    2 1
     2    1   26 1
     3    1   27 1
     4    1   28 1
     5    2    3 1
     6    3    8 ar
     7    3    4 ar
     8    4    5 ar
     9    4   29 1
    10    5    6 ar
    11    5   30 1
    12    6    7 ar
    13    6   15 1
    14    7    8 ar
    15    7   31 1
    16    8    9 1
    17    9   10 1
    18   10   14 1
    19   10   11 1
    20   10   32 1
    21   11   12 1
    22   11   33 1
    23   11   34 1
    24   12   13 1
    25   12   35 1
    26   12   36 1
    27   13   14 1
    28   13   37 1
    29   13   38 1
    30   14   39 1
    31   14   40 1
    32   15   16 2
    33   15   17 am
    34   17   18 1
    35   17   41 1
    36   18   23 ar
    37   18   19 ar
    38   19   20 ar
    39   19   25 1
    40   20   21 ar
    41   20   42 1
    42   21   22 ar
    43   22   23 ar
    44   22   43 1
    45   23   24 1
@<TRIPOS>MOLECULE
ZINC00293064
   34    35     0     0     0
SMALL
USER_CHARGES
N-(2-chlorophenyl)-3,4-dimethoxy-benzamide
@<TRIPOS>ATOM
      1 C1         -8.2993   -1.9567    0.5483 C.3       1 <0>         0.0221
      2 O1         -8.3985   -0.5313    0.5636 O.3       1 <0>        -0.2995
      3 C2         -7.2394    0.1686    0.4598 C.ar      1 <0>         0.1346
      4 C3         -6.0311   -0.5056    0.3451 C.ar      1 <0>        -0.1820
      5 C4         -4.8527    0.1999    0.2346 C.ar      1 <0>        -0.0754
      6 C5         -4.8710    1.5968    0.2476 C.ar      1 <0>        -0.1405
      7 C6         -6.0871    2.2756    0.3626 C.ar      1 <0>        -0.1097
      8 C7         -7.2653    1.5623    0.4681 C.ar      1 <0>         0.0933
      9 O2         -8.4505    2.2198    0.5806 O.3       1 <0>        -0.3027
     10 C8         -8.4025    3.6480    0.5828 C.3       1 <0>         0.0225
     11 C9         -3.6093    2.3540    0.1341 C.2       1 <0>         0.5688
     12 O3         -3.6272    3.5698    0.1405 O.2       1 <0>        -0.5149
     13 N1         -2.4373    1.6978    0.0233 N.am      1 <0>        -0.6677
     14 C10        -1.2343    2.4120    0.0104 C.ar      1 <0>         0.1555
     15 C11        -1.1742    3.6634   -0.5886 C.ar      1 <0>        -0.1099
     16 C12         0.0161    4.3637   -0.6043 C.ar      1 <0>        -0.0952
     17 C13         1.1468    3.8224   -0.0203 C.ar      1 <0>        -0.1208
     18 C14         1.0902    2.5788    0.5813 C.ar      1 <0>        -0.0919
     19 C15        -0.0977    1.8725    0.6007 C.ar      1 <0>        -0.0641
     20 Cl1        -0.1681    0.3106    1.3552 Cl        1 <0>        -0.0651
     21 H1         -7.8454   -2.2794   -0.3887 H         1 <0>         0.0591
     22 H2         -7.6820   -2.2870    1.3838 H         1 <0>         0.0591
     23 H3         -9.2949   -2.3912    0.6382 H         1 <0>         0.1052
     24 H4         -6.0153   -1.5855    0.3382 H         1 <0>         0.1455
     25 H5         -3.9146   -0.3271    0.1413 H         1 <0>         0.1308
     26 H6         -6.1057    3.3554    0.3686 H         1 <0>         0.1518
     27 H7         -7.7971    3.9899    1.4223 H         1 <0>         0.0582
     28 H8         -7.9608    3.9981   -0.3501 H         1 <0>         0.0582
     29 H9         -9.4131    4.0453    0.6780 H         1 <0>         0.1049
     30 H10        -2.4278    0.7305   -0.0475 H         1 <0>         0.4126
     31 H11        -2.0565    4.0868   -1.0456 H         1 <0>         0.1496
     32 H12         0.0640    5.3352   -1.0737 H         1 <0>         0.1344
     33 H13         2.0763    4.3723   -0.0345 H         1 <0>         0.1350
     34 H14         1.9751    2.1588    1.0362 H         1 <0>         0.1384
@<TRIPOS>BOND
     1    1    2 1
     2    1   21 1
     3    1   22 1
     4    1   23 1
     5    2    3 1
     6    3    8 ar
     7    3    4 ar
     8    4    5 ar
     9    4   24 1
    10    5    6 ar
    11    5   25 1
    12    6    7 ar
    13    6   11 1
    14    7    8 ar
    15    7   26 1
    16    8    9 1
    17    9   10 1
    18   10   27 1
    19   10   28 1
    20   10   29 1
    21   11   12 2
    22   11   13 am
    23   13   14 1
    24   13   30 1
    25   14   19 ar
    26   14   15 ar
    27   15   16 ar
    28   15   31 1
    29   16   17 ar
    30   16   32 1
    31   17   18 ar
    32   17   33 1
    33   18   19 ar
    34   18   34 1
    35   19   20 1
@<TRIPOS>MOLECULE
ZINC00004982
   41    43     0     0     0
SMALL
USER_CHARGES

@<TRIPOS>ATOM
      1 C1          0.5684    1.3813    0.2968 C.3       1 <0>         0.0255
      2 O1          0.3927   -0.0330    0.1934 O.3       1 <0>        -0.3057
      3 C2          0.7874   -0.6210   -0.9677 C.ar      1 <0>         0.0999
      4 C3          1.3368    0.1460   -1.9826 C.ar      1 <0>        -0.1683
      5 C4          1.7379   -0.4533   -3.1620 C.ar      1 <0>        -0.1118
      6 C5          1.5917   -1.8175   -3.3324 C.ar      1 <0>        -0.0754
      7 C6          1.0438   -2.5883   -2.3241 C.ar      1 <0>        -0.1639
      8 C7          0.6455   -1.9949   -1.1370 C.ar      1 <0>         0.1082
      9 O2          0.1119   -2.7526   -0.1417 O.3       1 <0>        -0.2957
     10 C8          0.1029   -4.1681   -0.3377 C.3       1 <0>         0.0783
     11 C9         -1.1687   -4.5874   -1.1040 C.3       1 <0>        -0.1488
     12 C10        -1.5683   -5.9405   -0.4650 C.3       1 <0>        -0.1241
     13 C11        -1.2445   -5.7198    1.0335 C.3       1 <0>        -0.1241
     14 C12         0.0547   -4.8881    1.0213 C.3       1 <0>        -0.1219
     15 C13         2.0301   -2.4655   -4.6204 C.3       1 <0>        -0.0563
     16 H1          1.8368   -3.5381   -4.6006 H         1 <0>         0.1000
     17 C14         1.3426   -1.8017   -5.8359 C.3       1 <0>        -0.1504
     18 C15         2.4091   -1.7972   -6.9087 C.2       1 <0>         0.5187
     19 O3          2.2042   -1.6224   -8.0913 O.2       1 <0>        -0.5316
     20 N1          3.6171   -2.0147   -6.3606 N.am      1 <0>        -0.7338
     21 C16         3.5210   -2.1776   -4.9046 C.3       1 <0>         0.1066
     22 H2          1.6254    1.6250    0.1896 H         1 <0>         0.0553
     23 H3         -0.0002    1.8766   -0.4903 H         1 <0>         0.0555
     24 H4          0.2140    1.7213    1.2699 H         1 <0>         0.1015
     25 H5          1.4515    1.2119   -1.8523 H         1 <0>         0.1366
     26 H6          2.1660    0.1456   -3.9522 H         1 <0>         0.1272
     27 H7          0.9304   -3.6537   -2.4598 H         1 <0>         0.1375
     28 H8          0.9909   -4.4738   -0.8910 H         1 <0>         0.0759
     29 H9         -1.9594   -3.8506   -0.9629 H         1 <0>         0.0806
     30 H10        -0.9503   -4.7158   -2.1641 H         1 <0>         0.0710
     31 H11        -2.6315   -6.1352   -0.6059 H         1 <0>         0.0722
     32 H12        -0.9681   -6.7532   -0.8743 H         1 <0>         0.0701
     33 H13        -2.0475   -5.1659    1.5198 H         1 <0>         0.0703
     34 H14        -1.0814   -6.6747    1.5332 H         1 <0>         0.0710
     35 H15         0.9189   -5.5439    1.1272 H         1 <0>         0.0774
     36 H16         0.0382   -4.1579    1.8303 H         1 <0>         0.0823
     37 H17         0.4823   -2.3897   -6.1557 H         1 <0>         0.1062
     38 H18         1.0407   -0.7827   -5.5939 H         1 <0>         0.1096
     39 H19         4.4459   -2.0590   -6.8626 H         1 <0>         0.4120
     40 H20         3.8309   -1.2616   -4.4015 H         1 <0>         0.0783
     41 H21         4.1362   -3.0155   -4.5767 H         1 <0>         0.0842
@<TRIPOS>BOND
     1    1    2 1
     2    1   22 1
     3    1   23 1
     4    1   24 1
     5    2    3 1
     6    3    8 ar
     7    3    4 ar
     8    4    5 ar
     9    4   25 1
    10    5    6 ar
    11    5   26 1
    12    6    7 ar
    13    6   15 1
    14    7    8 ar
    15    7   27 1
    16    8    9 1
    17    9   10 1
    18   10   14 1
    19   10   11 1
    20   10   28 1
    21   11   12 1
    22   11   29 1
    23   11   30 1
    24   12   13 1
    25   12   31 1
    26   12   32 1
    27   13   14 1
    28   13   33 1
    29   13   34 1
    30   14   35 1
    31   14   36 1
    32   15   16 1
    33   15   21 1
    34   15   17 1
    35   17   18 1
    36   17   37 1
    37   17   38 1
    38   18   19 2
    39   18   20 am
    40   20   21 1
    41   20   39 1
    42   21   40 1
    43   21   41 1
@<TRIPOS>MOLECULE
ZINC02000919
   41    43     0     0     0
SMALL
USER_CHARGES

@<TRIPOS>ATOM
      1 C1          0.5684    1.3813    0.2968 C.3       1 <0>         0.0255
      2 O1          0.3927   -0.0330    0.1934 O.3       1 <0>        -0.3057
      3 C2          0.7874   -0.6210   -0.9677 C.ar      1 <0>         0.0999
      4 C3          1.3368    0.1460   -1.9826 C.ar      1 <0>        -0.1683
      5 C4          1.7379   -0.4533   -3.1620 C.ar      1 <0>        -0.1118
      6 C5          1.5917   -1.8175   -3.3324 C.ar      1 <0>        -0.0754
      7 C6          1.0438   -2.5883   -2.3241 C.ar      1 <0>        -0.1640
      8 C7          0.6455   -1.9949   -1.1370 C.ar      1 <0>         0.1082
      9 O2          0.1119   -2.7526   -0.1417 O.3       1 <0>        -0.2956
     10 C8          0.1029   -4.1681   -0.3377 C.3       1 <0>         0.0781
     11 C9         -1.1687   -4.5874   -1.1040 C.3       1 <0>        -0.1484
     12 C10        -1.5683   -5.9405   -0.4650 C.3       1 <0>        -0.1242
     13 C11        -1.2445   -5.7198    1.0335 C.3       1 <0>        -0.1240
     14 C12         0.0547   -4.8881    1.0213 C.3       1 <0>        -0.1221
     15 C13         2.0301   -2.4655   -4.6204 C.3       1 <0>        -0.0563
     16 H1          1.8596   -3.5417   -4.5910 H         1 <0>         0.1000
     17 C14         3.5130   -2.1483   -4.9227 C.3       1 <0>        -0.1506
     18 C15         3.5576   -1.9806   -6.4255 C.2       1 <0>         0.5187
     19 O3          4.5674   -2.0006   -7.0970 O.2       1 <0>        -0.5316
     20 N1          2.3152   -1.8068   -6.9084 N.am      1 <0>        -0.7338
     21 C16         1.3168   -1.8256   -5.8320 C.3       1 <0>         0.1067
     22 H2          1.6254    1.6250    0.1896 H         1 <0>         0.0555
     23 H3         -0.0002    1.8766   -0.4903 H         1 <0>         0.0553
     24 H4          0.2140    1.7213    1.2699 H         1 <0>         0.1015
     25 H5          1.4515    1.2119   -1.8523 H         1 <0>         0.1366
     26 H6          2.1660    0.1456   -3.9522 H         1 <0>         0.1272
     27 H7          0.9304   -3.6537   -2.4598 H         1 <0>         0.1374
     28 H8          0.9909   -4.4738   -0.8910 H         1 <0>         0.0760
     29 H9         -1.9594   -3.8506   -0.9629 H         1 <0>         0.0805
     30 H10        -0.9503   -4.7158   -2.1641 H         1 <0>         0.0708
     31 H11        -2.6315   -6.1352   -0.6059 H         1 <0>         0.0721
     32 H12        -0.9681   -6.7532   -0.8743 H         1 <0>         0.0702
     33 H13        -2.0475   -5.1659    1.5198 H         1 <0>         0.0703
     34 H14        -1.0814   -6.6747    1.5332 H         1 <0>         0.0710
     35 H15         0.9189   -5.5439    1.1272 H         1 <0>         0.0776
     36 H16         0.0382   -4.1579    1.8303 H         1 <0>         0.0823
     37 H17         3.8145   -1.2257   -4.4268 H         1 <0>         0.1096
     38 H18         4.1511   -2.9756   -4.6120 H         1 <0>         0.1061
     39 H19         2.1051   -1.6852   -7.8475 H         1 <0>         0.4120
     40 H20         0.4568   -2.4279   -6.1248 H         1 <0>         0.0843
     41 H21         1.0026   -0.8100   -5.5915 H         1 <0>         0.0783
@<TRIPOS>BOND
     1    1    2 1
     2    1   22 1
     3    1   23 1
     4    1   24 1
     5    2    3 1
     6    3    8 ar
     7    3    4 ar
     8    4    5 ar
     9    4   25 1
    10    5    6 ar
    11    5   26 1
    12    6    7 ar
    13    6   15 1
    14    7    8 ar
    15    7   27 1
    16    8    9 1
    17    9   10 1
    18   10   14 1
    19   10   11 1
    20   10   28 1
    21   11   12 1
    22   11   29 1
    23   11   30 1
    24   12   13 1
    25   12   31 1
    26   12   32 1
    27   13   14 1
    28   13   33 1
    29   13   34 1
    30   14   35 1
    31   14   36 1
    32   15   16 1
    33   15   21 1
    34   15   17 1
    35   17   18 1
    36   17   37 1
    37   17   38 1
    38   18   19 2
    39   18   20 am
    40   20   21 1
    41   20   39 1
    42   21   40 1
    43   21   41 1
@<TRIPOS>MOLECULE
ZINC01533058
   62    65     0     0     0
SMALL
USER_CHARGES
1-[2-[4-[1-(4-iodophenyl)-2-phenyl-but-1-enyl]phenoxy]ethyl]pyrrolidine
@<TRIPOS>ATOM
      1 C1         11.0176    7.5109   -1.5347 C.3       1 <0>        -0.1443
      2 C2         11.0266    6.5411   -0.3513 C.3       1 <0>        -0.0935
      3 C3          9.6102    6.1684    0.0035 C.2       1 <0>        -0.0315
      4 C4          9.0527    5.0485   -0.5192 C.2       1 <0>        -0.0637
      5 C5          7.6267    4.7455   -0.2676 C.ar      1 <0>        -0.0474
      6 C6          6.7165    4.7338   -1.3259 C.ar      1 <0>        -0.0688
      7 C7          5.3886    4.4514   -1.0875 C.ar      1 <0>        -0.1378
      8 C8          4.9558    4.1789    0.2037 C.ar      1 <0>         0.1116
      9 C9          5.8573    4.1948    1.2600 C.ar      1 <0>        -0.1973
     10 C10         7.1878    4.4710    1.0288 C.ar      1 <0>        -0.0561
     11 O1          3.6460    3.9015    0.4349 O.3       1 <0>        -0.3271
     12 C11         3.2690    3.6303    1.7863 C.3       1 <0>         0.0265
     13 C12         1.7677    3.3424    1.8490 C.3       1 <0>         0.0091
     14 C13         0.0822    1.6674    1.3430 C.3       1 <0>        -0.0098
     15 C14         0.0875    0.1275    1.3304 C.3       1 <0>        -0.1471
     16 C15         1.5650   -0.2693    1.1075 C.3       1 <0>        -0.1460
     17 C16         2.3363    0.9911    1.5732 C.3       1 <0>        -0.0126
     18 C17         9.8706    4.1293   -1.3413 C.ar      1 <0>        -0.0167
     19 C18         9.6150    3.9952   -2.7066 C.ar      1 <0>        -0.1054
     20 C19        10.3846    3.1410   -3.4688 C.ar      1 <0>        -0.0808
     21 C20        11.4012    2.4092   -2.8798 C.ar      1 <0>        -0.0983
     22 C21        11.6559    2.5336   -1.5249 C.ar      1 <0>        -0.0811
     23 C22        10.8969    3.3888   -0.7533 C.ar      1 <0>        -0.1032
     24 I1         12.5597    1.1083   -4.0439 I         1 <0>        -0.0366
     25 C23         8.8327    7.0194    0.9167 C.ar      1 <0>        -0.0496
     26 C24         7.6987    7.6953    0.4538 C.ar      1 <0>        -0.0977
     27 C25         6.9721    8.4870    1.3176 C.ar      1 <0>        -0.1186
     28 C26         7.3681    8.6224    2.6369 C.ar      1 <0>        -0.1169
     29 C27         8.4921    7.9616    3.1013 C.ar      1 <0>        -0.1170
     30 C28         9.2265    7.1619    2.2514 C.ar      1 <0>        -0.1066
     31 H1         12.0343    7.8486   -1.7355 H         1 <0>         0.0628
     32 H2         10.6219    7.0054   -2.4157 H         1 <0>         0.0559
     33 H3         10.3900    8.3695   -1.2960 H         1 <0>         0.0565
     34 H4         11.5023    7.0180    0.5056 H         1 <0>         0.0753
     35 H5         11.5817    5.6429   -0.6219 H         1 <0>         0.0806
     36 H6          7.0524    4.9453   -2.3303 H         1 <0>         0.1335
     37 H7          4.6839    4.4418   -1.9058 H         1 <0>         0.1329
     38 H8          5.5162    3.9864    2.2633 H         1 <0>         0.1259
     39 H9          7.8890    4.4789    1.8501 H         1 <0>         0.1277
     40 H10         3.4994    4.4952    2.4083 H         1 <0>         0.1075
     41 H11         3.8207    2.7636    2.1505 H         1 <0>         0.0857
     42 H12         1.2196    4.1725    1.4031 H         1 <0>         0.1426
     43 H13         1.4637    3.2232    2.8889 H         1 <0>         0.1463
     44 H14        -0.5646    2.0430    0.5501 H         1 <0>         0.1342
     45 H15        -0.2639    2.0296    2.3110 H         1 <0>         0.1313
     46 H16        -0.2683   -0.2598    2.2851 H         1 <0>         0.1035
     47 H17        -0.5318   -0.2463    0.5150 H         1 <0>         0.1052
     48 H18         1.8294   -1.1315    1.7197 H         1 <0>         0.1160
     49 H19         1.7555   -0.4705    0.0533 H         1 <0>         0.0985
     50 H20         2.4314    1.0046    2.6590 H         1 <0>         0.1333
     51 H21         3.3168    1.0390    1.0994 H         1 <0>         0.1353
     52 H22         8.8189    4.5620   -3.1664 H         1 <0>         0.1289
     53 H23        10.1909    3.0399   -4.5265 H         1 <0>         0.1315
     54 H24        12.4507    1.9603   -1.0711 H         1 <0>         0.1324
     55 H25        11.0968    3.4853    0.3037 H         1 <0>         0.1314
     56 H26         7.3909    7.5939   -0.5765 H         1 <0>         0.1188
     57 H27         6.0943    9.0065    0.9628 H         1 <0>         0.1208
     58 H28         6.7971    9.2474    3.3076 H         1 <0>         0.1214
     59 H29         8.7949    8.0730    4.1319 H         1 <0>         0.1243
     60 H30        10.1035    6.6472    2.6152 H         1 <0>         0.1234
     61 N1          1.4704    2.0803    1.1070 N.4       1 <0>        -0.3957
     62 H31         1.6205    2.2366    0.1034 H         1 <0>         0.4365
@<TRIPOS>BOND
     1    1    2 1
     2    1   31 1
     3    1   32 1
     4    1   33 1
     5    2    3 1
     6    2   34 1
     7    2   35 1
     8    3    4 2
     9    3   25 1
    10    4    5 1
    11    4   18 1
    12    5   10 ar
    13    5    6 ar
    14    6    7 ar
    15    6   36 1
    16    7    8 ar
    17    7   37 1
    18    8    9 ar
    19    8   11 1
    20    9   10 ar
    21    9   38 1
    22   10   39 1
    23   11   12 1
    24   12   13 1
    25   12   40 1
    26   12   41 1
    27   13   42 1
    28   13   43 1
    29   13   61 1
    30   14   15 1
    31   14   44 1
    32   14   45 1
    33   14   61 1
    34   15   16 1
    35   15   46 1
    36   15   47 1
    37   16   17 1
    38   16   48 1
    39   16   49 1
    40   17   50 1
    41   17   51 1
    42   17   61 1
    43   18   23 ar
    44   18   19 ar
    45   19   20 ar
    46   19   52 1
    47   20   21 ar
    48   20   53 1
    49   21   22 ar
    50   21   24 1
    51   22   23 ar
    52   22   54 1
    53   23   55 1
    54   25   30 ar
    55   25   26 ar
    56   26   27 ar
    57   26   56 1
    58   27   28 ar
    59   27   57 1
    60   28   29 ar
    61   28   58 1
    62   29   30 ar
    63   29   59 1
    64   30   60 1
    65   61   62 1
@<TRIPOS>MOLECULE
ZINC01532942
   58    60     0     0     0
SMALL
USER_CHARGES
2-[4-[1-(4-iodophenyl)-2-phenyl-but-1-enyl]phenoxy]-N,N-dimethyl-ethanamine
@<TRIPOS>ATOM
      1 C1         -0.1285   -1.4678    1.8136 C.3       1 <0>        -0.1465
      2 C2         -1.0800   -1.8684    0.6844 C.3       1 <0>        -0.0945
      3 C3         -0.2817   -2.3746   -0.4893 C.2       1 <0>        -0.0319
      4 C4          0.0933   -1.5204   -1.4731 C.2       1 <0>        -0.0639
      5 C5          0.9948   -1.9834   -2.5508 C.ar      1 <0>        -0.0470
      6 C6          2.3068   -2.3563   -2.2538 C.ar      1 <0>        -0.0580
      7 C7          3.1416   -2.7935   -3.2597 C.ar      1 <0>        -0.1976
      8 C8          2.6830   -2.8510   -4.5693 C.ar      1 <0>         0.1122
      9 C9          1.3803   -2.4749   -4.8698 C.ar      1 <0>        -0.1380
     10 C10         0.5374   -2.0430   -3.8684 C.ar      1 <0>        -0.0639
     11 O1          3.5107   -3.2766   -5.5590 O.3       1 <0>        -0.3308
     12 C11         4.8375   -3.6481   -5.1801 C.3       1 <0>         0.0245
     13 C12         5.6150   -4.0968   -6.4191 C.3       1 <0>         0.0031
     14 C13         6.7398   -2.0065   -6.8965 C.3       1 <0>        -0.0472
     15 C14         6.0407   -3.4474   -8.7125 C.3       1 <0>        -0.0427
     16 C15        -0.3991   -0.1249   -1.4688 C.ar      1 <0>        -0.0183
     17 C16        -1.7574    0.1392   -1.6497 C.ar      1 <0>        -0.1040
     18 C17        -2.2112    1.4419   -1.6390 C.ar      1 <0>        -0.0814
     19 C18        -1.3206    2.4865   -1.4613 C.ar      1 <0>        -0.0975
     20 C19         0.0286    2.2312   -1.2870 C.ar      1 <0>        -0.0821
     21 C20         0.4937    0.9325   -1.2896 C.ar      1 <0>        -0.1015
     22 I1         -2.0178    4.4621   -1.4552 I         1 <0>        -0.0367
     23 C21         0.0906   -3.7951   -0.5675 C.ar      1 <0>        -0.0498
     24 C22        -0.4276   -4.6028   -1.5855 C.ar      1 <0>        -0.0983
     25 C23        -0.0699   -5.9326   -1.6547 C.ar      1 <0>        -0.1181
     26 C24         0.7911   -6.4713   -0.7144 C.ar      1 <0>        -0.1165
     27 C25         1.3039   -5.6801    0.2989 C.ar      1 <0>        -0.1183
     28 C26         0.9601   -4.3473    0.3790 C.ar      1 <0>        -0.1071
     29 H1          0.5201   -0.6608    1.4730 H         1 <0>         0.0562
     30 H2         -0.7070   -1.1307    2.6737 H         1 <0>         0.0635
     31 H3          0.4791   -2.3267    2.0985 H         1 <0>         0.0569
     32 H4         -1.6661   -1.0018    0.3785 H         1 <0>         0.0818
     33 H5         -1.7492   -2.6543    1.0347 H         1 <0>         0.0753
     34 H6          2.6656   -2.3074   -1.2363 H         1 <0>         0.1279
     35 H7          4.1552   -3.0872   -3.0299 H         1 <0>         0.1265
     36 H8          1.0271   -2.5213   -5.8894 H         1 <0>         0.1328
     37 H9         -0.4758   -1.7513   -4.1027 H         1 <0>         0.1341
     38 H10         5.3388   -2.7930   -4.7266 H         1 <0>         0.0856
     39 H11         4.7945   -4.4670   -4.4619 H         1 <0>         0.1083
     40 H12         6.6100   -4.4292   -6.1231 H         1 <0>         0.1502
     41 H13         5.0862   -4.9186   -6.9020 H         1 <0>         0.1408
     42 H14         7.7084   -2.5003   -6.8192 H         1 <0>         0.1255
     43 H15         6.8070   -1.1843   -7.6090 H         1 <0>         0.1249
     44 H16         6.4508   -1.6182   -5.9199 H         1 <0>         0.1187
     45 H17         5.2085   -4.0442   -9.0858 H         1 <0>         0.1227
     46 H18         6.1984   -2.5925   -9.3700 H         1 <0>         0.1238
     47 H19         6.9433   -4.0579   -8.6875 H         1 <0>         0.1240
     48 H20        -2.4526   -0.6748   -1.7933 H         1 <0>         0.1324
     49 H21        -3.2628    1.6473   -1.7741 H         1 <0>         0.1327
     50 H22         0.7186    3.0504   -1.1484 H         1 <0>         0.1305
     51 H23         1.5466    0.7345   -1.1528 H         1 <0>         0.1277
     52 H24        -1.1027   -4.1849   -2.3175 H         1 <0>         0.1198
     53 H25        -0.4661   -6.5566   -2.4421 H         1 <0>         0.1221
     54 H26         1.0639   -7.5147   -0.7714 H         1 <0>         0.1215
     55 H27         1.9748   -6.1081    1.0291 H         1 <0>         0.1235
     56 H28         1.3608   -3.7313    1.1704 H         1 <0>         0.1240
     57 N1          5.7078   -2.9589   -7.3578 N.4       1 <0>        -0.4004
     58 H29         4.8011   -2.4783   -7.3900 H         1 <0>         0.4384
@<TRIPOS>BOND
     1    1    2 1
     2    1   29 1
     3    1   30 1
     4    1   31 1
     5    2    3 1
     6    2   32 1
     7    2   33 1
     8    3    4 2
     9    3   23 1
    10    4    5 1
    11    4   16 1
    12    5   10 ar
    13    5    6 ar
    14    6    7 ar
    15    6   34 1
    16    7    8 ar
    17    7   35 1
    18    8    9 ar
    19    8   11 1
    20    9   10 ar
    21    9   36 1
    22   10   37 1
    23   11   12 1
    24   12   13 1
    25   12   38 1
    26   12   39 1
    27   13   40 1
    28   13   41 1
    29   13   57 1
    30   14   42 1
    31   14   43 1
    32   14   44 1
    33   14   57 1
    34   15   45 1
    35   15   46 1
    36   15   47 1
    37   15   57 1
    38   16   21 ar
    39   16   17 ar
    40   17   18 ar
    41   17   48 1
    42   18   19 ar
    43   18   49 1
    44   19   20 ar
    45   19   22 1
    46   20   21 ar
    47   20   50 1
    48   21   51 1
    49   23   28 ar
    50   23   24 ar
    51   24   25 ar
    52   24   52 1
    53   25   26 ar
    54   25   53 1
    55   26   27 ar
    56   26   54 1
    57   27   28 ar
    58   27   55 1
    59   28   56 1
    60   57   58 1
@<TRIPOS>MOLECULE
ZINC01530689
   58    60     0     0     0
SMALL
USER_CHARGES

@<TRIPOS>ATOM
      1 C1         -0.8620   -1.2103    0.4196 C.3       1 <0>        -0.1463
      2 C2         -0.0027   -0.0154    0.0014 C.3       1 <0>        -0.0931
      3 C3          0.8449   -0.3968   -1.1848 C.2       1 <0>        -0.0423
      4 C4          2.1086   -0.8505   -0.9971 C.2       1 <0>        -0.0550
      5 C5          2.7052   -0.8396    0.3571 C.ar      1 <0>        -0.0411
      6 C6          2.9272    0.3707    1.0153 C.ar      1 <0>        -0.1082
      7 C7          3.4837    0.3740    2.2776 C.ar      1 <0>        -0.1172
      8 C8          3.8216   -0.8192    2.8911 C.ar      1 <0>        -0.1153
      9 C9          3.6040   -2.0226    2.2439 C.ar      1 <0>        -0.1170
     10 C10         3.0428   -2.0399    0.9837 C.ar      1 <0>        -0.1043
     11 C11         2.8911   -1.3565   -2.1461 C.ar      1 <0>        -0.0464
     12 C12         2.4761   -2.5039   -2.8244 C.ar      1 <0>        -0.0587
     13 C13         3.2080   -2.9722   -3.8945 C.ar      1 <0>        -0.1371
     14 C14         4.3568   -2.3043   -4.2980 C.ar      1 <0>         0.1110
     15 C15         4.7731   -1.1628   -3.6254 C.ar      1 <0>        -0.1995
     16 C16         4.0432   -0.6847   -2.5583 C.ar      1 <0>        -0.0640
     17 O1          5.0755   -2.7690   -5.3531 O.3       1 <0>        -0.3290
     18 C17         6.2462   -2.0338   -5.7148 C.3       1 <0>         0.0247
     19 C18         6.9183   -2.7034   -6.9152 C.3       1 <0>        -0.0016
     20 N1          6.0308   -2.6198   -8.0828 N.4       1 <0>        -0.3887
     21 C19         5.8597   -1.2126   -8.4681 C.3       1 <0>        -0.0544
     22 C20         6.6223   -3.3655   -9.2018 C.3       1 <0>        -0.0475
     23 C21         0.3013   -0.2769   -2.5460 C.ar      1 <0>        -0.0452
     24 C22         0.8638    0.6300   -3.4504 C.ar      1 <0>        -0.1005
     25 C23         0.3487    0.7362   -4.7249 C.ar      1 <0>        -0.1203
     26 C24        -0.7224   -0.0512   -5.1102 C.ar      1 <0>        -0.1185
     27 C25        -1.2849   -0.9506   -4.2211 C.ar      1 <0>        -0.1169
     28 C26        -0.7774   -1.0732   -2.9450 C.ar      1 <0>        -0.1064
     29 H1         -1.5889   -1.4268   -0.3633 H         1 <0>         0.0564
     30 H2         -0.2239   -2.0805    0.5736 H         1 <0>         0.0564
     31 H3         -1.3853   -0.9749    1.3463 H         1 <0>         0.0624
     32 H4         -0.6488    0.8203   -0.2674 H         1 <0>         0.0730
     33 H5          0.6424    0.2760    0.8303 H         1 <0>         0.0829
     34 H6          2.6642    1.3028    0.5373 H         1 <0>         0.1222
     35 H7          3.6564    1.3100    2.7879 H         1 <0>         0.1251
     36 H8          4.2573   -0.8113    3.8793 H         1 <0>         0.1238
     37 H9          3.8702   -2.9506    2.7280 H         1 <0>         0.1239
     38 H10         2.8693   -2.9801    0.4814 H         1 <0>         0.1195
     39 H11         1.5831   -3.0240   -2.5110 H         1 <0>         0.1323
     40 H12         2.8878   -3.8600   -4.4196 H         1 <0>         0.1320
     41 H13         5.6672   -0.6463   -3.9419 H         1 <0>         0.1263
     42 H14         4.3649    0.2058   -2.0388 H         1 <0>         0.1288
     43 H15         5.9678   -1.0131   -5.9769 H         1 <0>         0.0863
     44 H16         6.9389   -2.0168   -4.8734 H         1 <0>         0.1083
     45 H17         7.8574   -2.1958   -7.1356 H         1 <0>         0.1490
     46 H18         7.1165   -3.7499   -6.6836 H         1 <0>         0.1425
     47 H19         5.2012   -1.1506   -9.3345 H         1 <0>         0.1272
     48 H20         5.4209   -0.6593   -7.6378 H         1 <0>         0.1214
     49 H21         6.8302   -0.7837   -8.7180 H         1 <0>         0.1246
     50 H22         6.7492   -4.4096   -8.9159 H         1 <0>         0.1247
     51 H23         5.9637   -3.3034  -10.0682 H         1 <0>         0.1258
     52 H24         7.5927   -2.9366   -9.4516 H         1 <0>         0.1230
     53 H25         1.6992    1.2456   -3.1510 H         1 <0>         0.1181
     54 H26         0.7818    1.4358   -5.4243 H         1 <0>         0.1195
     55 H27        -1.1216    0.0368   -6.1098 H         1 <0>         0.1205
     56 H28        -2.1210   -1.5610   -4.5292 H         1 <0>         0.1239
     57 H29        -1.2145   -1.7786   -2.2539 H         1 <0>         0.1248
     58 H30         5.1325   -3.0168   -7.8515 H         1 <0>         0.4340
@<TRIPOS>BOND
     1    1    2 1
     2    1   29 1
     3    1   30 1
     4    1   31 1
     5    2    3 1
     6    2   32 1
     7    2   33 1
     8    3    4 2
     9    3   23 1
    10    4    5 1
    11    4   11 1
    12    5   10 ar
    13    5    6 ar
    14    6    7 ar
    15    6   34 1
    16    7    8 ar
    17    7   35 1
    18    8    9 ar
    19    8   36 1
    20    9   10 ar
    21    9   37 1
    22   10   38 1
    23   11   16 ar
    24   11   12 ar
    25   12   13 ar
    26   12   39 1
    27   13   14 ar
    28   13   40 1
    29   14   15 ar
    30   14   17 1
    31   15   16 ar
    32   15   41 1
    33   16   42 1
    34   17   18 1
    35   18   19 1
    36   18   43 1
    37   18   44 1
    38   19   20 1
    39   19   45 1
    40   19   46 1
    41   20   21 1
    42   20   22 1
    43   20   58 1
    44   21   47 1
    45   21   48 1
    46   21   49 1
    47   22   50 1
    48   22   51 1
    49   22   52 1
    50   23   28 ar
    51   23   24 ar
    52   24   25 ar
    53   24   53 1
    54   25   26 ar
    55   25   54 1
    56   26   27 ar
    57   26   55 1
    58   27   28 ar
    59   27   56 1
    60   28   57 1
@<TRIPOS>MOLECULE
ZINC00643046
   76    79     0     0     0
SMALL
USER_CHARGES

@<TRIPOS>ATOM
      1 C1          0.4883    2.4897    1.2990 C.3       1 <0>        -0.1142
      2 C2          1.1580    2.1388    2.6297 C.3       1 <0>        -0.1362
      3 C3          1.3103    0.6181    2.7347 C.3       1 <0>         0.1570
      4 N1          2.0305    0.1319    1.5500 N.pl3     1 <0>        -0.6468
      5 C4          1.5224    0.4890    0.2185 C.3       1 <0>         0.1574
      6 C5          1.3678    2.0112    0.1416 C.3       1 <0>        -0.1364
      7 C6          3.1637   -0.6453    1.6854 C.ar      1 <0>         0.5085
      8 C7          3.0733   -2.0580    1.7467 C.ar      1 <0>         0.0614
      9 C8          4.2673   -2.7976    1.8855 C.ar      1 <0>         0.0615
     10 C9          4.1770   -4.2103    1.9469 C.ar      1 <0>         0.5084
     11 N2          2.9771   -4.7656    1.8709 N.ar      1 <0>        -0.5394
     12 C10         1.8782   -4.0279    1.7403 C.ar      1 <0>         0.5543
     13 N3          1.9084   -2.7098    1.6788 N.ar      1 <0>        -0.5235
     14 N4          0.6525   -4.6689    1.6658 N.pl3     1 <0>        -0.5657
     15 C11        -0.5766   -3.8848    1.5217 C.3       1 <0>         0.1412
     16 C12        -0.8807   -3.6815    0.0361 C.3       1 <0>         0.0611
     17 O1         -1.1650   -4.9445   -0.5691 O.3       1 <0>        -0.5712
     18 C13         0.5852   -6.1309    1.7310 C.3       1 <0>         0.1388
     19 C14         0.4380   -6.5701    3.1892 C.3       1 <0>         0.0609
     20 O2         -0.8147   -6.1108    3.7009 O.3       1 <0>        -0.5703
     21 N5          5.3102   -4.9876    2.0819 N.pl3     1 <0>        -0.6466
     22 C15         5.8166   -5.3477    3.4132 C.3       1 <0>         0.1569
     23 C16         5.9722   -6.8700    3.4864 C.3       1 <0>        -0.1363
     24 C17         6.8536   -7.3449    2.3290 C.3       1 <0>        -0.1141
     25 C18         6.1855   -6.9910    0.9983 C.3       1 <0>        -0.1368
     26 C19         6.0290   -5.4752    0.8969 C.3       1 <0>         0.1575
     27 N6          5.4322   -2.1458    1.9543 N.ar      1 <0>        -0.5233
     28 C20         5.4623   -0.8277    1.8928 C.ar      1 <0>         0.5543
     29 N7          4.3640   -0.0904    1.7559 N.ar      1 <0>        -0.5392
     30 N8          6.6881   -0.1867    1.9678 N.pl3     1 <0>        -0.5657
     31 C21         7.9171   -0.9709    2.1123 C.3       1 <0>         0.1413
     32 C22         8.4692   -1.3136    0.7271 C.3       1 <0>         0.0611
     33 O3          8.8633   -0.1124    0.0609 O.3       1 <0>        -0.5711
     34 C23         6.7554    1.2753    1.9026 C.3       1 <0>         0.1387
     35 C24         6.6545    1.8540    3.3153 C.3       1 <0>         0.0609
     36 O4          7.7974    1.4565    4.0756 O.3       1 <0>        -0.5703
     37 H1         -0.4844    2.0011    1.2421 H         1 <0>         0.0624
     38 H2          0.3565    3.5696    1.2325 H         1 <0>         0.0610
     39 H3          2.1412    2.6070    2.6767 H         1 <0>         0.0658
     40 H4          0.5425    2.5006    3.4533 H         1 <0>         0.0687
     41 H5          1.8745    0.3686    3.6333 H         1 <0>         0.0616
     42 H6          0.3248    0.1544    2.7790 H         1 <0>         0.0608
     43 H7          2.2266    0.1543   -0.5432 H         1 <0>         0.0616
     44 H8          0.5542    0.0148    0.0576 H         1 <0>         0.0598
     45 H9          0.9016    2.2821   -0.8057 H         1 <0>         0.0686
     46 H10         2.3490    2.4805    0.2121 H         1 <0>         0.0663
     47 H11        -1.4038   -4.4160    1.9926 H         1 <0>         0.0919
     48 H12        -0.4472   -2.9149    2.0021 H         1 <0>         0.0972
     49 H13        -1.7438   -3.0246   -0.0716 H         1 <0>         0.0528
     50 H14        -0.0175   -3.2303   -0.4531 H         1 <0>         0.0456
     51 H15        -1.3673   -4.8916   -1.5132 H         1 <0>         0.3764
     52 H16        -0.2732   -6.4810    1.1577 H         1 <0>         0.0932
     53 H17         1.4983   -6.5556    1.3140 H         1 <0>         0.0953
     54 H18         0.4771   -7.6579    3.2467 H         1 <0>         0.0527
     55 H19         1.2495   -6.1456    3.7802 H         1 <0>         0.0445
     56 H20        -0.9758   -6.3537    4.6229 H         1 <0>         0.3766
     57 H21         6.7842   -4.8733    3.5767 H         1 <0>         0.0609
     58 H22         5.1111   -5.0155    4.1748 H         1 <0>         0.0615
     59 H23         6.4372   -7.1430    4.4336 H         1 <0>         0.0688
     60 H24         4.9913   -7.3398    3.4133 H         1 <0>         0.0658
     61 H25         7.8259   -6.8558    2.3885 H         1 <0>         0.0624
     62 H26         6.9861   -8.4249    2.3929 H         1 <0>         0.0611
     63 H27         6.8025   -7.3503    0.1746 H         1 <0>         0.0691
     64 H28         5.2027   -7.4597    0.9486 H         1 <0>         0.0661
     65 H29         5.4635   -5.2271   -0.0013 H         1 <0>         0.0615
     66 H30         7.0143   -5.0114    0.8506 H         1 <0>         0.0595
     67 H31         8.6559   -0.3900    2.6644 H         1 <0>         0.0919
     68 H32         7.6994   -1.8910    2.6545 H         1 <0>         0.0972
     69 H33         9.3325   -1.9706    0.8325 H         1 <0>         0.0527
     70 H34         7.6986   -1.8169    0.1432 H         1 <0>         0.0456
     71 H35         9.2237   -0.2542   -0.8252 H         1 <0>         0.3764
     72 H36         7.7021    1.5757    1.4536 H         1 <0>         0.0932
     73 H37         5.9306    1.6503    1.2966 H         1 <0>         0.0954
     74 H38         6.6152    2.9419    3.2604 H         1 <0>         0.0528
     75 H39         5.7504    1.4816    3.7968 H         1 <0>         0.0444
     76 H40         7.8004    1.7883    4.9839 H         1 <0>         0.3766
@<TRIPOS>BOND
     1    1    6 1
     2    1    2 1
     3    1   37 1
     4    1   38 1
     5    2    3 1
     6    2   39 1
     7    2   40 1
     8    3    4 1
     9    3   41 1
    10    3   42 1
    11    4    5 1
    12    4    7 1
    13    5    6 1
    14    5   43 1
    15    5   44 1
    16    6   45 1
    17    6   46 1
    18    7   29 ar
    19    7    8 ar
    20    8   13 ar
    21    8    9 ar
    22    9   10 ar
    23    9   27 ar
    24   10   11 ar
    25   10   21 1
    26   11   12 ar
    27   12   13 ar
    28   12   14 1
    29   14   15 1
    30   14   18 1
    31   15   16 1
    32   15   47 1
    33   15   48 1
    34   16   17 1
    35   16   49 1
    36   16   50 1
    37   17   51 1
    38   18   19 1
    39   18   52 1
    40   18   53 1
    41   19   20 1
    42   19   54 1
    43   19   55 1
    44   20   56 1
    45   21   26 1
    46   21   22 1
    47   22   23 1
    48   22   57 1
    49   22   58 1
    50   23   24 1
    51   23   59 1
    52   23   60 1
    53   24   25 1
    54   24   61 1
    55   24   62 1
    56   25   26 1
    57   25   63 1
    58   25   64 1
    59   26   65 1
    60   26   66 1
    61   27   28 ar
    62   28   29 ar
    63   28   30 1
    64   30   31 1
    65   30   34 1
    66   31   32 1
    67   31   67 1
    68   31   68 1
    69   32   33 1
    70   32   69 1
    71   32   70 1
    72   33   71 1
    73   34   35 1
    74   34   72 1
    75   34   73 1
    76   35   36 1
    77   35   74 1
    78   35   75 1
    79   36   76 1
