@<TRIPOS>MOLECULE
ZINC12357004
   34    35     0     0     0
SMALL
USER_CHARGES
(1R)-1-(3-morpholinophenyl)ethanamine
@<TRIPOS>ATOM
      1 C1          3.0396    3.9671    1.4154 C.3       1 <0>        -0.1809
      2 C2          2.4592    3.9317    0.0001 C.3       1 <0>         0.0879
      3 H1          2.2778    4.9499   -0.3438 H         1 <0>         0.1491
      4 C3          1.1615    3.1656    0.0084 C.ar      1 <0>        -0.1202
      5 C4          1.1757    1.7826    0.0004 C.ar      1 <0>        -0.1538
      6 C5         -0.0126    1.0758    0.0080 C.ar      1 <0>        -0.0728
      7 C6         -1.2185    1.7493    0.0173 C.ar      1 <0>        -0.1483
      8 C7         -1.2363    3.1381    0.0307 C.ar      1 <0>         0.1311
      9 C8         -0.0404    3.8451    0.0236 C.ar      1 <0>        -0.1146
     10 N1         -2.4539    3.8223    0.0460 N.pl3     1 <0>        -0.4893
     11 C9         -2.5300    4.7366    1.1947 C.3       1 <0>         0.0204
     12 C10        -3.8516    5.5076    1.1397 C.3       1 <0>         0.0590
     13 O1         -4.9388    4.5789    1.1140 O.3       1 <0>        -0.3774
     14 C11        -4.8965    3.6735    0.0077 C.3       1 <0>         0.0598
     15 C12        -3.5856    2.8839    0.0513 C.3       1 <0>         0.0093
     16 H2          2.3330    4.4566    2.0857 H         1 <0>         0.1065
     17 H3          3.2210    2.9488    1.7593 H         1 <0>         0.0831
     18 H4          3.9782    4.5212    1.4094 H         1 <0>         0.0865
     19 H5          2.1172    1.2535   -0.0114 H         1 <0>         0.1198
     20 H6          0.0021   -0.0041    0.0020 H         1 <0>         0.1367
     21 H7         -2.1464    1.1967    0.0187 H         1 <0>         0.1393
     22 H8         -0.0508    4.9251    0.0295 H         1 <0>         0.1359
     23 H9         -2.4816    4.1630    2.1203 H         1 <0>         0.0594
     24 H10        -1.6972    5.4387    1.1569 H         1 <0>         0.0934
     25 H11        -3.8769    6.1227    0.2402 H         1 <0>         0.0654
     26 H12        -3.9385    6.1454    2.0194 H         1 <0>         0.1087
     27 H13        -4.9522    4.2352   -0.9247 H         1 <0>         0.0656
     28 H14        -5.7387    2.9842    0.0683 H         1 <0>         0.1097
     29 H15        -3.5232    2.2336   -0.8213 H         1 <0>         0.0977
     30 H16        -3.5540    2.2806    0.9586 H         1 <0>         0.0625
     31 H17         3.0248    3.1784   -1.8304 H         1 <0>         0.4402
     32 H18         4.2904    3.7671   -0.9262 H         1 <0>         0.4398
     33 N2          3.4136    3.2496   -0.8916 N.4       1 <0>        -0.6448
     34 H19         3.5959    2.3053   -0.5320 H         1 <0>         0.4352
@<TRIPOS>BOND
     1    1    2 1
     2    1   16 1
     3    1   17 1
     4    1   18 1
     5    2    3 1
     6    2    4 1
     7    2   33 1
     8    4    9 ar
     9    4    5 ar
    10    5    6 ar
    11    5   19 1
    12    6    7 ar
    13    6   20 1
    14    7    8 ar
    15    7   21 1
    16    8    9 ar
    17    8   10 1
    18    9   22 1
    19   10   15 1
    20   10   11 1
    21   11   12 1
    22   11   23 1
    23   11   24 1
    24   12   13 1
    25   12   25 1
    26   12   26 1
    27   13   14 1
    28   14   15 1
    29   14   27 1
    30   14   28 1
    31   15   29 1
    32   15   30 1
    33   31   33 1
    34   32   33 1
    35   33   34 1
