@<TRIPOS>MOLECULE
ZINC00000596
   49    51     0     0     0
SMALL
USER_CHARGES
dimethyl-(3-methylbut-2-enyl)BLAHol
@<TRIPOS>ATOM
      1 C1          1.1810    0.6734   -0.4602 C.3       1 <0>        -0.1552
      2 C2         -0.3103    0.3734   -0.2964 C.3       1 <0>        -0.0889
      3 H1         -0.4566   -0.6974   -0.1546 H         1 <0>         0.1007
      4 C3         -0.8596    1.1333    0.9106 C.3       1 <0>         0.0339
      5 H2         -0.3716    0.7400    1.8024 H         1 <0>         0.1315
      6 C4         -0.4886    2.6026    0.8088 C.3       1 <0>        -0.0890
      7 C5         -0.7124    3.1461   -0.5773 C.ar      1 <0>        -0.1105
      8 C6         -0.6417    4.5245   -0.7476 C.ar      1 <0>        -0.0947
      9 C7         -0.8037    5.0868   -1.9953 C.ar      1 <0>        -0.1368
     10 C8         -1.0399    4.2730   -3.0941 C.ar      1 <0>         0.1240
     11 C9         -1.1181    2.9007   -2.9238 C.ar      1 <0>        -0.1397
     12 C10        -0.9596    2.3404   -1.6653 C.ar      1 <0>        -0.0583
     13 C11        -1.0712    0.8387   -1.5424 C.3       1 <0>        -0.0213
     14 C12        -2.5604    0.5047   -1.3358 C.3       1 <0>        -0.1334
     15 C13        -3.0578    1.3124   -0.1317 C.3       1 <0>        -0.0053
     16 C14        -2.8018    1.6243    2.2533 C.3       1 <0>         0.0259
     17 C15        -4.2991    1.4695    2.3258 C.2       1 <0>        -0.2563
     18 C16        -5.0630    2.5289    2.4263 C.2       1 <0>        -0.0381
     19 C17        -4.4429    3.8911    2.6019 C.3       1 <0>        -0.1488
     20 C18        -6.5620    2.3854    2.3663 C.3       1 <0>        -0.1379
     21 C19        -0.5306    0.1432   -2.7933 C.3       1 <0>        -0.1469
     22 O1         -1.1938    4.8189   -4.3291 O.3       1 <0>        -0.4948
     23 H3          1.7168    0.3508    0.4325 H         1 <0>         0.0686
     24 H4          1.5661    0.1382   -1.3282 H         1 <0>         0.0801
     25 H5          1.3227    1.7449   -0.6017 H         1 <0>         0.0720
     26 H6         -1.0945    3.1709    1.5146 H         1 <0>         0.0928
     27 H7          0.5628    2.7216    1.0708 H         1 <0>         0.1221
     28 H8         -0.4582    5.1602    0.1059 H         1 <0>         0.1313
     29 H9         -0.7465    6.1583   -2.1177 H         1 <0>         0.1363
     30 H10        -1.3033    2.2635   -3.7759 H         1 <0>         0.1374
     31 H11        -2.6758   -0.5611   -1.1388 H         1 <0>         0.0935
     32 H12        -3.1280    0.7795   -2.2249 H         1 <0>         0.1121
     33 H13        -4.1155    1.1061    0.0322 H         1 <0>         0.1284
     34 H14        -2.9211    2.3761   -0.3263 H         1 <0>         0.1309
     35 H15        -2.3482    1.1918    3.1451 H         1 <0>         0.1302
     36 H16        -2.5484    2.6828    2.1938 H         1 <0>         0.1348
     37 H17        -4.7423    0.4851    2.2948 H         1 <0>         0.1345
     38 H18        -4.1823    4.3003    1.6258 H         1 <0>         0.0808
     39 H19        -5.1543    4.5533    3.0953 H         1 <0>         0.0842
     40 H20        -3.5435    3.8050    3.2116 H         1 <0>         0.0726
     41 H21        -6.8215    1.3347    2.2372 H         1 <0>         0.0712
     42 H22        -6.9998    2.7566    3.2929 H         1 <0>         0.0829
     43 H23        -6.9487    2.9612    1.5255 H         1 <0>         0.0838
     44 H24        -0.6488   -0.9354   -2.6891 H         1 <0>         0.0700
     45 H25        -1.0835    0.4866   -3.6676 H         1 <0>         0.0708
     46 H26         0.5259    0.3828   -2.9143 H         1 <0>         0.0738
     47 H27        -2.1084    5.0436   -4.5486 H         1 <0>         0.3984
     48 N1         -2.3079    0.8926    1.0783 N.4       1 <0>        -0.3801
     49 H28        -2.4589   -0.1122    1.2258 H         1 <0>         0.4267
@<TRIPOS>BOND
     1    1    2 1
     2    1   23 1
     3    1   24 1
     4    1   25 1
     5    2    3 1
     6    2   13 1
     7    2    4 1
     8    4    5 1
     9    4    6 1
    10    4   48 1
    11    6    7 1
    12    6   26 1
    13    6   27 1
    14    7   12 ar
    15    7    8 ar
    16    8    9 ar
    17    8   28 1
    18    9   10 ar
    19    9   29 1
    20   10   11 ar
    21   10   22 1
    22   11   12 ar
    23   11   30 1
    24   12   13 1
    25   13   14 1
    26   13   21 1
    27   14   15 1
    28   14   31 1
    29   14   32 1
    30   15   33 1
    31   15   34 1
    32   15   48 1
    33   16   17 1
    34   16   35 1
    35   16   36 1
    36   16   48 1
    37   17   18 2
    38   17   37 1
    39   18   19 1
    40   18   20 1
    41   19   38 1
    42   19   39 1
    43   19   40 1
    44   20   41 1
    45   20   42 1
    46   20   43 1
    47   21   44 1
    48   21   45 1
    49   21   46 1
    50   22   47 1
    51   48   49 1
@<TRIPOS>MOLECULE
ZINC00020242
   49    51     0     0     0
SMALL
USER_CHARGES
dimethyl-(3-methylbut-2-enyl)BLAHol
@<TRIPOS>ATOM
      1 C1          2.8748   -2.7998    3.4003 C.3       1 <0>        -0.1737
      2 C2          2.5408   -3.5945    2.1363 C.3       1 <0>        -0.0925
      3 H1          3.3163   -4.3382    1.9531 H         1 <0>         0.1211
      4 C3          2.4432   -2.6461    0.9416 C.3       1 <0>         0.0366
      5 H2          3.3814   -2.0951    0.8759 H         1 <0>         0.1324
      6 C4          2.2913   -3.4593   -0.3321 C.3       1 <0>        -0.0887
      7 C5          1.3040   -4.5835   -0.1696 C.ar      1 <0>        -0.1114
      8 C6          0.8805   -5.2403   -1.3201 C.ar      1 <0>        -0.0941
      9 C7         -0.0116   -6.2878   -1.2424 C.ar      1 <0>        -0.1365
     10 C8         -0.4923   -6.6949   -0.0060 C.ar      1 <0>         0.1235
     11 C9         -0.0749   -6.0379    1.1396 C.ar      1 <0>        -0.1393
     12 C10         0.8163   -4.9790    1.0549 C.ar      1 <0>        -0.0634
     13 C11         1.2029   -4.2779    2.3364 C.3       1 <0>        -0.0189
     14 C12         0.1456   -3.1917    2.6027 C.3       1 <0>        -0.1361
     15 C13         0.0605   -2.3041    1.3361 C.3       1 <0>        -0.0094
     16 C14         1.3172   -0.7397   -0.0145 C.3       1 <0>         0.0286
     17 C15         0.1425    0.1888    0.1560 C.2       1 <0>        -0.2623
     18 C16         0.3257    1.4858    0.1437 C.2       1 <0>        -0.0336
     19 C17         1.7110    2.0495   -0.0411 C.3       1 <0>        -0.1494
     20 C18        -0.8499    2.4144    0.3080 C.3       1 <0>        -0.1391
     21 C19         1.2570   -5.2724    3.4979 C.3       1 <0>        -0.1466
     22 O1         -1.3672   -7.7313    0.0802 O.3       1 <0>        -0.4949
     23 H3          2.0911   -2.0653    3.5854 H         1 <0>         0.0560
     24 H4          2.9434   -3.4798    4.2494 H         1 <0>         0.0886
     25 H5          3.8280   -2.2883    3.2666 H         1 <0>         0.0738
     26 H6          1.9520   -2.8027   -1.1333 H         1 <0>         0.0954
     27 H7          3.2608   -3.8771   -0.6035 H         1 <0>         0.1212
     28 H8          1.2539   -4.9261   -2.2835 H         1 <0>         0.1318
     29 H9         -0.3361   -6.7904   -2.1416 H         1 <0>         0.1365
     30 H10        -0.4454   -6.3523    2.1042 H         1 <0>         0.1376
     31 H11        -0.8225   -3.6565    2.7893 H         1 <0>         0.1108
     32 H12         0.4406   -2.5925    3.4641 H         1 <0>         0.0984
     33 H13        -0.6913   -1.5303    1.4912 H         1 <0>         0.1285
     34 H14        -0.2082   -2.9023    0.4654 H         1 <0>         0.1342
     35 H15         1.2081   -1.2965   -0.9452 H         1 <0>         0.1358
     36 H16         2.2386   -0.1582   -0.0449 H         1 <0>         0.1290
     37 H17        -0.8503   -0.2152    0.2884 H         1 <0>         0.1344
     38 H18         2.1137    1.7176   -0.9981 H         1 <0>         0.0817
     39 H19         1.6655    3.1384   -0.0241 H         1 <0>         0.0817
     40 H20         2.3559    1.7002    0.7652 H         1 <0>         0.0757
     41 H21        -0.9983    2.6289    1.3663 H         1 <0>         0.0852
     42 H22        -0.6563    3.3439   -0.2275 H         1 <0>         0.0794
     43 H23        -1.7453    1.9420   -0.0961 H         1 <0>         0.0751
     44 H24         1.9950   -6.0446    3.2810 H         1 <0>         0.0711
     45 H25         1.5370   -4.7486    4.4119 H         1 <0>         0.0722
     46 H26         0.2774   -5.7323    3.6283 H         1 <0>         0.0715
     47 H27        -2.2959   -7.4673    0.0279 H         1 <0>         0.3984
     48 N1          1.3757   -1.6443    1.1423 N.4       1 <0>        -0.3817
     49 H28         1.5942   -1.0952    1.9820 H         1 <0>         0.4253
@<TRIPOS>BOND
     1    1    2 1
     2    1   23 1
     3    1   24 1
     4    1   25 1
     5    2    3 1
     6    2   13 1
     7    2    4 1
     8    4    5 1
     9    4    6 1
    10    4   48 1
    11    6    7 1
    12    6   26 1
    13    6   27 1
    14    7   12 ar
    15    7    8 ar
    16    8    9 ar
    17    8   28 1
    18    9   10 ar
    19    9   29 1
    20   10   11 ar
    21   10   22 1
    22   11   12 ar
    23   11   30 1
    24   12   13 1
    25   13   14 1
    26   13   21 1
    27   14   15 1
    28   14   31 1
    29   14   32 1
    30   15   33 1
    31   15   34 1
    32   15   48 1
    33   16   17 1
    34   16   35 1
    35   16   36 1
    36   16   48 1
    37   17   18 2
    38   17   37 1
    39   18   19 1
    40   18   20 1
    41   19   38 1
    42   19   39 1
    43   19   40 1
    44   20   41 1
    45   20   42 1
    46   20   43 1
    47   21   44 1
    48   21   45 1
    49   21   46 1
    50   22   47 1
    51   48   49 1
@<TRIPOS>MOLECULE
ZINC03995703
   51    53     0     0     0
SMALL
USER_CHARGES
2-(3,4-dichlorophenyl)-N-methyl-N-(1-phenyl-2-pyrrolidin-1-yl-ethyl)-acetamide
@<TRIPOS>ATOM
      1 C1         -0.7699    1.9220    2.2946 C.3       1 <0>         0.0602
      2 N1         -0.2696    2.1358    0.9344 N.am      1 <0>        -0.6301
      3 C2         -0.0194    0.9894    0.0573 C.3       1 <0>         0.1846
      4 H1         -0.4763    0.0974    0.4860 H         1 <0>         0.1171
      5 C3         -0.6251    1.2602   -1.3214 C.3       1 <0>        -0.0303
      6 C4         -2.5642    2.3126   -0.2916 C.3       1 <0>        -0.0148
      7 C5         -4.0441    2.5116   -0.7050 C.3       1 <0>        -0.1482
      8 C6         -3.9970    2.3598   -2.2427 C.3       1 <0>        -0.1461
      9 C7         -2.7118    1.5612   -2.5288 C.3       1 <0>        -0.0101
     10 C8          1.4662    0.7765   -0.0798 C.ar      1 <0>        -0.1238
     11 C9          2.3404    1.8139    0.1853 C.ar      1 <0>        -0.0855
     12 C10         3.7033    1.6174    0.0638 C.ar      1 <0>        -0.1184
     13 C11         4.1915    0.3862   -0.3320 C.ar      1 <0>        -0.0988
     14 C12         3.3170   -0.6499   -0.6016 C.ar      1 <0>        -0.1171
     15 C13         1.9543   -0.4546   -0.4760 C.ar      1 <0>        -0.1078
     16 C14        -0.0395    3.3872    0.4899 C.2       1 <0>         0.5092
     17 O1          0.4957    3.5603   -0.5846 O.2       1 <0>        -0.5028
     18 C15        -0.4471    4.5714    1.3281 C.3       1 <0>        -0.1042
     19 C16        -0.0809    5.8448    0.6103 C.ar      1 <0>        -0.0668
     20 C17         1.1573    6.4237    0.8183 C.ar      1 <0>        -0.0849
     21 C18         1.4965    7.5885    0.1563 C.ar      1 <0>        -0.0911
     22 C19         0.5925    8.1820   -0.7066 C.ar      1 <0>        -0.0252
     23 C20        -0.6495    7.6054   -0.9106 C.ar      1 <0>        -0.0296
     24 C21        -0.9852    6.4364   -0.2514 C.ar      1 <0>        -0.0887
     25 Cl1        -1.7848    8.3486   -1.9935 Cl        1 <0>        -0.0399
     26 Cl2         1.0155    9.6487   -1.5335 Cl        1 <0>        -0.0350
     27 H2          0.0680    1.9053    2.9915 H         1 <0>         0.0776
     28 H3         -1.4496    2.7307    2.5630 H         1 <0>         0.0858
     29 H4         -1.3004    0.9709    2.3413 H         1 <0>         0.0839
     30 H5         -0.2884    2.2323   -1.6815 H         1 <0>         0.1641
     31 H6         -0.3059    0.4844   -2.0173 H         1 <0>         0.1414
     32 H7         -2.4957    1.9741    0.7422 H         1 <0>         0.1377
     33 H8         -1.9978    3.2329   -0.4346 H         1 <0>         0.1251
     34 H9         -4.3922    3.5062   -0.4260 H         1 <0>         0.1147
     35 H10        -4.6780    1.7441   -0.2609 H         1 <0>         0.0997
     36 H11        -3.9474    3.3394   -2.7182 H         1 <0>         0.1032
     37 H12        -4.8700    1.8108   -2.5957 H         1 <0>         0.1061
     38 H13        -2.0298    2.1592   -3.1333 H         1 <0>         0.1309
     39 H14        -2.9579    0.6352   -3.0484 H         1 <0>         0.1348
     40 H15         1.9588    2.7770    0.4906 H         1 <0>         0.1277
     41 H16         4.3866    2.4267    0.2748 H         1 <0>         0.1264
     42 H17         5.2562    0.2336   -0.4301 H         1 <0>         0.1289
     43 H18         3.6985   -1.6118   -0.9109 H         1 <0>         0.1297
     44 H19         1.2711   -1.2640   -0.6870 H         1 <0>         0.1232
     45 H20        -1.5239    4.5450    1.4949 H         1 <0>         0.1121
     46 H21         0.0701    4.5332    2.2869 H         1 <0>         0.1195
     47 H22         1.8614    5.9632    1.4955 H         1 <0>         0.1379
     48 H23         2.4654    8.0380    0.3161 H         1 <0>         0.1479
     49 H24        -1.9541    5.9862   -0.4098 H         1 <0>         0.1350
     50 N2         -2.1158    1.2671   -1.2248 N.4       1 <0>        -0.3907
     51 H25        -2.4361    0.3485   -0.8964 H         1 <0>         0.4253
@<TRIPOS>BOND
     1    1    2 1
     2    1   27 1
     3    1   28 1
     4    1   29 1
     5    2    3 1
     6    2   16 am
     7    3    4 1
     8    3    5 1
     9    3   10 1
    10    5   30 1
    11    5   31 1
    12    5   50 1
    13    6    7 1
    14    6   32 1
    15    6   33 1
    16    6   50 1
    17    7    8 1
    18    7   34 1
    19    7   35 1
    20    8    9 1
    21    8   36 1
    22    8   37 1
    23    9   38 1
    24    9   39 1
    25    9   50 1
    26   10   15 ar
    27   10   11 ar
    28   11   12 ar
    29   11   40 1
    30   12   13 ar
    31   12   41 1
    32   13   14 ar
    33   13   42 1
    34   14   15 ar
    35   14   43 1
    36   15   44 1
    37   16   17 2
    38   16   18 1
    39   18   19 1
    40   18   45 1
    41   18   46 1
    42   19   24 ar
    43   19   20 ar
    44   20   21 ar
    45   20   47 1
    46   21   22 ar
    47   21   48 1
    48   22   23 ar
    49   22   26 1
    50   23   24 ar
    51   23   25 1
    52   24   49 1
    53   50   51 1
@<TRIPOS>MOLECULE
ZINC02534401
   36    38     0     0     0
SMALL
USER_CHARGES
dimethylBLAHol
@<TRIPOS>ATOM
      1 C1         -1.5660    3.5822    2.4837 C.3       1 <0>        -0.1713
      2 C2         -1.0584    3.0545    1.1403 C.3       1 <0>        -0.0877
      3 H1         -0.1899    3.6317    0.8229 H         1 <0>         0.1214
      4 C3         -0.6989    1.5633    1.2760 C.3       1 <0>         0.0328
      5 H2          0.0129    1.4691    2.0961 H         1 <0>         0.1356
      6 C4         -0.0127    1.0858    0.0080 C.3       1 <0>        -0.0882
      7 C5         -0.7165    1.5724   -1.2301 C.ar      1 <0>        -0.1149
      8 C6         -0.3426    1.0107   -2.4463 C.ar      1 <0>        -0.0932
      9 C7         -0.9388    1.4171   -3.6203 C.ar      1 <0>        -0.1362
     10 C8         -1.9207    2.3972   -3.5926 C.ar      1 <0>         0.1248
     11 C9         -2.2962    2.9544   -2.3815 C.ar      1 <0>        -0.1397
     12 C10        -1.6977    2.5370   -1.2023 C.ar      1 <0>        -0.0649
     13 C11        -2.1668    3.1674    0.0882 C.3       1 <0>        -0.0211
     14 C12        -3.3825    2.3603    0.5776 C.3       1 <0>        -0.1371
     15 C13        -2.9615    0.8891    0.6611 C.3       1 <0>        -0.0093
     16 C14        -2.5479    4.6321   -0.1362 C.3       1 <0>        -0.1477
     17 O1         -2.5104    2.8074   -4.7463 O.3       1 <0>        -0.4966
     18 H3         -2.4275    2.9954    2.8025 H         1 <0>         0.0558
     19 H4         -0.7746    3.5000    3.2288 H         1 <0>         0.0754
     20 H5         -1.8574    4.6271    2.3770 H         1 <0>         0.0871
     21 H6          0.0021   -0.0041    0.0020 H         1 <0>         0.0959
     22 H7          1.0132    1.4539    0.0002 H         1 <0>         0.1214
     23 H8          0.4227    0.2490   -2.4708 H         1 <0>         0.1326
     24 H9         -0.6424    0.9742   -4.5596 H         1 <0>         0.1372
     25 H10        -3.0591    3.7184   -2.3554 H         1 <0>         0.1376
     26 H11        -3.6903    2.7155    1.5610 H         1 <0>         0.0986
     27 H12        -4.2056    2.4671   -0.1290 H         1 <0>         0.1133
     28 H13        -2.6339    0.5457   -0.3202 H         1 <0>         0.1334
     29 H14        -3.8079    0.2877    0.9925 H         1 <0>         0.1314
     30 H15        -3.3516    4.6900   -0.8703 H         1 <0>         0.0715
     31 H16        -2.8832    5.0685    0.8047 H         1 <0>         0.0722
     32 H17        -1.6806    5.1811   -0.5028 H         1 <0>         0.0706
     33 H18        -2.0621    3.5492   -5.1749 H         1 <0>         0.4011
     34 N1         -1.8611    0.7376    1.6400 N.4       1 <0>        -0.5089
     35 H19        -2.1971    1.0245    2.5669 H         1 <0>         0.4318
     36 H20        -1.5742   -0.2478    1.6698 H         1 <0>         0.4349
@<TRIPOS>BOND
     1    1    2 1
     2    1   18 1
     3    1   19 1
     4    1   20 1
     5    2    3 1
     6    2   13 1
     7    2    4 1
     8    4    5 1
     9    4    6 1
    10    4   34 1
    11    6    7 1
    12    6   21 1
    13    6   22 1
    14    7   12 ar
    15    7    8 ar
    16    8    9 ar
    17    8   23 1
    18    9   10 ar
    19    9   24 1
    20   10   11 ar
    21   10   17 1
    22   11   12 ar
    23   11   25 1
    24   12   13 1
    25   13   14 1
    26   13   16 1
    27   14   15 1
    28   14   26 1
    29   14   27 1
    30   15   28 1
    31   15   29 1
    32   15   34 1
    33   16   30 1
    34   16   31 1
    35   16   32 1
    36   17   33 1
    37   34   35 1
    38   34   36 1
@<TRIPOS>MOLECULE
ZINC13284595
   58    61     0     0     0
SMALL
USER_CHARGES

@<TRIPOS>ATOM
      1 C1         -0.3263    1.3295    0.5988 C.3       1 <0>         0.0449
      2 N1         -0.2603   -0.1167    0.3495 N.3       1 <0>        -0.4782
      3 C2         -1.5900   -0.6598    0.0488 C.3       1 <0>         0.0757
      4 C3         -1.4497   -2.1204   -0.4104 C.3       1 <0>        -0.0881
      5 C4         -0.5066   -2.1476   -1.6245 C.3       1 <0>         0.1754
      6 H1         -0.3447   -3.1793   -1.9367 H         1 <0>         0.0620
      7 N2          0.7770   -1.5407   -1.2533 N.3       1 <0>        -0.4676
      8 C5          1.4704   -2.3007   -0.2068 C.3       1 <0>         0.1740
      9 H2          1.6091   -3.3304   -0.5363 H         1 <0>         0.0621
     10 C6          0.6258   -2.2821    1.0778 C.3       1 <0>        -0.0874
     11 C7          0.3864   -0.8140    1.4671 C.3       1 <0>         0.0708
     12 C8         -0.7357   -2.8642    0.7132 C.2       1 <0>         0.3800
     13 O1         -1.2072   -3.8288    1.2660 O.2       1 <0>        -0.4054
     14 C9          1.2911   -3.0501    2.1907 C.2       1 <0>         0.4896
     15 O2          2.3591   -3.5829    2.0026 O.2       1 <0>        -0.4857
     16 O3          0.6973   -3.1423    3.3910 O.3       1 <0>        -0.3394
     17 C10         1.3846   -3.8857    4.3995 C.3       1 <0>         0.0344
     18 C11         2.8137   -1.6737    0.0640 C.ar      1 <0>         0.1453
     19 C12         3.9673   -2.3775   -0.2271 C.ar      1 <0>        -0.1426
     20 C13         5.1979   -1.7916    0.0259 C.ar      1 <0>        -0.0745
     21 C14         5.2225   -0.5141    0.5647 C.ar      1 <0>        -0.1686
     22 C15         4.0279    0.1281    0.8296 C.ar      1 <0>         0.0939
     23 N3          2.8751   -0.4581    0.5710 N.ar      1 <0>        -0.4471
     24 C16         1.6358   -1.3634   -2.4319 C.3       1 <0>         0.0358
     25 C17        -1.1233   -1.3695   -2.7582 C.ar      1 <0>         0.1397
     26 C18        -1.4003   -2.0070   -3.9531 C.ar      1 <0>        -0.1382
     27 C19        -1.9676   -1.2822   -4.9897 C.ar      1 <0>        -0.0766
     28 C20        -2.2362    0.0628   -4.7849 C.ar      1 <0>        -0.1679
     29 C21        -1.9316    0.6319   -3.5631 C.ar      1 <0>         0.0920
     30 N4         -1.3972   -0.0898   -2.5972 N.ar      1 <0>        -0.4433
     31 C22        -2.7898   -2.7359   -0.7208 C.2       1 <0>         0.4887
     32 O4         -3.0194   -3.1554   -1.8304 O.2       1 <0>        -0.4852
     33 O5         -3.7283   -2.8181    0.2353 O.3       1 <0>        -0.3391
     34 C23        -4.9753   -3.4133   -0.1291 C.3       1 <0>         0.0345
     35 H3          0.6827    1.7238    0.7199 H         1 <0>         0.0734
     36 H4         -0.8099    1.8219   -0.2449 H         1 <0>         0.0726
     37 H5         -0.9006    1.5159    1.5062 H         1 <0>         0.0145
     38 H6         -2.2111   -0.6177    0.9436 H         1 <0>         0.0377
     39 H7         -2.0525   -0.0719   -0.7440 H         1 <0>         0.1261
     40 H8          1.3404   -0.3366    1.6911 H         1 <0>         0.1345
     41 H9         -0.2581   -0.7707    2.3451 H         1 <0>         0.0368
     42 H10         1.5242   -4.9127    4.0621 H         1 <0>         0.0629
     43 H11         2.3566   -3.4298    4.5879 H         1 <0>         0.0623
     44 H12         0.7972   -3.8815    5.3177 H         1 <0>         0.1058
     45 H13         3.9105   -3.3713   -0.6460 H         1 <0>         0.1300
     46 H14         6.1158   -2.3178   -0.1911 H         1 <0>         0.1337
     47 H15         6.1633   -0.0272    0.7749 H         1 <0>         0.1334
     48 H16         4.0385    1.1232    1.2492 H         1 <0>         0.1565
     49 H17         1.1114   -0.7651   -3.1769 H         1 <0>         0.0744
     50 H18         2.5545   -0.8551   -2.1389 H         1 <0>         0.0742
     51 H19         1.8788   -2.3384   -2.8543 H         1 <0>         0.0233
     52 H20        -1.1774   -3.0564   -4.0775 H         1 <0>         0.1303
     53 H21        -2.1946   -1.7537   -5.9344 H         1 <0>         0.1334
     54 H22        -2.6774    0.6581   -5.5706 H         1 <0>         0.1330
     55 H23        -2.1377    1.6787   -3.3957 H         1 <0>         0.1562
     56 H24        -5.4295   -2.8394   -0.9368 H         1 <0>         0.0623
     57 H25        -4.8057   -4.4373   -0.4618 H         1 <0>         0.0631
     58 H26        -5.6418   -3.4172    0.7333 H         1 <0>         0.1058
@<TRIPOS>BOND
     1    1    2 1
     2    1   35 1
     3    1   36 1
     4    1   37 1
     5    2   11 1
     6    2    3 1
     7    3    4 1
     8    3   38 1
     9    3   39 1
    10    4   12 1
    11    4    5 1
    12    4   31 1
    13    5    6 1
    14    5    7 1
    15    5   25 1
    16    7    8 1
    17    7   24 1
    18    8    9 1
    19    8   10 1
    20    8   18 1
    21   10   11 1
    22   10   12 1
    23   10   14 1
    24   11   40 1
    25   11   41 1
    26   12   13 2
    27   14   15 2
    28   14   16 1
    29   16   17 1
    30   17   42 1
    31   17   43 1
    32   17   44 1
    33   18   23 ar
    34   18   19 ar
    35   19   20 ar
    36   19   45 1
    37   20   21 ar
    38   20   46 1
    39   21   22 ar
    40   21   47 1
    41   22   23 ar
    42   22   48 1
    43   24   49 1
    44   24   50 1
    45   24   51 1
    46   25   30 ar
    47   25   26 ar
    48   26   27 ar
    49   26   52 1
    50   27   28 ar
    51   27   53 1
    52   28   29 ar
    53   28   54 1
    54   29   30 ar
    55   29   55 1
    56   31   32 2
    57   31   33 1
    58   33   34 1
    59   34   56 1
    60   34   57 1
    61   34   58 1
@<TRIPOS>MOLECULE
ZINC02530707
   59    62     0     0     0
SMALL
USER_CHARGES
2-(3,4-dichlorophenyl)-N-methyl-N-(9-pyrrolidin-1-yl-1-oxaspiro[4.5]dec-8-yl)-acetamide
@<TRIPOS>ATOM
      1 C1         -1.6581    5.4459    3.2775 C.3       1 <0>         0.0561
      2 N1         -1.5291    3.9980    3.4596 N.am      1 <0>        -0.6335
      3 C2         -2.5370    3.0962    2.8966 C.3       1 <0>         0.1229
      4 H1         -2.2738    2.0650    3.1321 H         1 <0>         0.1276
      5 C3         -3.9054    3.4230    3.4976 C.3       1 <0>        -0.1224
      6 C4         -4.9575    2.4769    2.9140 C.3       1 <0>        -0.1385
      7 C5         -5.0046    2.6424    1.3960 C.3       1 <0>         0.1146
      8 C6         -5.4069    4.0860    1.0450 C.3       1 <0>        -0.1551
      9 C7         -6.7462    3.9297    0.2833 C.3       1 <0>        -0.1563
     10 C8         -7.2228    2.5298    0.7482 C.3       1 <0>         0.0443
     11 O1         -5.9984    1.7692    0.8400 O.3       1 <0>        -0.3578
     12 C9         -3.6382    2.3283    0.7893 C.3       1 <0>        -0.1296
     13 C10        -2.5893    3.2747    1.3779 C.3       1 <0>         0.0207
     14 H2         -2.8562    4.3049    1.1420 H         1 <0>         0.1416
     15 C11        -0.8762    1.5735    1.1045 C.3       1 <0>        -0.0220
     16 C12        -0.0684    1.1157   -0.1354 C.3       1 <0>        -0.1402
     17 C13        -0.8443    1.8054   -1.2883 C.3       1 <0>        -0.1404
     18 C14        -1.2805    3.1459   -0.6605 C.3       1 <0>        -0.0166
     19 C15        -0.4831    3.4956    4.1451 C.2       1 <0>         0.5132
     20 O2         -0.3762    2.2969    4.2959 O.2       1 <0>        -0.5088
     21 C16         0.5538    4.4232    4.7243 C.3       1 <0>        -0.0994
     22 C17         1.6083    3.6159    5.4365 C.ar      1 <0>        -0.0667
     23 C18         1.4635    3.3222    6.7798 C.ar      1 <0>        -0.0853
     24 C19         2.4275    2.5778    7.4331 C.ar      1 <0>        -0.0923
     25 C20         3.5433    2.1351    6.7454 C.ar      1 <0>        -0.0257
     26 C21         3.6909    2.4338    5.4017 C.ar      1 <0>        -0.0300
     27 C22         2.7224    3.1745    4.7481 C.ar      1 <0>        -0.0876
     28 Cl1         5.0903    1.8786    4.5372 Cl        1 <0>        -0.0403
     29 Cl2         4.7580    1.2062    7.5672 Cl        1 <0>        -0.0360
     30 H3         -2.2316    5.8663    4.1035 H         1 <0>         0.0777
     31 H4         -0.6670    5.8991    3.2555 H         1 <0>         0.0886
     32 H5         -2.1716    5.6496    2.3378 H         1 <0>         0.0740
     33 H6         -3.8659    3.2993    4.5799 H         1 <0>         0.0940
     34 H7         -4.1706    4.4529    3.2590 H         1 <0>         0.0821
     35 H8         -4.6965    1.4475    3.1594 H         1 <0>         0.0827
     36 H9         -5.9340    2.7147    3.3359 H         1 <0>         0.0885
     37 H10        -5.5497    4.6738    1.9518 H         1 <0>         0.0878
     38 H11        -4.6550    4.5469    0.4045 H         1 <0>         0.0742
     39 H12        -7.4559    4.7012    0.5820 H         1 <0>         0.0884
     40 H13        -6.5851    3.9482   -0.7946 H         1 <0>         0.0810
     41 H14        -7.7088    2.5937    1.7218 H         1 <0>         0.0685
     42 H15        -7.8963    2.0900    0.0126 H         1 <0>         0.1026
     43 H16        -3.6813    2.4608   -0.2917 H         1 <0>         0.1007
     44 H17        -3.3671    1.2977    1.0186 H         1 <0>         0.0993
     45 H18        -1.7588    0.9473    1.2347 H         1 <0>         0.1362
     46 H19        -0.2518    1.5412    1.9973 H         1 <0>         0.1380
     47 H20        -0.0957    0.0311   -0.2406 H         1 <0>         0.1181
     48 H21         0.9594    1.4754   -0.0865 H         1 <0>         0.0980
     49 H22        -0.1916    1.9752   -2.1446 H         1 <0>         0.1137
     50 H23        -1.7115    1.2122   -1.5782 H         1 <0>         0.1002
     51 H24        -0.5796    3.9322   -0.9408 H         1 <0>         0.1308
     52 H25        -2.2846    3.4038   -0.9973 H         1 <0>         0.1327
     53 H26         1.0164    4.9976    3.9216 H         1 <0>         0.1115
     54 H27         0.0784    5.1038    5.4307 H         1 <0>         0.1178
     55 H28         0.5947    3.6714    7.3180 H         1 <0>         0.1376
     56 H29         2.3117    2.3451    8.4813 H         1 <0>         0.1476
     57 H30         2.8371    3.4082    3.6999 H         1 <0>         0.1365
     58 N2         -1.2543    2.9685    0.8005 N.4       1 <0>        -0.3904
     59 H31        -0.5590    3.6051    1.2075 H         1 <0>         0.4248
@<TRIPOS>BOND
     1    1    2 1
     2    1   30 1
     3    1   31 1
     4    1   32 1
     5    2    3 1
     6    2   19 am
     7    3    4 1
     8    3   13 1
     9    3    5 1
    10    5    6 1
    11    5   33 1
    12    5   34 1
    13    6    7 1
    14    6   35 1
    15    6   36 1
    16    7   11 1
    17    7    8 1
    18    7   12 1
    19    8    9 1
    20    8   37 1
    21    8   38 1
    22    9   10 1
    23    9   39 1
    24    9   40 1
    25   10   11 1
    26   10   41 1
    27   10   42 1
    28   12   13 1
    29   12   43 1
    30   12   44 1
    31   13   14 1
    32   13   58 1
    33   15   16 1
    34   15   45 1
    35   15   46 1
    36   15   58 1
    37   16   17 1
    38   16   47 1
    39   16   48 1
    40   17   18 1
    41   17   49 1
    42   17   50 1
    43   18   51 1
    44   18   52 1
    45   18   58 1
    46   19   20 2
    47   19   21 1
    48   21   22 1
    49   21   53 1
    50   21   54 1
    51   22   27 ar
    52   22   23 ar
    53   23   24 ar
    54   23   55 1
    55   24   25 ar
    56   24   56 1
    57   25   26 ar
    58   25   29 1
    59   26   27 ar
    60   26   28 1
    61   27   57 1
    62   58   59 1
@<TRIPOS>MOLECULE
ZINC38321402
   76    82     0     0     0
SMALL
USER_CHARGES

@<TRIPOS>ATOM
      1 C1          0.4310    1.5076   -1.3639 C.3       1 <0>        -0.1699
      2 C2         -0.0188    0.3493   -0.4713 C.3       1 <0>         0.1576
      3 C3          0.8533    0.3050    0.7849 C.3       1 <0>        -0.1001
      4 H1          0.9533   -0.7284    1.1169 H         1 <0>         0.0974
      5 C4          2.2417    0.8672    0.4567 C.3       1 <0>        -0.1345
      6 C5          2.5263    2.0512    1.3689 C.3       1 <0>        -0.0586
      7 C6          1.4722    3.1390    1.1281 C.3       1 <0>        -0.1114
      8 C7          0.0822    2.5870    1.4447 C.3       1 <0>        -0.1498
      9 C8          0.1872    1.1290    1.8917 C.3       1 <0>         0.1392
     10 C9          1.0327    1.0439    3.1653 C.3       1 <0>         0.0737
     11 H2          1.0947    0.0154    3.5210 H         1 <0>         0.1169
     12 C10         2.4211    1.5903    2.8308 C.3       1 <0>        -0.0454
     13 C11         3.5334    0.6459    3.2104 C.3       1 <0>        -0.1211
     14 C12         4.8977    1.2224    2.8250 C.3       1 <0>        -0.0107
     15 N1          4.9039    1.5632    1.3942 N.4       1 <0>        -0.3880
     16 C13         3.9169    2.6439    1.1753 C.3       1 <0>         0.0573
     17 H3          4.0109    3.0155    0.1550 H         1 <0>         0.1466
     18 C14         4.2611    3.7755    2.1430 C.3       1 <0>        -0.0941
     19 C15         3.3087    3.9382    3.2785 C.ar      1 <0>        -0.0530
     20 C16         2.4464    2.8973    3.5666 C.ar      1 <0>        -0.1746
     21 C17         1.3619    2.9528    4.4179 C.ar      1 <0>         0.1067
     22 C18         1.2530    4.0777    5.2475 C.ar      1 <0>         0.1057
     23 C19         2.1993    5.0849    5.0689 C.ar      1 <0>        -0.1016
     24 C20         3.1915    5.0414    4.1010 C.ar      1 <0>        -0.1156
     25 O1          0.2703    4.1813    6.1819 O.3       1 <0>        -0.4801
     26 O2          0.5194    1.9113    4.1927 O.3       1 <0>        -0.2684
     27 C21         6.2414    2.0255    1.0000 C.3       1 <0>         0.0212
     28 C22         7.2410    0.8761    1.1433 C.3       1 <0>        -0.2106
     29 C23         8.3675    1.0428    2.1650 C.3       1 <0>        -0.1682
     30 C24         8.6743    1.1230    0.6683 C.3       1 <0>        -0.1475
     31 O3         -1.1209    0.6142    2.1484 O.3       1 <0>        -0.3618
     32 C25        -1.8316    1.3163    3.1702 C.3       1 <0>         0.0249
     33 C26         0.1216   -0.9683   -1.2363 C.3       1 <0>        -0.0923
     34 C27         1.5655   -1.1278   -1.7166 C.3       1 <0>        -0.1503
     35 C28        -0.2410   -2.1344   -0.3145 C.3       1 <0>        -0.1511
     36 C29        -0.8193   -0.9603   -2.4428 C.3       1 <0>        -0.1409
     37 O4         -1.3846    0.5392   -0.0965 O.3       1 <0>        -0.5375
     38 H4          1.4583    1.3396   -1.6870 H         1 <0>         0.0768
     39 H5         -0.2192    1.5675   -2.2367 H         1 <0>         0.0727
     40 H6          0.3742    2.4411   -0.8040 H         1 <0>         0.0769
     41 H7          2.9945    0.0951    0.6157 H         1 <0>         0.0626
     42 H8          2.2663    1.1937   -0.5830 H         1 <0>         0.1156
     43 H9          1.6787    3.9934    1.7726 H         1 <0>         0.0852
     44 H10         1.5083    3.4547    0.0854 H         1 <0>         0.0824
     45 H11        -0.3688    3.1782    2.2417 H         1 <0>         0.0742
     46 H12        -0.5427    2.6480    0.5537 H         1 <0>         0.1053
     47 H13         3.5075    0.4765    4.2868 H         1 <0>         0.1160
     48 H14         3.3878   -0.3039    2.6958 H         1 <0>         0.0964
     49 H15         5.0916    2.1197    3.4126 H         1 <0>         0.1353
     50 H16         5.6736    0.4834    3.0253 H         1 <0>         0.1376
     51 H17         5.2547    3.5897    2.5508 H         1 <0>         0.1003
     52 H18         4.2922    4.7101    1.5830 H         1 <0>         0.1186
     53 H19         2.1577    5.9460    5.7194 H         1 <0>         0.1408
     54 H20         3.8735    5.8714    3.9904 H         1 <0>         0.1369
     55 H21         0.5111    3.8231    7.0472 H         1 <0>         0.3974
     56 H22         6.2190    2.3604   -0.0370 H         1 <0>         0.1355
     57 H23         6.5440    2.8524    1.6425 H         1 <0>         0.1310
     58 H24         6.8303   -0.1241    1.0052 H         1 <0>         0.1241
     59 H25         8.3965    1.9714    2.7352 H         1 <0>         0.1057
     60 H26         8.6981    0.1522    2.6995 H         1 <0>         0.1101
     61 H27         9.2067    0.2852    0.2180 H         1 <0>         0.1125
     62 H28         8.9051    2.1044    0.2537 H         1 <0>         0.1080
     63 H29        -2.8145    0.8648    3.3049 H         1 <0>         0.0882
     64 H30        -1.2743    1.2592    4.1052 H         1 <0>         0.0627
     65 H31        -1.9481    2.3605    2.8799 H         1 <0>         0.0458
     66 H32         2.1889   -1.4642   -0.8881 H         1 <0>         0.0512
     67 H33         1.6018   -1.8631   -2.5205 H         1 <0>         0.0620
     68 H34         1.9343   -0.1699   -2.0833 H         1 <0>         0.0601
     69 H35        -1.2697   -2.0207    0.0277 H         1 <0>         0.0606
     70 H36        -0.1410   -3.0730   -0.8595 H         1 <0>         0.0624
     71 H37         0.4292   -2.1401    0.5450 H         1 <0>         0.0560
     72 H38        -0.5609   -0.1296   -3.0995 H         1 <0>         0.0572
     73 H39        -0.7193   -1.8990   -2.9878 H         1 <0>         0.0552
     74 H40        -1.8479   -0.8467   -2.1006 H         1 <0>         0.0645
     75 H41        -1.7375   -0.1594    0.4713 H         1 <0>         0.3835
     76 H42         4.6485    0.7530    0.8497 H         1 <0>         0.4222
@<TRIPOS>BOND
     1    1    2 1
     2    1   38 1
     3    1   39 1
     4    1   40 1
     5    2    3 1
     6    2   33 1
     7    2   37 1
     8    3    4 1
     9    3    9 1
    10    3    5 1
    11    5    6 1
    12    5   41 1
    13    5   42 1
    14    6   12 1
    15    6   16 1
    16    6    7 1
    17    7    8 1
    18    7   43 1
    19    7   44 1
    20    8    9 1
    21    8   45 1
    22    8   46 1
    23    9   10 1
    24    9   31 1
    25   10   11 1
    26   10   26 1
    27   10   12 1
    28   12   20 1
    29   12   13 1
    30   13   14 1
    31   13   47 1
    32   13   48 1
    33   14   15 1
    34   14   49 1
    35   14   50 1
    36   15   16 1
    37   15   27 1
    38   15   76 1
    39   16   17 1
    40   16   18 1
    41   18   19 1
    42   18   51 1
    43   18   52 1
    44   19   24 ar
    45   19   20 ar
    46   20   21 ar
    47   21   22 ar
    48   21   26 1
    49   22   23 ar
    50   22   25 1
    51   23   24 ar
    52   23   53 1
    53   24   54 1
    54   25   55 1
    55   27   28 1
    56   27   56 1
    57   27   57 1
    58   28   30 1
    59   28   29 1
    60   28   58 1
    61   29   30 1
    62   29   59 1
    63   29   60 1
    64   30   61 1
    65   30   62 1
    66   31   32 1
    67   32   63 1
    68   32   64 1
    69   32   65 1
    70   33   34 1
    71   33   35 1
    72   33   36 1
    73   34   66 1
    74   34   67 1
    75   34   68 1
    76   35   69 1
    77   35   70 1
    78   35   71 1
    79   36   72 1
    80   36   73 1
    81   36   74 1
    82   37   75 1
@<TRIPOS>MOLECULE
ZINC58590440
   50    53     0     0     0
SMALL
USER_CHARGES

@<TRIPOS>ATOM
      1 C1          1.0173    1.7686   -0.9090 C.3       1 <0>        -0.0885
      2 C2          0.8331    0.2798   -0.7657 C.2       1 <0>        -0.0818
      3 C3         -0.3152   -0.4402   -0.7458 C.2       1 <0>        -0.1907
      4 C4         -0.2431   -1.8132   -0.6031 C.2       1 <0>        -0.0785
      5 C5          0.9738   -2.3990   -0.4874 C.2       1 <0>        -0.2682
      6 S1          2.0709   -0.9941   -0.5861 S.3       1 <0>         0.0826
      7 C6          1.3129   -3.8582   -0.3236 C.3       1 <0>         0.1025
      8 N1          1.4867   -4.4720   -1.6469 N.4       1 <0>        -0.3958
      9 C7          0.1786   -4.5929   -2.3440 C.3       1 <0>         0.0356
     10 H1         -0.4185   -3.6848   -2.2610 H         1 <0>         0.1465
     11 C8         -0.5024   -5.8043   -1.6665 C.3       1 <0>        -0.1395
     12 C9          0.6612   -6.6563   -1.1184 C.3       1 <0>        -0.1368
     13 C10         1.9396   -5.8824   -1.5145 C.3       1 <0>         0.0341
     14 H2          2.7338   -5.9929   -0.7762 H         1 <0>         0.1540
     15 C11         2.3628   -6.3581   -2.9135 C.3       1 <0>        -0.1348
     16 C12         1.1360   -6.3554   -3.8302 C.3       1 <0>         0.0707
     17 C13         0.4744   -4.9596   -3.8071 C.3       1 <0>        -0.1672
     18 O1          0.2030   -7.3391   -3.3785 O.3       1 <0>        -0.2924
     19 C14        -0.6401   -7.8622   -4.3073 C.ar      1 <0>         0.0993
     20 C15        -0.6474   -7.3570   -5.6007 C.ar      1 <0>        -0.1812
     21 C16        -1.5028   -7.8851   -6.5496 C.ar      1 <0>        -0.0833
     22 C17        -2.3557   -8.9180   -6.2174 C.ar      1 <0>        -0.1126
     23 C18        -2.3555   -9.4323   -4.9200 C.ar      1 <0>        -0.0940
     24 C19        -1.4873   -8.9024   -3.9650 C.ar      1 <0>        -0.0867
     25 C20        -3.2683  -10.5386   -4.5603 C.2       1 <0>         0.5605
     26 O2         -3.2663  -10.9849   -3.4297 O.2       1 <0>        -0.5321
     27 N2         -4.1024  -11.0520   -5.4861 N.am      1 <0>        -0.8457
     28 H3          2.0808    2.0067   -0.8892 H         1 <0>         0.0813
     29 H4          0.5887    2.0983   -1.8554 H         1 <0>         0.0941
     30 H5          0.5156    2.2777   -0.0861 H         1 <0>         0.0951
     31 H6         -1.2722    0.0515   -0.8396 H         1 <0>         0.1468
     32 H7         -1.1428   -2.4103   -0.5838 H         1 <0>         0.1398
     33 H8          2.2372   -3.9548    0.2459 H         1 <0>         0.1383
     34 H9          0.5048   -4.3617    0.2071 H         1 <0>         0.1444
     35 H10        -1.1453   -5.4713   -0.8517 H         1 <0>         0.0885
     36 H11        -1.0779   -6.3732   -2.3967 H         1 <0>         0.1271
     37 H12         0.5905   -6.7422   -0.0341 H         1 <0>         0.0932
     38 H13         0.6578   -7.6442   -1.5790 H         1 <0>         0.1323
     39 H14         3.1198   -5.6844   -3.3148 H         1 <0>         0.1066
     40 H15         2.7678   -7.3680   -2.8487 H         1 <0>         0.1253
     41 H16         1.4442   -6.5900   -4.8490 H         1 <0>         0.1046
     42 H17        -0.4577   -4.9900   -4.3714 H         1 <0>         0.1176
     43 H18         1.1423   -4.2161   -4.2420 H         1 <0>         0.1035
     44 H19         0.0173   -6.5483   -5.8662 H         1 <0>         0.1330
     45 H20        -1.5039   -7.4880   -7.5539 H         1 <0>         0.1373
     46 H21        -3.0232   -9.3278   -6.9610 H         1 <0>         0.1336
     47 H22        -1.4792   -9.2994   -2.9606 H         1 <0>         0.1466
     48 H23        -4.1040  -10.6959   -6.3883 H         1 <0>         0.4029
     49 H24        -4.7012  -11.7777   -5.2501 H         1 <0>         0.4114
     50 H25         2.1398   -3.9398   -2.2021 H         1 <0>         0.4207
@<TRIPOS>BOND
     1    1    2 1
     2    1   28 1
     3    1   29 1
     4    1   30 1
     5    2    6 1
     6    2    3 2
     7    3    4 1
     8    3   31 1
     9    4    5 2
    10    4   32 1
    11    5    6 1
    12    5    7 1
    13    7    8 1
    14    7   33 1
    15    7   34 1
    16    8   13 1
    17    8    9 1
    18    8   50 1
    19    9   10 1
    20    9   17 1
    21    9   11 1
    22   11   12 1
    23   11   35 1
    24   11   36 1
    25   12   13 1
    26   12   37 1
    27   12   38 1
    28   13   14 1
    29   13   15 1
    30   15   16 1
    31   15   39 1
    32   15   40 1
    33   16   17 1
    34   16   18 1
    35   16   41 1
    36   17   42 1
    37   17   43 1
    38   18   19 1
    39   19   24 ar
    40   19   20 ar
    41   20   21 ar
    42   20   44 1
    43   21   22 ar
    44   21   45 1
    45   22   23 ar
    46   22   46 1
    47   23   24 ar
    48   23   25 1
    49   24   47 1
    50   25   26 2
    51   25   27 am
    52   27   48 1
    53   27   49 1
@<TRIPOS>MOLECULE
ZINC58590440
   49    52     0     0     0
SMALL
USER_CHARGES

@<TRIPOS>ATOM
      1 C1          0.9868    1.7886   -0.9076 C.3       1 <0>        -0.0712
      2 C2          0.8051    0.2991   -0.7684 C.2       1 <0>        -0.1449
      3 C3         -0.3414   -0.4238   -0.7592 C.2       1 <0>        -0.1641
      4 C4         -0.2671   -1.7968   -0.6183 C.2       1 <0>        -0.1523
      5 C5          0.9502   -2.3798   -0.4935 C.2       1 <0>        -0.1304
      6 S1          2.0446   -0.9720   -0.5807 S.3       1 <0>         0.0484
      7 C6          1.2916   -3.8385   -0.3295 C.3       1 <0>         0.1262
      8 N1          1.4779   -4.4495   -1.6523 N.3       1 <0>        -0.4991
      9 C7          0.1703   -4.6767   -2.3234 C.3       1 <0>         0.0643
     10 H1         -0.4972   -3.8204   -2.2267 H         1 <0>         0.0933
     11 C8         -0.3957   -5.9399   -1.6347 C.3       1 <0>        -0.1495
     12 C9          0.8444   -6.6942   -1.1116 C.3       1 <0>        -0.1469
     13 C10         2.0471   -5.8182   -1.5317 C.3       1 <0>         0.0627
     14 H2          2.8623   -5.8637   -0.8096 H         1 <0>         0.0970
     15 C11         2.4795   -6.2574   -2.9398 C.3       1 <0>        -0.1007
     16 C12         1.2385   -6.3546   -3.8318 C.3       1 <0>         0.0823
     17 C13         0.4656   -5.0176   -3.7928 C.3       1 <0>        -0.1291
     18 O1          0.3982   -7.4114   -3.3635 O.3       1 <0>        -0.2858
     19 C14        -0.4178   -8.0014   -4.2763 C.ar      1 <0>         0.1174
     20 C15        -0.4923   -7.4981   -5.5682 C.ar      1 <0>        -0.1829
     21 C16        -1.3206   -8.0941   -6.5009 C.ar      1 <0>        -0.0859
     22 C17        -2.0794   -9.1933   -6.1537 C.ar      1 <0>        -0.1264
     23 C18        -2.0111   -9.7063   -4.8576 C.ar      1 <0>        -0.1007
     24 C19        -1.1701   -9.1074   -3.9191 C.ar      1 <0>        -0.0942
     25 C20        -2.8230  -10.8835   -4.4819 C.2       1 <0>         0.5632
     26 O2         -2.7619  -11.3285   -3.3524 O.2       1 <0>        -0.5349
     27 N2         -3.6309  -11.4632   -5.3918 N.am      1 <0>        -0.8493
     28 H3          2.0495    2.0293   -0.8786 H         1 <0>         0.0720
     29 H4          0.5653    2.1189   -1.8570 H         1 <0>         0.0798
     30 H5          0.4771    2.2950   -0.0880 H         1 <0>         0.0799
     31 H6         -1.2988    0.0658   -0.8601 H         1 <0>         0.1296
     32 H7         -1.1655   -2.3961   -0.6075 H         1 <0>         0.1266
     33 H8          2.2114   -3.9337    0.2476 H         1 <0>         0.0882
     34 H9          0.4804   -4.3448    0.1937 H         1 <0>         0.0641
     35 H10        -1.0472   -5.6608   -0.8067 H         1 <0>         0.0538
     36 H11        -0.9374   -6.5538   -2.3544 H         1 <0>         0.0913
     37 H12         0.8027   -6.7859   -0.0263 H         1 <0>         0.0581
     38 H13         0.9125   -7.6789   -1.5740 H         1 <0>         0.0964
     39 H14         3.1708   -5.5239   -3.3548 H         1 <0>         0.0921
     40 H15         2.9669   -7.2308   -2.8850 H         1 <0>         0.0791
     41 H16         1.5443   -6.5629   -4.8570 H         1 <0>         0.0764
     42 H17        -0.4720   -5.1239   -4.3384 H         1 <0>         0.0722
     43 H18         1.0617   -4.2218   -4.2395 H         1 <0>         0.0879
     44 H19         0.0987   -6.6377   -5.8454 H         1 <0>         0.1348
     45 H20        -1.3743   -7.6980   -7.5042 H         1 <0>         0.1320
     46 H21        -2.7260   -9.6561   -6.8846 H         1 <0>         0.1273
     47 H22        -1.1094   -9.5028   -2.9159 H         1 <0>         0.1429
     48 H23        -3.6796  -11.1080   -6.2931 H         1 <0>         0.4018
     49 H24        -4.1635  -12.2355   -5.1453 H         1 <0>         0.4072
@<TRIPOS>BOND
     1    1    2 1
     2    1   28 1
     3    1   29 1
     4    1   30 1
     5    2    6 1
     6    2    3 2
     7    3    4 1
     8    3   31 1
     9    4    5 2
    10    4   32 1
    11    5    6 1
    12    5    7 1
    13    7    8 1
    14    7   33 1
    15    7   34 1
    16    8   13 1
    17    8    9 1
    18    9   10 1
    19    9   17 1
    20    9   11 1
    21   11   12 1
    22   11   35 1
    23   11   36 1
    24   12   13 1
    25   12   37 1
    26   12   38 1
    27   13   14 1
    28   13   15 1
    29   15   16 1
    30   15   39 1
    31   15   40 1
    32   16   17 1
    33   16   18 1
    34   16   41 1
    35   17   42 1
    36   17   43 1
    37   18   19 1
    38   19   24 ar
    39   19   20 ar
    40   20   21 ar
    41   20   44 1
    42   21   22 ar
    43   21   45 1
    44   22   23 ar
    45   22   46 1
    46   23   24 ar
    47   23   25 1
    48   24   47 1
    49   25   26 2
    50   25   27 am
    51   27   48 1
    52   27   49 1
@<TRIPOS>MOLECULE
ZINC00000853
   45    46     0     0     0
SMALL
USER_CHARGES

@<TRIPOS>ATOM
      1 C1         -0.0178    1.4648    0.0101 C.3       1 <0>        -0.0563
      2 N1          0.0021   -0.0041    0.0020 N.4       1 <0>        -0.3878
      3 C2          0.7126   -0.4907    1.1921 C.3       1 <0>        -0.0471
      4 C3         -1.3761   -0.5125    0.0124 C.3       1 <0>        -0.0103
      5 C4         -2.0780   -0.1101   -1.2861 C.3       1 <0>        -0.0949
      6 H1         -2.0144    0.9705   -1.4137 H         1 <0>         0.1057
      7 C5         -1.3995   -0.8041   -2.4688 C.3       1 <0>        -0.1251
      8 C6         -2.1014   -0.4017   -3.7674 C.3       1 <0>        -0.1201
      9 C7         -3.5711   -0.8221   -3.7042 C.3       1 <0>        -0.1213
     10 C8         -4.2497   -0.1281   -2.5214 C.3       1 <0>        -0.1420
     11 C9         -3.5477   -0.5306   -1.2229 C.3       1 <0>         0.1949
     12 C10        -4.2161    0.1530   -0.0579 C.ar      1 <0>        -0.0843
     13 C11        -3.7786    1.3977    0.3564 C.ar      1 <0>        -0.1707
     14 C12        -4.3896    2.0274    1.4247 C.ar      1 <0>        -0.0707
     15 C13        -5.4390    1.4140    2.0816 C.ar      1 <0>        -0.2039
     16 C14        -5.8796    0.1655    1.6680 C.ar      1 <0>         0.1450
     17 C15        -5.2687   -0.4618    0.5916 C.ar      1 <0>        -0.1429
     18 O1         -6.9117   -0.4400    2.3124 O.3       1 <0>        -0.3132
     19 C16        -7.4965    0.2669    3.4080 C.3       1 <0>         0.0238
     20 O2         -3.6311   -1.9473   -1.0556 O.3       1 <0>        -0.5509
     21 H2          1.0047    1.8421    0.0024 H         1 <0>         0.1265
     22 H3         -0.5450    1.8259   -0.8730 H         1 <0>         0.1223
     23 H4         -0.5280    1.8163    0.9069 H         1 <0>         0.1237
     24 H5          0.2024   -0.1392    2.0889 H         1 <0>         0.1216
     25 H6          0.7273   -1.5806    1.1861 H         1 <0>         0.1240
     26 H7          1.7352   -0.1134    1.1844 H         1 <0>         0.1249
     27 H8         -1.3618   -1.5992    0.0961 H         1 <0>         0.1405
     28 H9         -1.9129   -0.0898    0.8617 H         1 <0>         0.1336
     29 H10        -0.3524   -0.5046   -2.5139 H         1 <0>         0.0574
     30 H11        -1.4631   -1.8847   -2.3413 H         1 <0>         0.0907
     31 H12        -2.0378    0.6790   -3.8950 H         1 <0>         0.0659
     32 H13        -1.6180   -0.8961   -4.6100 H         1 <0>         0.0759
     33 H14        -4.0712   -0.5354   -4.6293 H         1 <0>         0.0732
     34 H15        -3.6347   -1.9028   -3.5766 H         1 <0>         0.0755
     35 H16        -4.1861    0.9525   -2.6490 H         1 <0>         0.0782
     36 H17        -5.2967   -0.4277   -2.4764 H         1 <0>         0.0788
     37 H18        -2.9581    1.8786   -0.1553 H         1 <0>         0.1199
     38 H19        -4.0462    2.9995    1.7463 H         1 <0>         0.1301
     39 H20        -5.9155    1.9060    2.9166 H         1 <0>         0.1343
     40 H21        -5.6131   -1.4318    0.2646 H         1 <0>         0.1327
     41 H22        -7.8899    1.2207    3.0566 H         1 <0>         0.0603
     42 H23        -8.3067   -0.3263    3.8321 H         1 <0>         0.1081
     43 H24        -6.7389    0.4453    4.1712 H         1 <0>         0.0591
     44 H25        -4.5359   -2.2851   -1.0074 H         1 <0>         0.3908
     45 H26         0.4743   -0.3295   -0.8281 H         1 <0>         0.4241
@<TRIPOS>BOND
     1    1    2 1
     2    1   21 1
     3    1   22 1
     4    1   23 1
     5    2    3 1
     6    2    4 1
     7    2   45 1
     8    3   24 1
     9    3   25 1
    10    3   26 1
    11    4    5 1
    12    4   27 1
    13    4   28 1
    14    5    6 1
    15    5   11 1
    16    5    7 1
    17    7    8 1
    18    7   29 1
    19    7   30 1
    20    8    9 1
    21    8   31 1
    22    8   32 1
    23    9   10 1
    24    9   33 1
    25    9   34 1
    26   10   11 1
    27   10   35 1
    28   10   36 1
    29   11   12 1
    30   11   20 1
    31   12   17 ar
    32   12   13 ar
    33   13   14 ar
    34   13   37 1
    35   14   15 ar
    36   14   38 1
    37   15   16 ar
    38   15   39 1
    39   16   17 ar
    40   16   18 1
    41   17   40 1
    42   18   19 1
    43   19   41 1
    44   19   42 1
    45   19   43 1
    46   20   44 1
@<TRIPOS>MOLECULE
ZINC00002200
   45    46     0     0     0
SMALL
USER_CHARGES
2-(dimethylaminomethyl)-1-(3-methoxyphenyl)-cyclohexan-1-ol
@<TRIPOS>ATOM
      1 C1         -4.3360    0.0060   -2.3149 C.3       1 <0>        -0.0424
      2 C2         -3.4265   -2.0815   -1.4917 C.3       1 <0>        -0.0505
      3 H1         -2.8695   -2.5368   -0.6728 H         1 <0>         0.1199
      4 H2         -4.4311   -2.5031   -1.5264 H         1 <0>         0.1245
      5 H3         -2.9159   -2.2814   -2.4337 H         1 <0>         0.1245
      6 C3         -2.1733   -0.0268   -1.2266 C.3       1 <0>        -0.0051
      7 C4         -1.4333   -0.5336    0.0129 C.3       1 <0>        -0.0960
      8 H4         -1.4185   -1.6235    0.0069 H         1 <0>         0.1055
      9 C5         -2.1494   -0.0402    1.2717 C.3       1 <0>        -0.1250
     10 C6         -1.4095   -0.5471    2.5112 C.3       1 <0>        -0.1199
     11 C7          0.0259   -0.0175    2.5003 C.3       1 <0>        -0.1213
     12 C8          0.7421   -0.5109    1.2415 C.3       1 <0>        -0.1421
     13 C9          0.0021   -0.0041    0.0020 C.3       1 <0>         0.1949
     14 C10         0.7074   -0.4901   -1.2379 C.ar      1 <0>        -0.0845
     15 C11         0.3564   -1.7029   -1.8018 C.ar      1 <0>        -0.1701
     16 C12         0.9977   -2.1489   -2.9425 C.ar      1 <0>        -0.0708
     17 C13         1.9991   -1.3887   -3.5154 C.ar      1 <0>        -0.2038
     18 C14         2.3570   -0.1744   -2.9483 C.ar      1 <0>         0.1449
     19 C15         1.7079    0.2736   -1.8068 C.ar      1 <0>        -0.1430
     20 O1          3.3419    0.5750   -3.5097 O.3       1 <0>        -0.3132
     21 C16         3.9663    0.0515   -4.6837 C.3       1 <0>         0.0239
     22 O2         -0.0173    1.4248    0.0099 O.3       1 <0>        -0.5510
     23 H5         -3.8583   -0.1182   -3.2867 H         1 <0>         0.1227
     24 H6         -5.3213   -0.4598   -2.3321 H         1 <0>         0.1229
     25 H7         -4.4402    1.0684   -2.0944 H         1 <0>         0.1221
     26 H8         -2.2658    1.0581   -1.1763 H         1 <0>         0.1388
     27 H9         -1.6150   -0.3027   -2.1212 H         1 <0>         0.1348
     28 H10        -2.1642    1.0497    1.2777 H         1 <0>         0.0911
     29 H11        -3.1720   -0.4175    1.2794 H         1 <0>         0.0569
     30 H12        -1.9196   -0.1955    3.4080 H         1 <0>         0.0760
     31 H13        -1.3947   -1.6369    2.5052 H         1 <0>         0.0661
     32 H14         0.0111    1.0724    2.5063 H         1 <0>         0.0755
     33 H15         0.5531   -0.3786    3.3834 H         1 <0>         0.0733
     34 H16         0.7568   -1.6008    1.2356 H         1 <0>         0.0782
     35 H17         1.7647   -0.1336    1.2338 H         1 <0>         0.0788
     36 H18        -0.4228   -2.3009   -1.3528 H         1 <0>         0.1201
     37 H19         0.7185   -3.0942   -3.3838 H         1 <0>         0.1301
     38 H20         2.5031   -1.7397   -4.4037 H         1 <0>         0.1342
     39 H21         1.9845    1.2189   -1.3636 H         1 <0>         0.1326
     40 H22         4.7322    0.7462   -5.0284 H         1 <0>         0.1081
     41 H23         4.4251   -0.9100   -4.4531 H         1 <0>         0.0603
     42 H24         3.2178   -0.0811   -5.4649 H         1 <0>         0.0591
     43 H25         0.8606    1.8301    0.0037 H         1 <0>         0.3908
     44 N1         -3.5242   -0.6260   -1.2536 N.4       1 <0>        -0.3993
     45 H26        -3.9782   -0.4662   -0.3467 H         1 <0>         0.4275
@<TRIPOS>BOND
     1    1   23 1
     2    1   24 1
     3    1   25 1
     4    1   44 1
     5    2    3 1
     6    2    4 1
     7    2    5 1
     8    2   44 1
     9    6    7 1
    10    6   26 1
    11    6   27 1
    12    6   44 1
    13    7    8 1
    14    7   13 1
    15    7    9 1
    16    9   10 1
    17    9   28 1
    18    9   29 1
    19   10   11 1
    20   10   30 1
    21   10   31 1
    22   11   12 1
    23   11   32 1
    24   11   33 1
    25   12   13 1
    26   12   34 1
    27   12   35 1
    28   13   14 1
    29   13   22 1
    30   14   19 ar
    31   14   15 ar
    32   15   16 ar
    33   15   36 1
    34   16   17 ar
    35   16   37 1
    36   17   18 ar
    37   17   38 1
    38   18   19 ar
    39   18   20 1
    40   19   39 1
    41   20   21 1
    42   21   40 1
    43   21   41 1
    44   21   42 1
    45   22   43 1
    46   44   45 1
@<TRIPOS>MOLECULE
ZINC01849532
   45    46     0     0     0
SMALL
USER_CHARGES
2-(dimethylaminomethyl)-1-(3-methoxyphenyl)-cyclohexan-1-ol
@<TRIPOS>ATOM
      1 C1         -3.8545    4.1975    2.4202 C.3       1 <0>        -0.0487
      2 C2         -5.0373    5.1687    0.5440 C.3       1 <0>        -0.0439
      3 C3         -3.7850    3.1167    0.2547 C.3       1 <0>        -0.0176
      4 C4         -3.5513    1.7292    0.8556 C.3       1 <0>        -0.0934
      5 H1         -3.0656    1.8307    1.8261 H         1 <0>         0.1035
      6 C5         -4.8937    1.0160    1.0293 C.3       1 <0>        -0.1270
      7 C6         -5.5755    0.8735   -0.3329 C.3       1 <0>        -0.1281
      8 C7         -4.6813    0.0568   -1.2679 C.3       1 <0>        -0.1218
      9 C8         -3.3389    0.7700   -1.4416 C.3       1 <0>        -0.1522
     10 C9         -2.6571    0.9125   -0.0793 C.3       1 <0>         0.1978
     11 C10        -1.3348    1.6150   -0.2504 C.ar      1 <0>        -0.0976
     12 C11        -0.2551    1.2563    0.5357 C.ar      1 <0>        -0.1395
     13 C12         0.9577    1.9025    0.3848 C.ar      1 <0>        -0.0702
     14 C13         1.0951    2.9054   -0.5555 C.ar      1 <0>        -0.1995
     15 C14         0.0151    3.2634   -1.3489 C.ar      1 <0>         0.1329
     16 C15        -1.2009    2.6130   -1.1958 C.ar      1 <0>        -0.1616
     17 O1          0.1480    4.2492   -2.2748 O.3       1 <0>        -0.3174
     18 C16         1.4286    4.8749   -2.3771 C.3       1 <0>         0.0239
     19 O2         -2.4388   -0.3834    0.4819 O.3       1 <0>        -0.5426
     20 H2         -2.9421    4.7457    2.1854 H         1 <0>         0.1239
     21 H3         -4.4756    4.7948    3.0878 H         1 <0>         0.1246
     22 H4         -3.5980    3.2568    2.9074 H         1 <0>         0.1221
     23 H5         -5.6407    4.9340   -0.3329 H         1 <0>         0.1217
     24 H6         -5.6333    5.7454    1.2513 H         1 <0>         0.1248
     25 H7         -4.1678    5.7520    0.2411 H         1 <0>         0.1241
     26 H8         -2.8257    3.6071    0.0889 H         1 <0>         0.1395
     27 H9         -4.3112    3.0175   -0.6947 H         1 <0>         0.1358
     28 H10        -5.5308    1.5978    1.6954 H         1 <0>         0.0579
     29 H11        -4.7272    0.0275    1.4574 H         1 <0>         0.1029
     30 H12        -5.7420    1.8620   -0.7611 H         1 <0>         0.0553
     31 H13        -6.5319    0.3654   -0.2092 H         1 <0>         0.0800
     32 H14        -5.1670   -0.0447   -2.2384 H         1 <0>         0.0735
     33 H15        -4.5148   -0.9317   -0.8398 H         1 <0>         0.0797
     34 H16        -3.5053    1.7585   -1.8697 H         1 <0>         0.0739
     35 H17        -2.7018    0.1882   -2.1077 H         1 <0>         0.0819
     36 H18        -0.3606    0.4726    1.2713 H         1 <0>         0.1350
     37 H19         1.7983    1.6233    1.0028 H         1 <0>         0.1321
     38 H20         2.0426    3.4104   -0.6725 H         1 <0>         0.1336
     39 H21        -2.0433    2.8899   -1.8124 H         1 <0>         0.1307
     40 H22         1.6864    5.3332   -1.4223 H         1 <0>         0.0586
     41 H23         2.1786    4.1274   -2.6356 H         1 <0>         0.0608
     42 H24         1.3977    5.6414   -3.1515 H         1 <0>         0.1069
     43 H25        -1.8788   -0.9570   -0.0588 H         1 <0>         0.3925
     44 N1         -4.6162    3.9064    1.1875 N.4       1 <0>        -0.3966
     45 H26        -5.4517    3.3620    1.4324 H         1 <0>         0.4276
@<TRIPOS>BOND
     1    1   20 1
     2    1   21 1
     3    1   22 1
     4    1   44 1
     5    2   23 1
     6    2   24 1
     7    2   25 1
     8    2   44 1
     9    3    4 1
    10    3   26 1
    11    3   27 1
    12    3   44 1
    13    4    5 1
    14    4   10 1
    15    4    6 1
    16    6    7 1
    17    6   28 1
    18    6   29 1
    19    7    8 1
    20    7   30 1
    21    7   31 1
    22    8    9 1
    23    8   32 1
    24    8   33 1
    25    9   10 1
    26    9   34 1
    27    9   35 1
    28   10   11 1
    29   10   19 1
    30   11   16 ar
    31   11   12 ar
    32   12   13 ar
    33   12   36 1
    34   13   14 ar
    35   13   37 1
    36   14   15 ar
    37   14   38 1
    38   15   16 ar
    39   15   17 1
    40   16   39 1
    41   17   18 1
    42   18   40 1
    43   18   41 1
    44   18   42 1
    45   19   43 1
    46   44   45 1
@<TRIPOS>MOLECULE
ZINC02015652
   45    46     0     0     0
SMALL
USER_CHARGES

@<TRIPOS>ATOM
      1 C1         -0.0525   -2.0814   -0.7853 C.3       1 <0>        -0.0566
      2 N1         -1.1008   -1.9115    0.2297 N.4       1 <0>        -0.3982
      3 C2         -0.6157   -2.4114    1.5230 C.3       1 <0>        -0.0511
      4 C3         -1.4389   -0.4871    0.3509 C.3       1 <0>        -0.0131
      5 C4         -2.0436    0.0072   -0.9648 C.3       1 <0>        -0.0949
      6 H1         -1.4830   -0.4095   -1.8015 H         1 <0>         0.1020
      7 C5         -1.9752    1.5349   -1.0153 C.3       1 <0>        -0.1098
      8 C6         -2.7620    2.1198    0.1593 C.3       1 <0>        -0.1278
      9 C7         -4.2221    1.6714    0.0688 C.3       1 <0>        -0.1224
     10 C8         -4.2905    0.1438    0.1193 C.3       1 <0>        -0.1519
     11 C9         -3.5036   -0.4411   -1.0552 C.3       1 <0>         0.1809
     12 C10        -3.5711   -1.9458   -1.0054 C.ar      1 <0>        -0.1268
     13 C11        -4.0597   -2.5785    0.1230 C.ar      1 <0>        -0.1791
     14 C12        -4.1228   -3.9586    0.1718 C.ar      1 <0>        -0.0733
     15 C13        -3.6972   -4.7094   -0.9072 C.ar      1 <0>        -0.1994
     16 C14        -3.2067   -4.0772   -2.0402 C.ar      1 <0>         0.1380
     17 C15        -3.1500   -2.6916   -2.0891 C.ar      1 <0>        -0.1464
     18 O1         -2.7875   -4.8134   -3.1028 O.3       1 <0>        -0.3079
     19 C16        -2.8803   -6.2345   -2.9846 C.3       1 <0>         0.0205
     20 O2         -4.0684    0.0206   -2.2840 O.3       1 <0>        -0.5352
     21 H2          0.2849   -3.1178   -0.7893 H         1 <0>         0.1230
     22 H3         -0.4521   -1.8256   -1.7667 H         1 <0>         0.1225
     23 H4          0.7875   -1.4267   -0.5532 H         1 <0>         0.1268
     24 H5          0.2712   -1.8514    1.8195 H         1 <0>         0.1254
     25 H6         -1.3935   -2.2854    2.2762 H         1 <0>         0.1219
     26 H7         -0.3648   -3.4683    1.4331 H         1 <0>         0.1225
     27 H8         -2.1612   -0.3523    1.1560 H         1 <0>         0.1354
     28 H9         -0.5367    0.0828    0.5729 H         1 <0>         0.1394
     29 H10        -0.9350    1.8543   -0.9508 H         1 <0>         0.0760
     30 H11        -2.4060    1.8871   -1.9526 H         1 <0>         0.0943
     31 H12        -2.3312    1.7676    1.0965 H         1 <0>         0.0602
     32 H13        -2.7133    3.2081    0.1233 H         1 <0>         0.0785
     33 H14        -4.7826    2.0881    0.9056 H         1 <0>         0.0733
     34 H15        -4.6529    2.0236   -0.8685 H         1 <0>         0.0791
     35 H16        -3.8597   -0.2084    1.0566 H         1 <0>         0.0721
     36 H17        -5.3307   -0.1756    0.0549 H         1 <0>         0.0827
     37 H18        -4.3922   -1.9934    0.9677 H         1 <0>         0.1418
     38 H19        -4.5048   -4.4504    1.0542 H         1 <0>         0.1412
     39 H20        -3.7461   -5.7876   -0.8683 H         1 <0>         0.1424
     40 H21        -2.7729   -2.1969   -2.9719 H         1 <0>         0.1470
     41 H22        -3.9202   -6.5185   -2.8235 H         1 <0>         0.0639
     42 H23        -2.5141   -6.6999   -3.8997 H         1 <0>         0.1121
     43 H24        -2.2774   -6.5690   -2.1404 H         1 <0>         0.0606
     44 H25        -4.9946   -0.2278   -2.4091 H         1 <0>         0.3912
     45 H26        -1.9218   -2.4299   -0.0447 H         1 <0>         0.4189
@<TRIPOS>BOND
     1    1    2 1
     2    1   21 1
     3    1   22 1
     4    1   23 1
     5    2    3 1
     6    2    4 1
     7    2   45 1
     8    3   24 1
     9    3   25 1
    10    3   26 1
    11    4    5 1
    12    4   27 1
    13    4   28 1
    14    5    6 1
    15    5   11 1
    16    5    7 1
    17    7    8 1
    18    7   29 1
    19    7   30 1
    20    8    9 1
    21    8   31 1
    22    8   32 1
    23    9   10 1
    24    9   33 1
    25    9   34 1
    26   10   11 1
    27   10   35 1
    28   10   36 1
    29   11   12 1
    30   11   20 1
    31   12   17 ar
    32   12   13 ar
    33   13   14 ar
    34   13   37 1
    35   14   15 ar
    36   14   38 1
    37   15   16 ar
    38   15   39 1
    39   16   17 ar
    40   16   18 1
    41   17   40 1
    42   18   19 1
    43   19   41 1
    44   19   42 1
    45   19   43 1
    46   20   44 1
@<TRIPOS>MOLECULE
ZINC02022527
   54    55     0     0     0
SMALL
USER_CHARGES

@<TRIPOS>ATOM
      1 C1         -3.0730    2.2881   -4.2693 C.3       1 <0>        -0.1569
      2 C2         -2.3049    1.5870   -3.1471 C.3       1 <0>        -0.1270
      3 C3         -2.8110    2.0874   -1.7927 C.3       1 <0>        -0.1231
      4 C4         -2.0429    1.3862   -0.6705 C.3       1 <0>        -0.1174
      5 C5         -2.5490    1.8867    0.6839 C.3       1 <0>        -0.1006
      6 C6         -2.2117    3.3722    0.8391 C.3       1 <0>        -0.1451
      7 C7         -2.6658    3.8518    2.2196 C.3       1 <0>        -0.0114
      8 C8         -2.3347    1.6429    3.1595 C.3       1 <0>        -0.0001
      9 C9         -1.8707    1.0973    1.8070 C.3       1 <0>        -0.1442
     10 C10        -2.2939    3.5901    4.5974 C.3       1 <0>        -0.0052
     11 C11        -2.1583    5.1140    4.5919 C.3       1 <0>        -0.1459
     12 C12        -2.4764    5.6593    5.9856 C.3       1 <0>        -0.1543
     13 C13        -2.3428    7.1604    5.9803 C.2       1 <0>         0.3987
     14 O1         -2.0245    7.7371    4.9623 O.2       1 <0>        -0.4456
     15 C14        -2.5986    7.9263    7.2106 C.ar      1 <0>        -0.1885
     16 C15        -3.0878    7.2813    8.3513 C.ar      1 <0>        -0.0705
     17 C16        -3.3195    8.0047    9.5018 C.ar      1 <0>        -0.1389
     18 C17        -3.0801    9.3679    9.5265 C.ar      1 <0>        -0.0729
     19 C18        -2.6016   10.0143    8.4004 C.ar      1 <0>        -0.1345
     20 C19        -2.3594    9.3036    7.2436 C.ar      1 <0>        -0.0178
     21 C20        -1.8387   10.0095    6.0182 C.3       1 <0>        -0.1264
     22 H1         -4.1363    2.0676   -4.1746 H         1 <0>         0.0549
     23 H2         -2.9175    3.3647   -4.1985 H         1 <0>         0.0540
     24 H3         -2.7125    1.9316   -5.2342 H         1 <0>         0.0581
     25 H4         -1.2417    1.8075   -3.2417 H         1 <0>         0.0621
     26 H5         -2.4605    0.5104   -3.2179 H         1 <0>         0.0631
     27 H6         -3.8743    1.8669   -1.6981 H         1 <0>         0.0644
     28 H7         -2.6555    3.1639   -1.7219 H         1 <0>         0.0632
     29 H8         -2.1984    0.3097   -0.7413 H         1 <0>         0.0733
     30 H9         -0.9796    1.6067   -0.7651 H         1 <0>         0.0688
     31 H10        -3.6287    1.7492    0.7427 H         1 <0>         0.0884
     32 H11        -1.1354    3.5132    0.7407 H         1 <0>         0.0881
     33 H12        -2.7264    3.9447    0.0675 H         1 <0>         0.1133
     34 H13        -3.7442    3.7233    2.3122 H         1 <0>         0.1295
     35 H14        -2.4142    4.9057    2.3388 H         1 <0>         0.1342
     36 H15        -3.4146    1.5248    3.2476 H         1 <0>         0.1293
     37 H16        -1.8426    1.0924    3.9613 H         1 <0>         0.1282
     38 H17        -2.1418    0.0446    1.7270 H         1 <0>         0.1118
     39 H18        -0.7890    1.2025    1.7239 H         1 <0>         0.0880
     40 H19        -3.3133    3.3170    4.8704 H         1 <0>         0.1315
     41 H20        -1.5979    3.1659    5.3211 H         1 <0>         0.1302
     42 H21        -1.1389    5.3871    4.3190 H         1 <0>         0.0944
     43 H22        -2.8542    5.5382    3.8682 H         1 <0>         0.0968
     44 H23        -3.4115    5.4088    6.2361 H         1 <0>         0.0981
     45 H24        -1.7805    5.2352    6.7093 H         1 <0>         0.1100
     46 H25        -3.2793    6.2186    8.3321 H         1 <0>         0.1290
     47 H26        -3.6933    7.5074   10.3846 H         1 <0>         0.1322
     48 H27        -3.2682    9.9300   10.4293 H         1 <0>         0.1326
     49 H28        -2.4176   11.0782    8.4274 H         1 <0>         0.1332
     50 H29        -2.6709   10.2515    5.3572 H         1 <0>         0.0784
     51 H30        -1.3321   10.9277    6.3156 H         1 <0>         0.0652
     52 H31        -1.1365    9.3600    5.4956 H         1 <0>         0.0893
     53 N1         -1.9588    3.0696    3.2558 N.4       1 <0>        -0.3931
     54 H32        -0.9467    3.1581    3.1071 H         1 <0>         0.4272
@<TRIPOS>BOND
     1    1    2 1
     2    1   22 1
     3    1   23 1
     4    1   24 1
     5    2    3 1
     6    2   25 1
     7    2   26 1
     8    3    4 1
     9    3   27 1
    10    3   28 1
    11    4    5 1
    12    4   29 1
    13    4   30 1
    14    5    9 1
    15    5    6 1
    16    5   31 1
    17    6    7 1
    18    6   32 1
    19    6   33 1
    20    7   34 1
    21    7   35 1
    22    7   53 1
    23    8    9 1
    24    8   36 1
    25    8   37 1
    26    8   53 1
    27    9   38 1
    28    9   39 1
    29   10   11 1
    30   10   40 1
    31   10   41 1
    32   10   53 1
    33   11   12 1
    34   11   42 1
    35   11   43 1
    36   12   13 1
    37   12   44 1
    38   12   45 1
    39   13   14 2
    40   13   15 1
    41   15   20 ar
    42   15   16 ar
    43   16   17 ar
    44   16   46 1
    45   17   18 ar
    46   17   47 1
    47   18   19 ar
    48   18   48 1
    49   19   20 ar
    50   19   49 1
    51   20   21 1
    52   21   50 1
    53   21   51 1
    54   21   52 1
    55   53   54 1
@<TRIPOS>MOLECULE
ZINC64548741
   46    48     0     0     0
SMALL
USER_CHARGES

@<TRIPOS>ATOM
      1 C1          0.6633    1.9859   -0.1461 C.ar      1 <0>        -0.0835
      2 C2          1.9544    2.4754   -0.2119 C.ar      1 <0>        -0.1126
      3 C3          3.0259    1.6020   -0.2048 C.ar      1 <0>        -0.0932
      4 C4          2.8063    0.2392   -0.1314 C.ar      1 <0>        -0.1626
      5 C5          1.5152   -0.2503   -0.0647 C.ar      1 <0>        -0.0984
      6 C6          0.4437    0.6230   -0.0732 C.ar      1 <0>        -0.1132
      7 C7          3.9744   -0.7130   -0.1247 C.3       1 <0>         0.0441
      8 N1          4.4005   -0.9554    1.2601 N.4       1 <0>        -0.3839
      9 C8          3.3259   -1.6407    1.9882 C.3       1 <0>        -0.0077
     10 C9          3.7324   -1.8234    3.4521 C.3       1 <0>        -0.1408
     11 C10         5.0123   -2.6615    3.5200 C.3       1 <0>         0.0733
     12 C11         6.1049   -1.9746    2.6956 C.3       1 <0>        -0.1773
     13 C12         5.6104   -1.7863    1.2598 C.3       1 <0>        -0.0029
     14 O1          5.4386   -2.7736    4.8793 O.3       1 <0>        -0.2955
     15 C13         6.2053   -3.8493    5.1988 C.ar      1 <0>         0.1121
     16 C14         6.5562   -4.0829    6.5218 C.ar      1 <0>        -0.1157
     17 C15         7.3359   -5.1755    6.8527 C.ar      1 <0>        -0.0807
     18 C16         7.7711   -6.0412    5.8700 C.ar      1 <0>        -0.1133
     19 C17         7.4234   -5.8146    4.5375 C.ar      1 <0>        -0.0985
     20 C18         6.6313   -4.7149    4.2057 C.ar      1 <0>        -0.1547
     21 C19         7.8882   -6.7396    3.4818 C.2       1 <0>         0.5638
     22 O2          7.5841   -6.5402    2.3219 O.2       1 <0>        -0.5443
     23 N2          8.6490   -7.8039    3.8055 N.am      1 <0>        -0.8440
     24 H1         -0.1737    2.6684   -0.1471 H         1 <0>         0.1362
     25 H2          2.1259    3.5401   -0.2692 H         1 <0>         0.1364
     26 H3          4.0346    1.9844   -0.2569 H         1 <0>         0.1314
     27 H4          1.3436   -1.3150   -0.0078 H         1 <0>         0.1313
     28 H5         -0.5650    0.2406   -0.0215 H         1 <0>         0.1365
     29 H6          3.6772   -1.6558   -0.5837 H         1 <0>         0.1368
     30 H7          4.8002   -0.2788   -0.6882 H         1 <0>         0.1387
     31 H8          2.4148   -1.0446    1.9363 H         1 <0>         0.1408
     32 H9          3.1467   -2.6165    1.5369 H         1 <0>         0.1325
     33 H10         3.9116   -0.8480    3.9045 H         1 <0>         0.1009
     34 H11         2.9340   -2.3339    3.9906 H         1 <0>         0.1223
     35 H12         4.8196   -3.6546    3.1142 H         1 <0>         0.0930
     36 H13         6.3333   -1.0024    3.1323 H         1 <0>         0.1023
     37 H14         7.0023   -2.5933    2.6933 H         1 <0>         0.1194
     38 H15         5.3826   -2.7591    0.8240 H         1 <0>         0.1339
     39 H16         6.3860   -1.2977    0.6700 H         1 <0>         0.1389
     40 H17         6.2192   -3.4084    7.2950 H         1 <0>         0.1409
     41 H18         7.6056   -5.3520    7.8835 H         1 <0>         0.1444
     42 H19         8.3806   -6.8934    6.1318 H         1 <0>         0.1342
     43 H20         6.3551   -4.5369    3.1769 H         1 <0>         0.1395
     44 H21         8.8917   -7.9631    4.7311 H         1 <0>         0.4046
     45 H22         8.9539   -8.4108    3.1130 H         1 <0>         0.4109
     46 H23         4.5991   -0.0739    1.7090 H         1 <0>         0.4238
@<TRIPOS>BOND
     1    1    6 ar
     2    1    2 ar
     3    1   24 1
     4    2    3 ar
     5    2   25 1
     6    3    4 ar
     7    3   26 1
     8    4    5 ar
     9    4    7 1
    10    5    6 ar
    11    5   27 1
    12    6   28 1
    13    7    8 1
    14    7   29 1
    15    7   30 1
    16    8   13 1
    17    8    9 1
    18    8   46 1
    19    9   10 1
    20    9   31 1
    21    9   32 1
    22   10   11 1
    23   10   33 1
    24   10   34 1
    25   11   12 1
    26   11   14 1
    27   11   35 1
    28   12   13 1
    29   12   36 1
    30   12   37 1
    31   13   38 1
    32   13   39 1
    33   14   15 1
    34   15   20 ar
    35   15   16 ar
    36   16   17 ar
    37   16   40 1
    38   17   18 ar
    39   17   41 1
    40   18   19 ar
    41   18   42 1
    42   19   20 ar
    43   19   21 1
    44   20   43 1
    45   21   22 2
    46   21   23 am
    47   23   44 1
    48   23   45 1
@<TRIPOS>MOLECULE
ZINC02567733
   48    50     0     0     0
SMALL
USER_CHARGES

@<TRIPOS>ATOM
      1 C1         -0.5534    1.6432    0.1359 C.ar      1 <0>        -0.0887
      2 C2          0.4602    2.5826    0.1714 C.ar      1 <0>        -0.0952
      3 C3          1.7816    2.1759    0.1339 C.ar      1 <0>        -0.0270
      4 C4          2.0884    0.8274    0.0608 C.ar      1 <0>        -0.0294
      5 C5          1.0731   -0.1110    0.0254 C.ar      1 <0>        -0.0840
      6 C6         -0.2472    0.2973    0.0629 C.ar      1 <0>        -0.0634
      7 C7         -1.3532   -0.7257    0.0247 C.3       1 <0>        -0.1008
      8 C8         -1.7402   -0.9939   -1.4068 C.2       1 <0>         0.5281
      9 O1         -1.1737   -0.4117   -2.3074 O.2       1 <0>        -0.5329
     10 N1         -2.7158   -1.8807   -1.6863 N.am      1 <0>        -0.6044
     11 C9         -3.3344   -2.6751   -0.6163 C.3       1 <0>         0.1017
     12 C10        -4.8538   -2.4904   -0.6805 C.3       1 <0>        -0.1411
     13 C11        -5.3469   -2.8384   -2.0869 C.3       1 <0>        -0.1219
     14 C12        -4.7021   -1.8936   -3.1037 C.3       1 <0>        -0.1563
     15 C13        -3.1852   -2.0671   -3.0661 C.3       1 <0>         0.1270
     16 H1         -2.9265   -3.0693   -3.4078 H         1 <0>         0.0950
     17 C14        -2.5294   -1.0266   -3.9760 C.3       1 <0>        -0.0052
     18 N2         -3.0360   -1.1850   -5.3457 N.4       1 <0>        -0.3977
     19 C15        -4.3078   -0.4357   -5.5113 C.3       1 <0>        -0.0198
     20 C16        -4.3986   -0.2257   -7.0437 C.3       1 <0>        -0.1454
     21 C17        -2.9276    0.0294   -7.4454 C.3       1 <0>        -0.1449
     22 C18        -2.0882   -0.5892   -6.3122 C.3       1 <0>        -0.0035
     23 Cl1         3.7464    0.3153    0.0131 Cl        1 <0>        -0.0389
     24 Cl2         3.0548    3.3551    0.1778 Cl        1 <0>        -0.0379
     25 H2         -1.5851    1.9609    0.1697 H         1 <0>         0.1357
     26 H3          0.2203    3.6341    0.2280 H         1 <0>         0.1460
     27 H4          1.3116   -1.1628   -0.0320 H         1 <0>         0.1402
     28 H5         -1.0088   -1.6506    0.4874 H         1 <0>         0.1153
     29 H6         -2.2176   -0.3467    0.5699 H         1 <0>         0.1165
     30 H7         -3.0882   -3.7279   -0.7538 H         1 <0>         0.0833
     31 H8         -2.9656   -2.3347    0.3513 H         1 <0>         0.0998
     32 H9         -5.3313   -3.1484    0.0456 H         1 <0>         0.0902
     33 H10        -5.1043   -1.4542   -0.4532 H         1 <0>         0.0735
     34 H11        -5.0744   -3.8669   -2.3232 H         1 <0>         0.0729
     35 H12        -6.4309   -2.7315   -2.1285 H         1 <0>         0.0802
     36 H13        -5.0716   -2.1268   -4.1023 H         1 <0>         0.0795
     37 H14        -4.9541   -0.8631   -2.8535 H         1 <0>         0.0825
     38 H15        -2.7669   -0.0262   -3.6142 H         1 <0>         0.1360
     39 H16        -1.4486   -1.1681   -3.9697 H         1 <0>         0.1612
     40 H17        -5.1514   -1.0258   -5.1532 H         1 <0>         0.1400
     41 H18        -4.2599    0.5224   -4.9938 H         1 <0>         0.1320
     42 H19        -4.7826   -1.1204   -7.5336 H         1 <0>         0.0972
     43 H20        -5.0181    0.6399   -7.2783 H         1 <0>         0.1150
     44 H21        -2.7038   -0.4608   -8.3929 H         1 <0>         0.1044
     45 H22        -2.7354    1.0998   -7.5176 H         1 <0>         0.1029
     46 H23        -1.4968    0.1849   -5.8232 H         1 <0>         0.1317
     47 H24        -1.4333   -1.3620   -6.7146 H         1 <0>         0.1306
     48 H25        -3.1771   -2.1621   -5.5541 H         1 <0>         0.4195
@<TRIPOS>BOND
     1    1    6 ar
     2    1    2 ar
     3    1   25 1
     4    2    3 ar
     5    2   26 1
     6    3    4 ar
     7    3   24 1
     8    4    5 ar
     9    4   23 1
    10    5    6 ar
    11    5   27 1
    12    6    7 1
    13    7    8 1
    14    7   28 1
    15    7   29 1
    16    8    9 2
    17    8   10 am
    18   10   15 1
    19   10   11 1
    20   11   12 1
    21   11   30 1
    22   11   31 1
    23   12   13 1
    24   12   32 1
    25   12   33 1
    26   13   14 1
    27   13   34 1
    28   13   35 1
    29   14   15 1
    30   14   36 1
    31   14   37 1
    32   15   16 1
    33   15   17 1
    34   17   18 1
    35   17   38 1
    36   17   39 1
    37   18   22 1
    38   18   19 1
    39   18   48 1
    40   19   20 1
    41   19   40 1
    42   19   41 1
    43   20   21 1
    44   20   42 1
    45   20   43 1
    46   21   22 1
    47   21   44 1
    48   21   45 1
    49   22   46 1
    50   22   47 1
@<TRIPOS>MOLECULE
ZINC03995684
   48    50     0     0     0
SMALL
USER_CHARGES

@<TRIPOS>ATOM
      1 C1          0.2065    1.1605    0.0233 C.ar      1 <0>        -0.0876
      2 C2          1.4563    1.7515    0.0238 C.ar      1 <0>        -0.0946
      3 C3          2.5934    0.9644    0.0179 C.ar      1 <0>        -0.0269
      4 C4          2.4793   -0.4157    0.0116 C.ar      1 <0>        -0.0298
      5 C5          1.2282   -1.0053    0.0111 C.ar      1 <0>        -0.0850
      6 C6          0.0925   -0.2170    0.0169 C.ar      1 <0>        -0.0635
      7 C7         -1.2704   -0.8599    0.0168 C.3       1 <0>        -0.1011
      8 C8         -1.7802   -0.9565   -1.3981 C.2       1 <0>         0.5282
      9 O1         -1.0681   -0.6273   -2.3230 O.2       1 <0>        -0.5333
     10 N1         -3.0273   -1.4089   -1.6356 N.am      1 <0>        -0.6053
     11 C9         -3.9435   -1.6972   -0.5238 C.3       1 <0>         0.1019
     12 C10        -4.4676   -3.1287   -0.6753 C.3       1 <0>        -0.1414
     13 C11        -5.0912   -3.2952   -2.0629 C.3       1 <0>        -0.1200
     14 C12        -4.0259   -3.0548   -3.1350 C.3       1 <0>        -0.1502
     15 C13        -3.4987   -1.6172   -3.0115 C.3       1 <0>         0.1256
     16 H1         -4.2988   -0.9113   -3.2345 H         1 <0>         0.0955
     17 C14        -2.3395   -1.4082   -3.9880 C.3       1 <0>        -0.0047
     18 N2         -2.8041   -1.6548   -5.3596 N.4       1 <0>        -0.4005
     19 C15        -3.7505   -0.5896   -5.7790 C.3       1 <0>        -0.0089
     20 C16        -3.6942   -0.6544   -7.3260 C.3       1 <0>        -0.1447
     21 C17        -2.2035   -0.9543   -7.6054 C.3       1 <0>        -0.1446
     22 C18        -1.6683   -1.5798   -6.3040 C.3       1 <0>        -0.0044
     23 Cl1         3.9057   -1.4052    0.0036 Cl        1 <0>        -0.0395
     24 Cl2         4.1631    1.7060    0.0180 Cl        1 <0>        -0.0380
     25 H2         -0.6813    1.7754    0.0324 H         1 <0>         0.1361
     26 H3          1.5446    2.8279    0.0284 H         1 <0>         0.1463
     27 H4          1.1385   -2.0816    0.0057 H         1 <0>         0.1400
     28 H5         -1.2009   -1.8590    0.4470 H         1 <0>         0.1163
     29 H6         -1.9571   -0.2559    0.6099 H         1 <0>         0.1155
     30 H7         -3.4112   -1.6012    0.4226 H         1 <0>         0.1000
     31 H8         -4.7791   -0.9977   -0.5480 H         1 <0>         0.0830
     32 H9         -3.6429   -3.8321   -0.5603 H         1 <0>         0.0741
     33 H10        -5.2211   -3.3230    0.0880 H         1 <0>         0.0905
     34 H11        -5.4869   -4.3058   -2.1643 H         1 <0>         0.0807
     35 H12        -5.8997   -2.5747   -2.1864 H         1 <0>         0.0726
     36 H13        -3.2053   -3.7589   -2.9968 H         1 <0>         0.0833
     37 H14        -4.4651   -3.1965   -4.1225 H         1 <0>         0.0723
     38 H15        -1.9757   -0.3840   -3.9062 H         1 <0>         0.1621
     39 H16        -1.5327   -2.1006   -3.7477 H         1 <0>         0.1350
     40 H17        -4.7570   -0.8066   -5.4213 H         1 <0>         0.1315
     41 H18        -3.4160    0.3845   -5.4223 H         1 <0>         0.1333
     42 H19        -4.3265   -1.4589   -7.7017 H         1 <0>         0.0971
     43 H20        -3.9838    0.3013   -7.7629 H         1 <0>         0.1160
     44 H21        -2.1078   -1.6592   -8.4313 H         1 <0>         0.1045
     45 H22        -1.6678   -0.0321   -7.8302 H         1 <0>         0.1037
     46 H23        -0.8799   -0.9529   -5.8876 H         1 <0>         0.1322
     47 H24        -1.2845   -2.5803   -6.5034 H         1 <0>         0.1296
     48 H25        -3.2476   -2.5591   -5.4199 H         1 <0>         0.4170
@<TRIPOS>BOND
     1    1    6 ar
     2    1    2 ar
     3    1   25 1
     4    2    3 ar
     5    2   26 1
     6    3    4 ar
     7    3   24 1
     8    4    5 ar
     9    4   23 1
    10    5    6 ar
    11    5   27 1
    12    6    7 1
    13    7    8 1
    14    7   28 1
    15    7   29 1
    16    8    9 2
    17    8   10 am
    18   10   15 1
    19   10   11 1
    20   11   12 1
    21   11   30 1
    22   11   31 1
    23   12   13 1
    24   12   32 1
    25   12   33 1
    26   13   14 1
    27   13   34 1
    28   13   35 1
    29   14   15 1
    30   14   36 1
    31   14   37 1
    32   15   16 1
    33   15   17 1
    34   17   18 1
    35   17   38 1
    36   17   39 1
    37   18   22 1
    38   18   19 1
    39   18   48 1
    40   19   20 1
    41   19   40 1
    42   19   41 1
    43   20   21 1
    44   20   42 1
    45   20   43 1
    46   21   22 1
    47   21   44 1
    48   21   45 1
    49   22   46 1
    50   22   47 1
@<TRIPOS>MOLECULE
ZINC14089740
   60    65     0     0     0
SMALL
USER_CHARGES
(2S,3S,4S,5R,6R)-3,4,5-trihydroxy-6-(hydroxy-methyl-BLAHyl)oxy-tetrahydropyran-2-carboxylic acid
@<TRIPOS>ATOM
      1 C1          2.2238   -3.3128    8.0696 C.3       1 <0>        -0.0471
      2 C2          3.4617   -1.4602    7.1304 C.3       1 <0>        -0.0033
      3 C3          3.4604    0.0510    6.8535 C.3       1 <0>        -0.1222
      4 C4          2.2591    0.3419    5.9499 C.3       1 <0>        -0.0575
      5 C5          2.3752   -0.5146    4.7140 C.ar      1 <0>        -0.1776
      6 C6          1.8556   -1.7726    4.5248 C.ar      1 <0>        -0.0492
      7 C7          2.1142   -2.3494    3.2944 C.ar      1 <0>        -0.1194
      8 C8          2.8193   -1.6464    2.3302 C.ar      1 <0>        -0.1005
      9 C9          3.2861   -0.3467    2.5162 C.ar      1 <0>         0.1020
     10 C10         3.0344    0.2470    3.7569 C.ar      1 <0>         0.1420
     11 O1          3.2757    1.4871    4.2413 O.3       1 <0>        -0.2773
     12 C11         2.3032    1.7313    5.3230 C.3       1 <0>         0.1113
     13 H1          2.5850    2.5167    6.0243 H         1 <0>         0.1520
     14 C12         1.0050    2.0292    4.5642 C.3       1 <0>         0.0974
     15 H2          0.8451    3.1074    4.5659 H         1 <0>         0.0841
     16 C13        -0.2057    1.3748    5.1224 C.2       1 <0>        -0.1210
     17 C14        -0.2362    0.4448    6.0190 C.2       1 <0>        -0.1521
     18 C15         0.9959   -0.0584    6.6750 C.3       1 <0>        -0.0436
     19 H3          1.0359    0.4052    7.6606 H         1 <0>         0.0950
     20 C16         1.0254   -1.5652    6.8918 C.3       1 <0>         0.0574
     21 H4          0.1286   -1.8319    7.4512 H         1 <0>         0.1387
     22 C17         1.0512   -2.3956    5.6193 C.3       1 <0>        -0.0857
     23 O2          1.1655    1.6011    3.2103 O.3       1 <0>        -0.3396
     24 C18         0.2700    2.2305    2.2916 C.3       1 <0>         0.2181
     25 H5          0.2050    3.2947    2.5185 H         1 <0>         0.0634
     26 C19         0.7891    2.0438    0.8636 C.3       1 <0>         0.1027
     27 H6          0.8929    0.9800    0.6499 H         1 <0>         0.0766
     28 C20        -0.2062    2.6686   -0.1189 C.3       1 <0>         0.1245
     29 H7         -0.2730    3.7413    0.0623 H         1 <0>         0.0706
     30 C21        -1.5819    2.0274    0.0881 C.3       1 <0>         0.0696
     31 H8         -1.5260    0.9633   -0.1413 H         1 <0>         0.0663
     32 C22        -2.0094    2.2147    1.5461 C.3       1 <0>         0.0224
     33 H9         -2.1043    3.2787    1.7632 H         1 <0>         0.0715
     34 O3         -1.0254    1.6385    2.4074 O.3       1 <0>        -0.3592
     35 C23        -3.3353    1.5352    1.7724 C.2       1 <0>         0.4750
     36 O4         -3.4097    0.5899    2.5213 O.co2     1 <0>        -0.6071
     37 O5         -2.5347    2.6524   -0.7743 O.3       1 <0>        -0.5639
     38 O6          0.2335    2.4347   -1.4584 O.3       1 <0>        -0.5511
     39 O7          2.0594    2.6842    0.7283 O.3       1 <0>        -0.5421
     40 O8          3.9561    0.3149    1.5349 O.3       1 <0>        -0.4845
     41 H10         2.4155   -3.8965    7.1692 H         1 <0>         0.1260
     42 H11         3.0144   -3.4967    8.7971 H         1 <0>         0.1221
     43 H12         1.2637   -3.6054    8.4946 H         1 <0>         0.1233
     44 H13         4.2776   -1.6986    7.8127 H         1 <0>         0.1277
     45 H14         3.6115   -1.9960    6.1931 H         1 <0>         0.1344
     46 H15         4.3831    0.3370    6.3486 H         1 <0>         0.1188
     47 H16         3.3625    0.6002    7.7899 H         1 <0>         0.0963
     48 H17         1.7661   -3.3500    3.0847 H         1 <0>         0.1323
     49 H18         3.0170   -2.1310    1.3855 H         1 <0>         0.1352
     50 H19        -1.1593    1.7101    4.7421 H         1 <0>         0.1357
     51 H20        -1.1883    0.0189    6.2995 H         1 <0>         0.1302
     52 H21         0.0280   -2.5303    5.2686 H         1 <0>         0.1261
     53 H22         1.4716   -3.3747    5.8488 H         1 <0>         0.0980
     54 H23        -3.4302    2.2964   -0.6946 H         1 <0>         0.4068
     55 H24        -0.3547    2.7982   -2.1345 H         1 <0>         0.3908
     56 H25         2.7085    2.4146    1.3925 H         1 <0>         0.3768
     57 H26         3.3811    0.7547    0.8938 H         1 <0>         0.3916
     58 N1          2.1866   -1.8711    7.7705 N.4       1 <0>        -0.3963
     59 H27         2.0780   -1.3521    8.6497 H         1 <0>         0.4274
     60 O9         -4.4337    1.9800    1.1419 O.co2     1 <0>        -0.7395
@<TRIPOS>BOND
     1    1   41 1
     2    1   42 1
     3    1   43 1
     4    1   58 1
     5    2    3 1
     6    2   44 1
     7    2   45 1
     8    2   58 1
     9    3    4 1
    10    3   46 1
    11    3   47 1
    12    4   12 1
    13    4   18 1
    14    4    5 1
    15    5   10 ar
    16    5    6 ar
    17    6   22 1
    18    6    7 ar
    19    7    8 ar
    20    7   48 1
    21    8    9 ar
    22    8   49 1
    23    9   10 ar
    24    9   40 1
    25   10   11 1
    26   11   12 1
    27   12   13 1
    28   12   14 1
    29   14   15 1
    30   14   16 1
    31   14   23 1
    32   16   17 2
    33   16   50 1
    34   17   18 1
    35   17   51 1
    36   18   19 1
    37   18   20 1
    38   20   21 1
    39   20   22 1
    40   20   58 1
    41   22   52 1
    42   22   53 1
    43   23   24 1
    44   24   25 1
    45   24   34 1
    46   24   26 1
    47   26   27 1
    48   26   28 1
    49   26   39 1
    50   28   29 1
    51   28   30 1
    52   28   38 1
    53   30   31 1
    54   30   32 1
    55   30   37 1
    56   32   33 1
    57   32   34 1
    58   32   35 1
    59   35   36 2
    60   35   60 1
    61   37   54 1
    62   38   55 1
    63   39   56 1
    64   40   57 1
    65   58   59 1
@<TRIPOS>MOLECULE
ZINC22066510
   73    75     0     0     0
SMALL
USER_CHARGES

@<TRIPOS>ATOM
      1 C1          2.4910   -1.6080   -3.8112 C.3       1 <0>        -0.1682
      2 C2          1.7409   -0.5348   -3.0198 C.3       1 <0>         0.1082
      3 N1          0.4296   -1.0506   -2.6189 N.am      1 <0>        -0.6052
      4 C3          0.2957   -1.8338   -1.3881 C.3       1 <0>         0.0959
      5 C4          0.2625   -0.8901   -0.1842 C.3       1 <0>        -0.1789
      6 C5         -0.6534   -0.8047   -3.3824 C.2       1 <0>         0.5551
      7 O1         -0.5330   -0.2052   -4.4329 O.2       1 <0>        -0.5297
      8 C6         -1.9880   -1.2642   -2.9423 C.ar      1 <0>        -0.1172
      9 C7         -2.3958   -1.0698   -1.6217 C.ar      1 <0>        -0.0965
     10 C8         -3.6425   -1.5005   -1.2175 C.ar      1 <0>        -0.1206
     11 C9         -4.4878   -2.1244   -2.1179 C.ar      1 <0>        -0.0559
     12 C10        -4.0894   -2.3205   -3.4283 C.ar      1 <0>        -0.0954
     13 C11        -2.8477   -1.8890   -3.8470 C.ar      1 <0>        -0.0706
     14 C12        -5.8481   -2.5927   -1.6693 C.3       1 <0>         0.1758
     15 H1         -6.1289   -2.0701   -0.7549 H         1 <0>         0.0736
     16 C13        -5.8075   -4.0763   -1.4077 C.ar      1 <0>        -0.0583
     17 C14        -5.6865   -4.9609   -2.4637 C.ar      1 <0>        -0.1407
     18 C15        -5.6490   -6.3224   -2.2271 C.ar      1 <0>        -0.0770
     19 C16        -5.7329   -6.8027   -0.9343 C.ar      1 <0>        -0.1994
     20 C17        -5.8544   -5.9174    0.1266 C.ar      1 <0>         0.1361
     21 C18        -5.8856   -4.5511   -0.1130 C.ar      1 <0>        -0.1429
     22 O2         -5.9370   -6.3873    1.3991 O.3       1 <0>        -0.3155
     23 C19        -5.8925   -7.8052    1.5713 C.3       1 <0>         0.0249
     24 N2         -6.8351   -2.3074   -2.7192 N.3       1 <0>        -0.5260
     25 C20        -8.0333   -3.1429   -2.5568 C.3       1 <0>         0.0231
     26 C21        -9.0086   -2.8586   -3.7012 C.3       1 <0>         0.0323
     27 H2         -8.5345   -3.1030   -4.6518 H         1 <0>         0.1445
     28 N3         -9.3769   -1.4368   -3.6891 N.4       1 <0>        -0.3828
     29 C22        -8.1734   -0.6159   -3.8768 C.3       1 <0>         0.0016
     30 C23        -7.1911   -0.8815   -2.7339 C.3       1 <0>         0.0643
     31 H3         -7.6558   -0.6128   -1.7852 H         1 <0>         0.0669
     32 C24        -5.9286   -0.0422   -2.9404 C.3       1 <0>        -0.1606
     33 C25       -10.3271   -1.1681   -4.7766 C.3       1 <0>         0.0243
     34 C26       -10.7993    0.2604   -4.6897 C.2       1 <0>        -0.2350
     35 C27       -10.6767    1.0549   -5.7241 C.2       1 <0>        -0.1053
     36 C28       -10.2657   -3.7125   -3.5238 C.3       1 <0>        -0.1832
     37 H4          2.6235   -2.4927   -3.1884 H         1 <0>         0.0561
     38 H5          1.9172   -1.8718   -4.6997 H         1 <0>         0.0586
     39 H6          3.4666   -1.2242   -4.1095 H         1 <0>         0.0703
     40 H7          2.3147   -0.2710   -2.1314 H         1 <0>         0.0793
     41 H8          1.6084    0.3499   -3.6427 H         1 <0>         0.0876
     42 H9         -0.6286   -2.4105   -1.4232 H         1 <0>         0.0867
     43 H10         1.1438   -2.5120   -1.2949 H         1 <0>         0.0813
     44 H11         1.2763   -0.5666    0.0519 H         1 <0>         0.0652
     45 H12        -0.3505   -0.0205   -0.4210 H         1 <0>         0.0640
     46 H13        -0.1618   -1.4110    0.6741 H         1 <0>         0.0725
     47 H14        -1.7367   -0.5837   -0.9177 H         1 <0>         0.1429
     48 H15        -3.9594   -1.3508   -0.1959 H         1 <0>         0.1276
     49 H16        -4.7538   -2.8085   -4.1262 H         1 <0>         0.1342
     50 H17        -2.5399   -2.0384   -4.8714 H         1 <0>         0.1309
     51 H18        -5.6215   -4.5875   -3.4750 H         1 <0>         0.1305
     52 H19        -5.5545   -7.0113   -3.0535 H         1 <0>         0.1294
     53 H20        -5.7043   -7.8665   -0.7501 H         1 <0>         0.1321
     54 H21        -5.9754   -3.8596    0.7117 H         1 <0>         0.1302
     55 H22        -4.9515   -8.1896    1.1776 H         1 <0>         0.0594
     56 H23        -5.9676   -8.0450    2.6319 H         1 <0>         0.1059
     57 H24        -6.7243   -8.2626    1.0356 H         1 <0>         0.0581
     58 H25        -7.7483   -4.1948   -2.5747 H         1 <0>         0.1343
     59 H26        -8.5118   -2.9115   -1.6052 H         1 <0>         0.0619
     60 H27        -7.7036   -0.8717   -4.8265 H         1 <0>         0.1367
     61 H28        -8.4498    0.4385   -3.8807 H         1 <0>         0.1360
     62 H29        -5.3719   -0.4275   -3.7946 H         1 <0>         0.0844
     63 H30        -6.2082    0.9948   -3.1267 H         1 <0>         0.0700
     64 H31        -5.3065   -0.0959   -2.0470 H         1 <0>         0.0838
     65 H32        -9.8365   -1.3308   -5.7363 H         1 <0>         0.1301
     66 H33       -11.1813   -1.8392   -4.6869 H         1 <0>         0.1384
     67 H34       -11.2387    0.6292   -3.7746 H         1 <0>         0.1330
     68 H35       -10.2373    0.6861   -6.6391 H         1 <0>         0.1115
     69 H36       -11.0151    2.0786   -5.6617 H         1 <0>         0.1228
     70 H37       -10.7398   -3.4682   -2.5732 H         1 <0>         0.0809
     71 H38       -10.9604   -3.5101   -4.3390 H         1 <0>         0.0860
     72 H39        -9.9925   -4.7677   -3.5330 H         1 <0>         0.1076
     73 H40        -9.8052   -1.2080   -2.8046 H         1 <0>         0.4183
@<TRIPOS>BOND
     1    1    2 1
     2    1   37 1
     3    1   38 1
     4    1   39 1
     5    2    3 1
     6    2   40 1
     7    2   41 1
     8    3    4 1
     9    3    6 am
    10    4    5 1
    11    4   42 1
    12    4   43 1
    13    5   44 1
    14    5   45 1
    15    5   46 1
    16    6    7 2
    17    6    8 1
    18    8   13 ar
    19    8    9 ar
    20    9   10 ar
    21    9   47 1
    22   10   11 ar
    23   10   48 1
    24   11   12 ar
    25   11   14 1
    26   12   13 ar
    27   12   49 1
    28   13   50 1
    29   14   15 1
    30   14   16 1
    31   14   24 1
    32   16   21 ar
    33   16   17 ar
    34   17   18 ar
    35   17   51 1
    36   18   19 ar
    37   18   52 1
    38   19   20 ar
    39   19   53 1
    40   20   21 ar
    41   20   22 1
    42   21   54 1
    43   22   23 1
    44   23   55 1
    45   23   56 1
    46   23   57 1
    47   24   30 1
    48   24   25 1
    49   25   26 1
    50   25   58 1
    51   25   59 1
    52   26   27 1
    53   26   28 1
    54   26   36 1
    55   28   29 1
    56   28   33 1
    57   28   73 1
    58   29   30 1
    59   29   60 1
    60   29   61 1
    61   30   31 1
    62   30   32 1
    63   32   62 1
    64   32   63 1
    65   32   64 1
    66   33   34 1
    67   33   65 1
    68   33   66 1
    69   34   35 2
    70   34   67 1
    71   35   68 1
    72   35   69 1
    73   36   70 1
    74   36   71 1
    75   36   72 1
@<TRIPOS>MOLECULE
ZINC22066510
   73    75     0     0     0
SMALL
USER_CHARGES

@<TRIPOS>ATOM
      1 C1          2.0818   -4.4766    3.2676 C.3       1 <0>        -0.1689
      2 C2          1.7388   -3.0977    2.7003 C.3       1 <0>         0.1074
      3 N1          2.1743   -3.0222    1.3035 N.am      1 <0>        -0.6022
      4 C3          1.3002   -3.5147    0.2360 C.3       1 <0>         0.0926
      5 C4          0.2008   -2.4865   -0.0380 C.3       1 <0>        -0.1804
      6 C5          3.3792   -2.4997    1.0006 C.2       1 <0>         0.5507
      7 O1          4.1293   -2.1464    1.8895 O.2       1 <0>        -0.5215
      8 C6          3.7885   -2.3561   -0.4128 C.ar      1 <0>        -0.0969
      9 C7          2.8877   -1.8598   -1.3564 C.ar      1 <0>        -0.0885
     10 C8          3.2762   -1.7279   -2.6736 C.ar      1 <0>        -0.0986
     11 C9          4.5553   -2.0868   -3.0600 C.ar      1 <0>        -0.0985
     12 C10         5.4529   -2.5799   -2.1298 C.ar      1 <0>        -0.1217
     13 C11         5.0792   -2.7110   -0.8082 C.ar      1 <0>        -0.0542
     14 C12         4.9725   -1.9405   -4.5007 C.3       1 <0>         0.1312
     15 H1          4.2422   -1.3285   -5.0301 H         1 <0>         0.1530
     16 C13         5.0470   -3.3018   -5.1429 C.ar      1 <0>        -0.0894
     17 C14         6.1536   -4.1045   -4.9342 C.ar      1 <0>        -0.1656
     18 C15         6.2249   -5.3537   -5.5218 C.ar      1 <0>        -0.0582
     19 C16         5.1905   -5.8032   -6.3198 C.ar      1 <0>        -0.1869
     20 C17         4.0794   -5.0000   -6.5308 C.ar      1 <0>         0.1493
     21 C18         4.0075   -3.7489   -5.9349 C.ar      1 <0>        -0.1219
     22 O2          3.0606   -5.4398   -7.3152 O.3       1 <0>        -0.3093
     23 C19         3.2001   -6.7401   -7.8913 C.3       1 <0>         0.0219
     24 N2          6.2908   -1.2956   -4.5657 N.4       1 <0>        -0.3815
     25 C20         6.7880   -1.3363   -5.9472 C.3       1 <0>        -0.0063
     26 C21         8.1695   -0.6815   -6.0119 C.3       1 <0>         0.0612
     27 H2          8.8619   -1.2291   -5.3726 H         1 <0>         0.0642
     28 N3          8.0710    0.7101   -5.5492 N.3       1 <0>        -0.5312
     29 C22         7.5510    0.7680   -4.1758 C.3       1 <0>         0.0332
     30 C23         6.1745    0.1011   -4.1263 C.3       1 <0>         0.0365
     31 H3          5.4890    0.6335   -4.7856 H         1 <0>         0.1458
     32 C24         5.6392    0.1421   -2.6935 C.3       1 <0>        -0.1984
     33 C25         9.3686    1.3914   -5.6500 C.3       1 <0>         0.0780
     34 C26         9.1817    2.8666   -5.4050 C.2       1 <0>        -0.1649
     35 C27         9.8791    3.4695   -4.4743 C.2       1 <0>        -0.1715
     36 C28         8.6788   -0.7055   -7.4544 C.3       1 <0>        -0.1519
     37 H4          3.1591   -4.6339    3.2139 H         1 <0>         0.0588
     38 H5          1.7578   -4.5328    4.3068 H         1 <0>         0.0724
     39 H6          1.5730   -5.2455    2.6863 H         1 <0>         0.0568
     40 H7          0.6616   -2.9404    2.7540 H         1 <0>         0.0820
     41 H8          2.2477   -2.3288    3.2816 H         1 <0>         0.0896
     42 H9          1.8857   -3.6709   -0.6700 H         1 <0>         0.0853
     43 H10         0.8475   -4.4576    0.5431 H         1 <0>         0.0843
     44 H11        -0.3007   -2.7316   -0.9742 H         1 <0>         0.0751
     45 H12        -0.5230   -2.5026    0.7769 H         1 <0>         0.0685
     46 H13         0.6428   -1.4929   -0.1118 H         1 <0>         0.0633
     47 H14         1.8888   -1.5799   -1.0561 H         1 <0>         0.1541
     48 H15         2.5802   -1.3439   -3.4047 H         1 <0>         0.1427
     49 H16         6.4498   -2.8586   -2.4380 H         1 <0>         0.1243
     50 H17         5.7823   -3.0914   -0.0821 H         1 <0>         0.1428
     51 H18         6.9635   -3.7546   -4.3113 H         1 <0>         0.1167
     52 H19         7.0902   -5.9788   -5.3573 H         1 <0>         0.1385
     53 H20         5.2470   -6.7790   -6.7793 H         1 <0>         0.1409
     54 H21         3.1414   -3.1236   -6.0937 H         1 <0>         0.1422
     55 H22         4.0878   -6.7641   -8.5234 H         1 <0>         0.0622
     56 H23         3.2992   -7.4804   -7.0975 H         1 <0>         0.0621
     57 H24         2.3198   -6.9675   -8.4925 H         1 <0>         0.1108
     58 H25         6.8614   -2.3728   -6.2765 H         1 <0>         0.1408
     59 H26         6.0993   -0.7966   -6.5972 H         1 <0>         0.1402
     60 H27         8.2331    0.2441   -3.5062 H         1 <0>         0.0587
     61 H28         7.4623    1.8086   -3.8640 H         1 <0>         0.1262
     62 H29         6.1642   -0.5969   -2.0883 H         1 <0>         0.0840
     63 H30         5.7995    1.1354   -2.2741 H         1 <0>         0.1007
     64 H31         4.5727   -0.0829   -2.6975 H         1 <0>         0.0994
     65 H32        10.0521    0.9832   -4.9055 H         1 <0>         0.0490
     66 H33         9.7830    1.2382   -6.6464 H         1 <0>         0.1013
     67 H34         8.4728    3.4267   -5.9967 H         1 <0>         0.1193
     68 H35         9.7451    4.5267   -4.2988 H         1 <0>         0.1067
     69 H36        10.5880    2.9094   -3.8826 H         1 <0>         0.0969
     70 H37         7.9867   -0.1570   -8.0933 H         1 <0>         0.0789
     71 H38         9.6629   -0.2390   -7.5001 H         1 <0>         0.0796
     72 H39         8.7498   -1.7377   -7.7975 H         1 <0>         0.0752
     73 H40         6.9346   -1.7852   -3.9624 H         1 <0>         0.4129
@<TRIPOS>BOND
     1    1    2 1
     2    1   37 1
     3    1   38 1
     4    1   39 1
     5    2    3 1
     6    2   40 1
     7    2   41 1
     8    3    4 1
     9    3    6 am
    10    4    5 1
    11    4   42 1
    12    4   43 1
    13    5   44 1
    14    5   45 1
    15    5   46 1
    16    6    7 2
    17    6    8 1
    18    8   13 ar
    19    8    9 ar
    20    9   10 ar
    21    9   47 1
    22   10   11 ar
    23   10   48 1
    24   11   12 ar
    25   11   14 1
    26   12   13 ar
    27   12   49 1
    28   13   50 1
    29   14   15 1
    30   14   16 1
    31   14   24 1
    32   16   21 ar
    33   16   17 ar
    34   17   18 ar
    35   17   51 1
    36   18   19 ar
    37   18   52 1
    38   19   20 ar
    39   19   53 1
    40   20   21 ar
    41   20   22 1
    42   21   54 1
    43   22   23 1
    44   23   55 1
    45   23   56 1
    46   23   57 1
    47   24   30 1
    48   24   25 1
    49   24   73 1
    50   25   26 1
    51   25   58 1
    52   25   59 1
    53   26   27 1
    54   26   28 1
    55   26   36 1
    56   28   29 1
    57   28   33 1
    58   29   30 1
    59   29   60 1
    60   29   61 1
    61   30   31 1
    62   30   32 1
    63   32   62 1
    64   32   63 1
    65   32   64 1
    66   33   34 1
    67   33   65 1
    68   33   66 1
    69   34   35 2
    70   34   67 1
    71   35   68 1
    72   35   69 1
    73   36   70 1
    74   36   71 1
    75   36   72 1
@<TRIPOS>MOLECULE
ZINC22066510
   72    74     0     0     0
SMALL
USER_CHARGES

@<TRIPOS>ATOM
      1 C1          2.1295   -1.3205    3.8951 C.3       1 <0>        -0.1676
      2 C2          1.6862   -0.2597    2.8856 C.3       1 <0>         0.1092
      3 N1          1.9679   -0.7304    1.5272 N.am      1 <0>        -0.6081
      4 C3          0.9979   -1.5784    0.8299 C.3       1 <0>         0.0967
      5 C4         -0.1181   -0.7066    0.2506 C.3       1 <0>        -0.1783
      6 C5          3.1194   -0.3832    0.9190 C.2       1 <0>         0.5598
      7 O1          3.9442    0.2827    1.5138 O.2       1 <0>        -0.5325
      8 C6          3.3794   -0.8123   -0.4717 C.ar      1 <0>        -0.1298
      9 C7          2.3801   -0.6969   -1.4393 C.ar      1 <0>        -0.1006
     10 C8          2.6294   -1.0987   -2.7353 C.ar      1 <0>        -0.1242
     11 C9          3.8665   -1.6156   -3.0767 C.ar      1 <0>        -0.0371
     12 C10         4.8613   -1.7331   -2.1223 C.ar      1 <0>        -0.0925
     13 C11         4.6271   -1.3292   -0.8241 C.ar      1 <0>        -0.0713
     14 C12         4.1316   -2.0530   -4.4943 C.3       1 <0>         0.1647
     15 H1          3.4074   -1.5841   -5.1606 H         1 <0>         0.0639
     16 C13         4.0051   -3.5516   -4.5896 C.ar      1 <0>        -0.0412
     17 C14         4.9574   -4.3641   -4.0020 C.ar      1 <0>        -0.1310
     18 C15         4.8442   -5.7392   -4.0876 C.ar      1 <0>        -0.0815
     19 C16         3.7789   -6.3052   -4.7612 C.ar      1 <0>        -0.2053
     20 C17         2.8223   -5.4925   -5.3515 C.ar      1 <0>         0.1287
     21 C18         2.9349   -4.1126   -5.2589 C.ar      1 <0>        -0.1432
     22 O2          1.7735   -6.0468   -6.0145 O.3       1 <0>        -0.3178
     23 C19         1.7188   -7.4739   -6.0646 C.3       1 <0>         0.0273
     24 N2          5.4891   -1.6503   -4.8853 N.3       1 <0>        -0.5241
     25 C20         5.9518   -2.4191   -6.0491 C.3       1 <0>         0.0580
     26 C21         7.3951   -2.0276   -6.3748 C.3       1 <0>         0.0852
     27 H2          8.0376   -2.2704   -5.5284 H         1 <0>         0.0496
     28 N3          7.4600   -0.5838   -6.6413 N.3       1 <0>        -0.5331
     29 C22         6.9973    0.1850   -5.4774 C.3       1 <0>         0.0660
     30 C23         5.5540   -0.2066   -5.1518 C.3       1 <0>         0.0883
     31 H3          4.9116    0.0362   -5.9982 H         1 <0>         0.0511
     32 C24         5.0830    0.5623   -3.9158 C.3       1 <0>        -0.1581
     33 C25         8.8176   -0.1812   -7.0323 C.3       1 <0>         0.0755
     34 C26         8.7957    1.2405   -7.5316 C.2       1 <0>        -0.1451
     35 C27         9.5853    2.1362   -6.9927 C.2       1 <0>        -0.1908
     36 C28         7.8663   -2.7969   -7.6105 C.3       1 <0>        -0.1491
     37 H4          3.1992   -1.5000    3.7873 H         1 <0>         0.0589
     38 H5          1.9199   -0.9703    4.9058 H         1 <0>         0.0674
     39 H6          1.5853   -2.2468    3.7114 H         1 <0>         0.0553
     40 H7          0.6165   -0.0801    2.9934 H         1 <0>         0.0766
     41 H8          2.2304    0.6667    3.0694 H         1 <0>         0.0863
     42 H9          1.4975   -2.1133    0.0222 H         1 <0>         0.0897
     43 H10         0.5717   -2.2955    1.5315 H         1 <0>         0.0782
     44 H11        -0.6418   -1.2583   -0.5301 H         1 <0>         0.0719
     45 H12        -0.8198   -0.4417    1.0415 H         1 <0>         0.0618
     46 H13         0.3124    0.2011   -0.1723 H         1 <0>         0.0654
     47 H14         1.4137   -0.2943   -1.1739 H         1 <0>         0.1393
     48 H15         1.8570   -1.0100   -3.4850 H         1 <0>         0.1257
     49 H16         5.8248   -2.1377   -2.3952 H         1 <0>         0.1358
     50 H17         5.4060   -1.4169   -0.0812 H         1 <0>         0.1275
     51 H18         5.7913   -3.9236   -3.4757 H         1 <0>         0.1302
     52 H19         5.5893   -6.3716   -3.6279 H         1 <0>         0.1256
     53 H20         3.6913   -7.3796   -4.8285 H         1 <0>         0.1272
     54 H21         2.1889   -3.4777   -5.7135 H         1 <0>         0.1283
     55 H22         1.6675   -7.8713   -5.0509 H         1 <0>         0.0558
     56 H23         0.8348   -7.7843   -6.6217 H         1 <0>         0.1010
     57 H24         2.6123   -7.8546   -6.5593 H         1 <0>         0.0559
     58 H25         5.9063   -3.4844   -5.8227 H         1 <0>         0.0911
     59 H26         5.3139   -2.2015   -6.9057 H         1 <0>         0.0435
     60 H27         7.6353   -0.0327   -4.6209 H         1 <0>         0.0424
     61 H28         7.0429    1.2502   -5.7038 H         1 <0>         0.0816
     62 H29         5.6128    0.1962   -3.0364 H         1 <0>         0.0715
     63 H30         5.2892    1.6244   -4.0482 H         1 <0>         0.0575
     64 H31         4.0114    0.4141   -3.7822 H         1 <0>         0.0661
     65 H32         9.4805   -0.2533   -6.1700 H         1 <0>         0.0380
     66 H33         9.1779   -0.8386   -7.8235 H         1 <0>         0.0892
     67 H34         8.1290    1.5210   -8.3336 H         1 <0>         0.1132
     68 H35        10.2520    1.8558   -6.1907 H         1 <0>         0.0940
     69 H36         9.5696    3.1551   -7.3506 H         1 <0>         0.0994
     70 H37         7.2242   -2.5533   -8.4569 H         1 <0>         0.0644
     71 H38         8.8942   -2.5178   -7.8421 H         1 <0>         0.0605
     72 H39         7.8163   -3.8676   -7.4128 H         1 <0>         0.0621
@<TRIPOS>BOND
     1    1    2 1
     2    1   37 1
     3    1   38 1
     4    1   39 1
     5    2    3 1
     6    2   40 1
     7    2   41 1
     8    3    4 1
     9    3    6 am
    10    4    5 1
    11    4   42 1
    12    4   43 1
    13    5   44 1
    14    5   45 1
    15    5   46 1
    16    6    7 2
    17    6    8 1
    18    8   13 ar
    19    8    9 ar
    20    9   10 ar
    21    9   47 1
    22   10   11 ar
    23   10   48 1
    24   11   12 ar
    25   11   14 1
    26   12   13 ar
    27   12   49 1
    28   13   50 1
    29   14   15 1
    30   14   16 1
    31   14   24 1
    32   16   21 ar
    33   16   17 ar
    34   17   18 ar
    35   17   51 1
    36   18   19 ar
    37   18   52 1
    38   19   20 ar
    39   19   53 1
    40   20   21 ar
    41   20   22 1
    42   21   54 1
    43   22   23 1
    44   23   55 1
    45   23   56 1
    46   23   57 1
    47   24   30 1
    48   24   25 1
    49   25   26 1
    50   25   58 1
    51   25   59 1
    52   26   27 1
    53   26   28 1
    54   26   36 1
    55   28   29 1
    56   28   33 1
    57   29   30 1
    58   29   60 1
    59   29   61 1
    60   30   31 1
    61   30   32 1
    62   32   62 1
    63   32   63 1
    64   32   64 1
    65   33   34 1
    66   33   65 1
    67   33   66 1
    68   34   35 2
    69   34   67 1
    70   35   68 1
    71   35   69 1
    72   36   70 1
    73   36   71 1
    74   36   72 1
@<TRIPOS>MOLECULE
ZINC02509756
   42    43     0     0     0
SMALL
USER_CHARGES

@<TRIPOS>ATOM
      1 C1         -0.0178    1.4648    0.0101 C.3       1 <0>        -0.0567
      2 N1          0.0021   -0.0041    0.0020 N.4       1 <0>        -0.3878
      3 C2          0.7126   -0.4907    1.1921 C.3       1 <0>        -0.0474
      4 C3         -1.3761   -0.5125    0.0124 C.3       1 <0>        -0.0103
      5 C4         -2.0780   -0.1101   -1.2861 C.3       1 <0>        -0.0956
      6 H1         -2.0144    0.9705   -1.4137 H         1 <0>         0.1055
      7 C5         -1.3995   -0.8041   -2.4688 C.3       1 <0>        -0.1252
      8 C6         -2.1014   -0.4017   -3.7674 C.3       1 <0>        -0.1201
      9 C7         -3.5711   -0.8221   -3.7042 C.3       1 <0>        -0.1216
     10 C8         -4.2497   -0.1281   -2.5214 C.3       1 <0>        -0.1416
     11 C9         -3.5477   -0.5306   -1.2229 C.3       1 <0>         0.1939
     12 C10        -4.2161    0.1530   -0.0579 C.ar      1 <0>        -0.1071
     13 C11        -3.7786    1.3977    0.3564 C.ar      1 <0>        -0.1410
     14 C12        -4.3896    2.0274    1.4247 C.ar      1 <0>        -0.0946
     15 C13        -5.4390    1.4140    2.0816 C.ar      1 <0>        -0.1394
     16 C14        -5.8796    0.1655    1.6680 C.ar      1 <0>         0.1244
     17 C15        -5.2687   -0.4618    0.5916 C.ar      1 <0>        -0.1358
     18 O1         -6.9117   -0.4400    2.3124 O.3       1 <0>        -0.4972
     19 O2         -3.6311   -1.9473   -1.0556 O.3       1 <0>        -0.5505
     20 H2          1.0047    1.8421    0.0024 H         1 <0>         0.1271
     21 H3         -0.5450    1.8259   -0.8730 H         1 <0>         0.1221
     22 H4         -0.5280    1.8163    0.9069 H         1 <0>         0.1238
     23 H5          0.2024   -0.1392    2.0889 H         1 <0>         0.1220
     24 H6          0.7273   -1.5806    1.1861 H         1 <0>         0.1241
     25 H7          1.7352   -0.1134    1.1844 H         1 <0>         0.1253
     26 H8         -1.3618   -1.5992    0.0961 H         1 <0>         0.1406
     27 H9         -1.9129   -0.0898    0.8617 H         1 <0>         0.1329
     28 H10        -0.3524   -0.5046   -2.5139 H         1 <0>         0.0578
     29 H11        -1.4631   -1.8847   -2.3413 H         1 <0>         0.0907
     30 H12        -2.0378    0.6790   -3.8950 H         1 <0>         0.0660
     31 H13        -1.6180   -0.8961   -4.6100 H         1 <0>         0.0763
     32 H14        -4.0712   -0.5354   -4.6293 H         1 <0>         0.0734
     33 H15        -3.6347   -1.9028   -3.5766 H         1 <0>         0.0754
     34 H16        -4.1861    0.9525   -2.6490 H         1 <0>         0.0781
     35 H17        -5.2967   -0.4277   -2.4764 H         1 <0>         0.0777
     36 H18        -2.9581    1.8786   -0.1553 H         1 <0>         0.1212
     37 H19        -4.0462    2.9995    1.7463 H         1 <0>         0.1326
     38 H20        -5.9155    1.9060    2.9166 H         1 <0>         0.1356
     39 H21        -5.6131   -1.4318    0.2646 H         1 <0>         0.1311
     40 H22        -7.7815   -0.2304    1.9457 H         1 <0>         0.4003
     41 H23        -4.5359   -2.2851   -1.0074 H         1 <0>         0.3898
     42 H24         0.4743   -0.3295   -0.8281 H         1 <0>         0.4241
@<TRIPOS>BOND
     1    1    2 1
     2    1   20 1
     3    1   21 1
     4    1   22 1
     5    2    3 1
     6    2    4 1
     7    2   42 1
     8    3   23 1
     9    3   24 1
    10    3   25 1
    11    4    5 1
    12    4   26 1
    13    4   27 1
    14    5    6 1
    15    5   11 1
    16    5    7 1
    17    7    8 1
    18    7   28 1
    19    7   29 1
    20    8    9 1
    21    8   30 1
    22    8   31 1
    23    9   10 1
    24    9   32 1
    25    9   33 1
    26   10   11 1
    27   10   34 1
    28   10   35 1
    29   11   12 1
    30   11   19 1
    31   12   17 ar
    32   12   13 ar
    33   13   14 ar
    34   13   36 1
    35   14   15 ar
    36   14   37 1
    37   15   16 ar
    38   15   38 1
    39   16   17 ar
    40   16   18 1
    41   17   39 1
    42   18   40 1
    43   19   41 1
@<TRIPOS>MOLECULE
ZINC06092289
   51    56     0     0     0
SMALL
USER_CHARGES

@<TRIPOS>ATOM
      1 C1         -0.2585    1.2511    0.4629 C.ar      1 <0>        -0.1146
      2 C2          0.8922    2.0166    0.5631 C.ar      1 <0>        -0.0973
      3 C3          2.1752    1.4744    0.5394 C.ar      1 <0>         0.1078
      4 C4          2.2764    0.0872    0.3866 C.ar      1 <0>         0.1041
      5 C5          1.1018   -0.6366    0.2365 C.ar      1 <0>        -0.1870
      6 C6         -0.1710   -0.1214    0.3127 C.ar      1 <0>        -0.0605
      7 C7         -1.3378   -1.0549    0.2905 C.3       1 <0>        -0.0920
      8 C8         -0.9433   -2.5076    0.0868 C.3       1 <0>         0.0158
      9 H1         -1.7119   -3.1291    0.5462 H         1 <0>         0.1432
     10 C9          0.3995   -2.8953    0.7028 C.3       1 <0>         0.1458
     11 C10         1.4837   -2.0864    0.0557 C.3       1 <0>        -0.0288
     12 C11         1.5189   -2.4095   -1.4393 C.3       1 <0>        -0.1234
     13 C12         0.1442   -2.0700   -2.0294 C.3       1 <0>        -0.0095
     14 N1         -0.9052   -2.8314   -1.3456 N.4       1 <0>        -0.3738
     15 C13        -2.2056   -2.5084   -1.9478 C.3       1 <0>         0.0181
     16 C14        -2.2317   -2.9971   -3.3975 C.3       1 <0>        -0.2107
     17 C15        -2.3688   -1.9414   -4.4964 C.3       1 <0>        -0.1677
     18 C16        -3.5476   -2.8590   -4.1658 C.3       1 <0>        -0.1476
     19 C17         2.8672   -2.0975    0.6815 C.3       1 <0>         0.1175
     20 H2          3.5015   -2.8537    0.2189 H         1 <0>         0.1411
     21 O1          3.3398   -0.7459    0.3730 O.3       1 <0>        -0.2764
     22 C18         2.8645   -2.2380    2.1909 C.3       1 <0>         0.0936
     23 H3          2.7929   -1.2415    2.6267 H         1 <0>         0.0599
     24 C19         1.7536   -3.0865    2.7640 C.3       1 <0>        -0.1480
     25 C20         0.4182   -2.6261    2.2040 C.3       1 <0>        -0.1400
     26 O2          4.1117   -2.8101    2.5897 O.3       1 <0>        -0.5586
     27 O3          0.6447   -4.2834    0.4679 O.3       1 <0>        -0.5423
     28 O4          3.2800    2.2584    0.6588 O.3       1 <0>        -0.4788
     29 H4         -1.2269    1.7270    0.5068 H         1 <0>         0.1398
     30 H5          0.7893    3.0869    0.6642 H         1 <0>         0.1438
     31 H6         -1.8735   -0.9675    1.2357 H         1 <0>         0.1264
     32 H7         -2.0077   -0.7581   -0.5166 H         1 <0>         0.1071
     33 H8          2.2877   -1.8107   -1.9277 H         1 <0>         0.1174
     34 H9          1.7299   -3.4693   -1.5825 H         1 <0>         0.1086
     35 H10        -0.0468   -1.0037   -1.9087 H         1 <0>         0.1310
     36 H11         0.1361   -2.3175   -3.0909 H         1 <0>         0.1378
     37 H12        -2.9990   -2.9996   -1.3845 H         1 <0>         0.1348
     38 H13        -2.3584   -1.4294   -1.9253 H         1 <0>         0.1322
     39 H14        -1.6134   -3.8689   -3.6109 H         1 <0>         0.1255
     40 H15        -2.4403   -0.8988   -4.1867 H         1 <0>         0.1058
     41 H16        -1.8404   -2.1186   -5.4332 H         1 <0>         0.1108
     42 H17        -3.7947   -3.6399   -4.8851 H         1 <0>         0.1128
     43 H18        -4.3946   -2.4201   -3.6386 H         1 <0>         0.1076
     44 H19         1.9359   -4.1306    2.5096 H         1 <0>         0.0942
     45 H20         1.7490   -2.9814    3.8489 H         1 <0>         0.0870
     46 H21         0.2532   -1.5649    2.3905 H         1 <0>         0.0939
     47 H22        -0.3592   -3.2126    2.6936 H         1 <0>         0.0869
     48 H23         4.1989   -2.9370    3.5444 H         1 <0>         0.3893
     49 H24        -0.0243   -4.8704    0.8461 H         1 <0>         0.3917
     50 H25         3.5742    2.3869    1.5710 H         1 <0>         0.3988
     51 H26        -0.7251   -3.8179   -1.4575 H         1 <0>         0.4271
@<TRIPOS>BOND
     1    1    6 ar
     2    1    2 ar
     3    1   29 1
     4    2    3 ar
     5    2   30 1
     6    3    4 ar
     7    3   28 1
     8    4   21 1
     9    4    5 ar
    10    5   11 1
    11    5    6 ar
    12    6    7 1
    13    7    8 1
    14    7   31 1
    15    7   32 1
    16    8    9 1
    17    8   14 1
    18    8   10 1
    19   10   25 1
    20   10   11 1
    21   10   27 1
    22   11   12 1
    23   11   19 1
    24   12   13 1
    25   12   33 1
    26   12   34 1
    27   13   14 1
    28   13   35 1
    29   13   36 1
    30   14   15 1
    31   14   51 1
    32   15   16 1
    33   15   37 1
    34   15   38 1
    35   16   18 1
    36   16   17 1
    37   16   39 1
    38   17   18 1
    39   17   40 1
    40   17   41 1
    41   18   42 1
    42   18   43 1
    43   19   20 1
    44   19   21 1
    45   19   22 1
    46   22   23 1
    47   22   24 1
    48   22   26 1
    49   24   25 1
    50   24   44 1
    51   24   45 1
    52   25   46 1
    53   25   47 1
    54   26   48 1
    55   27   49 1
    56   28   50 1
@<TRIPOS>MOLECULE
ZINC00602902
   57    60     0     0     0
SMALL
USER_CHARGES

@<TRIPOS>ATOM
      1 C1         -0.0095    1.5771   -0.0196 C.3       1 <0>        -0.1481
      2 C2          0.0095    0.0473   -0.0152 C.3       1 <0>        -0.0832
      3 C3          0.7133   -0.4499   -1.2515 C.ar      1 <0>        -0.1153
      4 C4         -0.0072   -0.6870   -2.4076 C.ar      1 <0>        -0.0776
      5 C5          0.6355   -1.1432   -3.5421 C.ar      1 <0>        -0.1458
      6 C6          2.0052   -1.3631   -3.5210 C.ar      1 <0>         0.1240
      7 C7          2.7259   -1.1241   -2.3599 C.ar      1 <0>        -0.2040
      8 C8          2.0793   -0.6629   -1.2295 C.ar      1 <0>        -0.0793
      9 O1          2.6397   -1.8123   -4.6356 O.3       1 <0>        -0.3191
     10 C9          4.0509   -2.0164   -4.5410 C.3       1 <0>         0.1055
     11 C10         4.5765   -2.5118   -5.8636 C.ar      1 <0>        -0.0209
     12 C11         3.7152   -2.6917   -6.9264 C.ar      1 <0>        -0.1047
     13 C12         4.1961   -3.1469   -8.1410 C.ar      1 <0>        -0.0751
     14 C13         5.5425   -3.4249   -8.2989 C.ar      1 <0>        -0.1234
     15 C14         6.4143   -3.2494   -7.2446 C.ar      1 <0>        -0.0807
     16 C15         5.9367   -2.7843   -6.0179 C.ar      1 <0>        -0.1483
     17 C16         6.8661   -2.5881   -4.8855 C.2       1 <0>         0.5705
     18 O2          6.4464   -2.1886   -3.8168 O.2       1 <0>        -0.5105
     19 N1          8.1790   -2.8522   -5.0377 N.am      1 <0>        -0.6729
     20 C17         9.0733   -2.5758   -3.9979 C.ar      1 <0>         0.1722
     21 C18         8.6686   -2.7491   -2.6700 C.ar      1 <0>        -0.0379
     22 C19         9.5172   -2.4879   -1.6403 C.ar      1 <0>        -0.1225
     23 C20        10.8228   -2.0367   -1.9023 C.ar      1 <0>         0.1587
     24 C21        11.2375   -1.8602   -3.2441 C.ar      1 <0>        -0.1104
     25 C22        10.3481   -2.1403   -4.2900 C.ar      1 <0>        -0.1023
     26 C23        12.5535   -1.4057   -3.5002 C.ar      1 <0>         0.3574
     27 C24        13.3759   -1.1546   -2.4135 C.ar      1 <0>        -0.2639
     28 C25        12.8941   -1.3525   -1.1266 C.ar      1 <0>         0.2627
     29 N2         11.6719   -1.7747   -0.9016 N.ar      1 <0>        -0.5048
     30 C26        13.8004   -1.0755    0.0451 C.3       1 <0>        -0.1500
     31 N3         13.0056   -1.2180   -4.7981 N.pl3     1 <0>        -0.8000
     32 H1          1.0135    1.9532   -0.0314 H         1 <0>         0.0537
     33 H2         -0.5371    1.9313   -0.9052 H         1 <0>         0.0562
     34 H3         -0.5186    1.9368    0.8746 H         1 <0>         0.0591
     35 H4          0.5371   -0.3069    0.8705 H         1 <0>         0.0703
     36 H5         -1.0135   -0.3288   -0.0034 H         1 <0>         0.0728
     37 H6         -1.0734   -0.5156   -2.4235 H         1 <0>         0.1304
     38 H7          0.0722   -1.3289   -4.4446 H         1 <0>         0.1313
     39 H8          3.7922   -1.2945   -2.3409 H         1 <0>         0.1287
     40 H9          2.6406   -0.4725   -0.3267 H         1 <0>         0.1228
     41 H10         4.5378   -1.0751   -4.2861 H         1 <0>         0.0876
     42 H11         4.2601   -2.7549   -3.7672 H         1 <0>         0.0879
     43 H12         2.6632   -2.4770   -6.8097 H         1 <0>         0.1462
     44 H13         3.5176   -3.2864   -8.9697 H         1 <0>         0.1376
     45 H14         5.9114   -3.7803   -9.2497 H         1 <0>         0.1368
     46 H15         7.4648   -3.4670   -7.3690 H         1 <0>         0.1275
     47 H16         8.5038   -3.2338   -5.8682 H         1 <0>         0.4202
     48 H17         7.6673   -3.0950   -2.4597 H         1 <0>         0.1690
     49 H18         9.1882   -2.6268   -0.6210 H         1 <0>         0.1608
     50 H19        10.6577   -2.0122   -5.3167 H         1 <0>         0.1496
     51 H20        14.3868   -0.8069   -2.5669 H         1 <0>         0.1782
     52 H21        13.6884   -0.0361    0.3534 H         1 <0>         0.1182
     53 H22        13.5334   -1.7312    0.8739 H         1 <0>         0.0992
     54 H23        14.8351   -1.2591   -0.2445 H         1 <0>         0.1169
     55 H24        12.4171   -1.3988   -5.5476 H         1 <0>         0.4198
     56 H25        13.9104   -0.9060   -4.9561 H         1 <0>         0.4275
     57 H26        11.3762   -1.8995    0.0138 H         1 <0>         0.4413
@<TRIPOS>BOND
     1    1    2 1
     2    1   32 1
     3    1   33 1
     4    1   34 1
     5    2    3 1
     6    2   35 1
     7    2   36 1
     8    3    8 ar
     9    3    4 ar
    10    4    5 ar
    11    4   37 1
    12    5    6 ar
    13    5   38 1
    14    6    7 ar
    15    6    9 1
    16    7    8 ar
    17    7   39 1
    18    8   40 1
    19    9   10 1
    20   10   11 1
    21   10   41 1
    22   10   42 1
    23   11   16 ar
    24   11   12 ar
    25   12   13 ar
    26   12   43 1
    27   13   14 ar
    28   13   44 1
    29   14   15 ar
    30   14   45 1
    31   15   16 ar
    32   15   46 1
    33   16   17 1
    34   17   18 2
    35   17   19 am
    36   19   20 1
    37   19   47 1
    38   20   25 ar
    39   20   21 ar
    40   21   22 ar
    41   21   48 1
    42   22   23 ar
    43   22   49 1
    44   23   29 ar
    45   23   24 ar
    46   24   25 ar
    47   24   26 ar
    48   25   50 1
    49   26   27 ar
    50   26   31 1
    51   27   28 ar
    52   27   51 1
    53   28   29 ar
    54   28   30 1
    55   29   57 1
    56   30   52 1
    57   30   53 1
    58   30   54 1
    59   31   55 1
    60   31   56 1
@<TRIPOS>MOLECULE
ZINC00001773
   49    54     0     0     0
SMALL
USER_CHARGES

@<TRIPOS>ATOM
      1 C1         -0.2443    1.2570    0.4660 C.ar      1 <0>        -0.1112
      2 C2          0.9083    2.0200    0.5623 C.ar      1 <0>        -0.0962
      3 C3          2.1900    1.4753    0.5348 C.ar      1 <0>         0.1149
      4 C4          2.2879    0.0876    0.3806 C.ar      1 <0>         0.0997
      5 C5          1.1121   -0.6326    0.2304 C.ar      1 <0>        -0.1886
      6 C6         -0.1602   -0.1156    0.3155 C.ar      1 <0>        -0.0596
      7 C7         -1.3282   -1.0478    0.3098 C.3       1 <0>        -0.0925
      8 C8         -0.9396   -2.5064    0.1383 C.3       1 <0>         0.0145
      9 H1         -1.6997   -3.1130    0.6306 H         1 <0>         0.1456
     10 C9          0.4167   -2.8747    0.7456 C.3       1 <0>         0.1448
     11 C10         1.4829   -2.0836    0.0450 C.3       1 <0>        -0.0304
     12 C11         1.4804   -2.4286   -1.4426 C.3       1 <0>        -0.1241
     13 C12         0.0910   -2.1126   -2.0094 C.3       1 <0>        -0.0096
     14 N1         -0.9309   -2.8716   -1.2830 N.4       1 <0>        -0.3739
     15 C13        -2.2494   -2.5851   -1.8638 C.3       1 <0>         0.0182
     16 C14        -2.3011   -3.1153   -3.2981 C.3       1 <0>        -0.2108
     17 C15        -2.4792   -2.0935   -4.4229 C.3       1 <0>        -0.1679
     18 C16        -3.6360   -3.0186   -4.0393 C.3       1 <0>        -0.1476
     19 C17         2.8868   -2.1036    0.6341 C.3       1 <0>         0.0644
     20 H2          3.5148   -2.8457    0.1412 H         1 <0>         0.1600
     21 O1          3.3506   -0.7456    0.3657 O.3       1 <0>        -0.2592
     22 C18         2.8706   -2.3034    2.1213 C.2       1 <0>         0.3361
     23 O2          3.8019   -1.8874    2.7678 O.2       1 <0>        -0.4120
     24 C19         1.7528   -2.9946    2.8421 C.3       1 <0>        -0.1575
     25 C20         0.4362   -2.5258    2.2328 C.3       1 <0>        -0.1426
     26 O3          0.6517   -4.2744    0.5791 O.3       1 <0>        -0.5414
     27 O4          3.2968    2.2569    0.6522 O.3       1 <0>        -0.4785
     28 H3         -1.2116    1.7350    0.5131 H         1 <0>         0.1418
     29 H4          0.8079    3.0906    0.6634 H         1 <0>         0.1458
     30 H5         -1.8664   -0.9385    1.2514 H         1 <0>         0.1279
     31 H6         -1.9954   -0.7663   -0.5049 H         1 <0>         0.1079
     32 H7          2.2322   -1.8319   -1.9592 H         1 <0>         0.1192
     33 H8          1.6983   -3.4885   -1.5741 H         1 <0>         0.1097
     34 H9         -0.1082   -1.0460   -1.9055 H         1 <0>         0.1319
     35 H10         0.0606   -2.3836   -3.0648 H         1 <0>         0.1393
     36 H11        -3.0221   -3.0716   -1.2686 H         1 <0>         0.1355
     37 H12        -2.4183   -1.5083   -1.8682 H         1 <0>         0.1323
     38 H13        -1.6744   -3.9837   -3.5011 H         1 <0>         0.1257
     39 H14        -2.5597   -1.0437   -4.1411 H         1 <0>         0.1059
     40 H15        -1.9696   -2.2896   -5.3663 H         1 <0>         0.1108
     41 H16        -3.8874   -3.8232   -4.7304 H         1 <0>         0.1129
     42 H17        -4.4775   -2.5773   -3.5052 H         1 <0>         0.1078
     43 H18         1.8718   -4.0736    2.7439 H         1 <0>         0.1208
     44 H19         1.7811   -2.7239    3.8976 H         1 <0>         0.1111
     45 H20         0.2965   -1.4521    2.3583 H         1 <0>         0.0987
     46 H21        -0.3620   -3.0631    2.7449 H         1 <0>         0.0955
     47 H22        -0.0114   -4.8375    1.0014 H         1 <0>         0.3955
     48 H23         3.5936    2.3840    1.5637 H         1 <0>         0.4013
     49 H24        -0.7373   -3.8580   -1.3711 H         1 <0>         0.4280
@<TRIPOS>BOND
     1    1    6 ar
     2    1    2 ar
     3    1   28 1
     4    2    3 ar
     5    2   29 1
     6    3    4 ar
     7    3   27 1
     8    4   21 1
     9    4    5 ar
    10    5   11 1
    11    5    6 ar
    12    6    7 1
    13    7    8 1
    14    7   30 1
    15    7   31 1
    16    8    9 1
    17    8   14 1
    18    8   10 1
    19   10   25 1
    20   10   11 1
    21   10   26 1
    22   11   12 1
    23   11   19 1
    24   12   13 1
    25   12   32 1
    26   12   33 1
    27   13   14 1
    28   13   34 1
    29   13   35 1
    30   14   15 1
    31   14   49 1
    32   15   16 1
    33   15   36 1
    34   15   37 1
    35   16   18 1
    36   16   17 1
    37   16   38 1
    38   17   18 1
    39   17   39 1
    40   17   40 1
    41   18   41 1
    42   18   42 1
    43   19   20 1
    44   19   21 1
    45   19   22 1
    46   22   23 2
    47   22   24 1
    48   24   25 1
    49   24   43 1
    50   24   44 1
    51   25   45 1
    52   25   46 1
    53   26   47 1
    54   27   48 1
@<TRIPOS>MOLECULE
ZINC19796084
   64    68     0     0     0
SMALL
USER_CHARGES

@<TRIPOS>ATOM
      1 C1         -0.2663   -0.3620    5.4641 C.ar      1 <0>        -0.0986
      2 C2          0.6994    0.5149    5.0004 C.ar      1 <0>        -0.1026
      3 C3          1.8638    0.0332    4.4352 C.ar      1 <0>        -0.1044
      4 C4          2.0664   -1.3346    4.3318 C.ar      1 <0>         0.0788
      5 C5          1.0924   -2.2191    4.7995 C.ar      1 <0>         0.0916
      6 C6         -0.0735   -1.7260    5.3654 C.ar      1 <0>        -0.0998
      7 N1          1.5706   -3.5059    4.5639 N.am      1 <0>        -0.6391
      8 H1          1.1107   -4.3313    4.7830 H         1 <0>         0.4399
      9 C7          2.7798   -3.4086    3.9799 C.2       1 <0>         0.6857
     10 O1          3.4724   -4.3503    3.6415 O.2       1 <0>        -0.5583
     11 N2          3.1062   -2.1115    3.8266 N.am      1 <0>        -0.5378
     12 C8          4.3442   -1.6036    3.2301 C.3       1 <0>         0.1610
     13 C9          4.4622   -2.1072    1.7886 C.3       1 <0>        -0.1674
     14 C10         5.7941   -1.6393    1.1981 C.3       1 <0>         0.0018
     15 N3          6.9027   -2.1747    1.9974 N.4       1 <0>        -0.3868
     16 C11         6.8368   -1.6390    3.3624 C.3       1 <0>        -0.0033
     17 C12         5.5451   -2.1068    4.0361 C.3       1 <0>        -0.1667
     18 C13         8.1794   -1.7878    1.3822 C.3       1 <0>        -0.0099
     19 C14         9.3321   -2.4478    2.1415 C.3       1 <0>        -0.1521
     20 C15        10.6618   -2.0449    1.5008 C.3       1 <0>        -0.1087
     21 C16        11.8145   -2.7048    2.2601 C.3       1 <0>         0.0020
     22 C17        11.7312   -4.2008    2.0984 C.ar      1 <0>        -0.0960
     23 C18        11.6406   -4.7550    0.8351 C.ar      1 <0>        -0.0887
     24 C19        11.5647   -6.1268    0.6856 C.ar      1 <0>        -0.1502
     25 C20        11.5793   -6.9462    1.8016 C.ar      1 <0>         0.1040
     26 C21        11.6701   -6.3900    3.0664 C.ar      1 <0>        -0.1491
     27 C22        11.7512   -5.0182    3.2131 C.ar      1 <0>        -0.0845
     28 F1         11.5046   -8.2873    1.6567 F         1 <0>        -0.1345
     29 C23        13.1272   -2.2122    1.7076 C.ar      1 <0>        -0.0972
     30 C24        13.3682   -2.2667    0.3474 C.ar      1 <0>        -0.0865
     31 C25        14.5714   -1.8148   -0.1604 C.ar      1 <0>        -0.1502
     32 C26        15.5358   -1.3073    0.6937 C.ar      1 <0>         0.1057
     33 C27        15.2933   -1.2531    2.0559 C.ar      1 <0>        -0.1489
     34 C28        14.0872   -1.7008    2.5608 C.ar      1 <0>        -0.0812
     35 F2         16.7126   -0.8656    0.1985 F         1 <0>        -0.1344
     36 H2         -1.1724    0.0221    5.9090 H         1 <0>         0.1403
     37 H3          0.5414    1.5802    5.0807 H         1 <0>         0.1389
     38 H4          2.6148    0.7203    4.0743 H         1 <0>         0.1287
     39 H5         -0.8291   -2.4070    5.7282 H         1 <0>         0.1370
     40 H6          4.3316   -0.5137    3.2367 H         1 <0>         0.1148
     41 H7          4.4224   -3.1964    1.7792 H         1 <0>         0.1076
     42 H8          3.6403   -1.7072    1.1949 H         1 <0>         0.1178
     43 H9          5.8813   -1.9960    0.1718 H         1 <0>         0.1377
     44 H10         5.8327   -0.5501    1.2078 H         1 <0>         0.1327
     45 H11         7.6939   -1.9955    3.9338 H         1 <0>         0.1389
     46 H12         6.8532   -0.5498    3.3259 H         1 <0>         0.1330
     47 H13         5.4972   -1.7066    5.0489 H         1 <0>         0.1174
     48 H14         5.5278   -3.1961    4.0734 H         1 <0>         0.1073
     49 H15         8.1953   -2.1141    0.3423 H         1 <0>         0.1326
     50 H16         8.2896   -0.7042    1.4247 H         1 <0>         0.1320
     51 H17         9.3162   -2.1215    3.1814 H         1 <0>         0.0898
     52 H18         9.2220   -3.5314    2.0990 H         1 <0>         0.0914
     53 H19        10.6777   -2.3712    0.4609 H         1 <0>         0.0799
     54 H20        10.7720   -0.9613    1.5433 H         1 <0>         0.0841
     55 H21        11.7465   -2.4493    3.3175 H         1 <0>         0.0944
     56 H22        11.6289   -4.1157   -0.0352 H         1 <0>         0.1319
     57 H23        11.4935   -6.5595   -0.3014 H         1 <0>         0.1380
     58 H24        11.6812   -7.0281    3.9376 H         1 <0>         0.1387
     59 H25        11.8265   -4.5844    4.1993 H         1 <0>         0.1333
     60 H26        12.6160   -2.6630   -0.3186 H         1 <0>         0.1302
     61 H27        14.7596   -1.8579   -1.2230 H         1 <0>         0.1383
     62 H28        16.0449   -0.8577    2.7231 H         1 <0>         0.1395
     63 H29        13.8961   -1.6545    3.6228 H         1 <0>         0.1335
     64 H30         6.8381   -3.1812    2.0286 H         1 <0>         0.4267
@<TRIPOS>BOND
     1    1    6 ar
     2    1    2 ar
     3    1   36 1
     4    2    3 ar
     5    2   37 1
     6    3    4 ar
     7    3   38 1
     8    4   11 1
     9    4    5 ar
    10    5    6 ar
    11    5    7 1
    12    6   39 1
    13    7    8 1
    14    7    9 am
    15    9   10 2
    16    9   11 am
    17   11   12 1
    18   12   17 1
    19   12   13 1
    20   12   40 1
    21   13   14 1
    22   13   41 1
    23   13   42 1
    24   14   15 1
    25   14   43 1
    26   14   44 1
    27   15   16 1
    28   15   18 1
    29   15   64 1
    30   16   17 1
    31   16   45 1
    32   16   46 1
    33   17   47 1
    34   17   48 1
    35   18   19 1
    36   18   49 1
    37   18   50 1
    38   19   20 1
    39   19   51 1
    40   19   52 1
    41   20   21 1
    42   20   53 1
    43   20   54 1
    44   21   22 1
    45   21   29 1
    46   21   55 1
    47   22   27 ar
    48   22   23 ar
    49   23   24 ar
    50   23   56 1
    51   24   25 ar
    52   24   57 1
    53   25   26 ar
    54   25   28 1
    55   26   27 ar
    56   26   58 1
    57   27   59 1
    58   29   34 ar
    59   29   30 ar
    60   30   31 ar
    61   30   60 1
    62   31   32 ar
    63   31   61 1
    64   32   33 ar
    65   32   35 1
    66   33   34 ar
    67   33   62 1
    68   34   63 1
@<TRIPOS>MOLECULE
ZINC01687322
   29    30     0     0     0
SMALL
USER_CHARGES

@<TRIPOS>ATOM
      1 C1         -0.0167    1.3781    0.0096 C.ar      1 <0>        -0.1134
      2 C2          1.1709    2.0855    0.0021 C.ar      1 <0>        -0.1233
      3 C3          2.3773    1.4107   -0.0130 C.ar      1 <0>        -0.0987
      4 C4          2.3960    0.0285   -0.0201 C.ar      1 <0>        -0.0925
      5 C5          1.2084   -0.6789   -0.0117 C.ar      1 <0>        -0.0987
      6 C6          0.0021   -0.0041    0.0020 C.ar      1 <0>        -0.1233
      7 C7          3.7112   -0.7071   -0.0376 C.3       1 <0>         0.1018
      8 O1          4.1410   -0.9464    1.3041 O.3       1 <0>        -0.3747
      9 C8          5.3853   -1.6423    1.4004 C.3       1 <0>         0.1018
     10 C9          5.7397   -1.8393    2.8519 C.ar      1 <0>        -0.0927
     11 C10         6.4818   -0.8821    3.5182 C.ar      1 <0>        -0.0986
     12 C11         6.8069   -1.0628    4.8496 C.ar      1 <0>        -0.1234
     13 C12         6.3894   -2.2004    5.5148 C.ar      1 <0>        -0.1133
     14 C13         5.6465   -3.1571    4.8487 C.ar      1 <0>        -0.1234
     15 C14         5.3178   -2.9744    3.5185 C.ar      1 <0>        -0.0986
     16 H1         -0.9591    1.9053    0.0259 H         1 <0>         0.1235
     17 H2          1.1563    3.1654    0.0076 H         1 <0>         0.1243
     18 H3          3.3051    1.9634   -0.0196 H         1 <0>         0.1226
     19 H4          1.2231   -1.7588   -0.0179 H         1 <0>         0.1226
     20 H5         -0.9258   -0.5567    0.0082 H         1 <0>         0.1243
     21 H6          3.5884   -1.6586   -0.5549 H         1 <0>         0.0591
     22 H7          4.4573   -0.1052   -0.5563 H         1 <0>         0.0592
     23 H8          5.2973   -2.6133    0.9129 H         1 <0>         0.0591
     24 H9          6.1662   -1.0598    0.9116 H         1 <0>         0.0591
     25 H10         6.8080    0.0066    2.9985 H         1 <0>         0.1226
     26 H11         7.3873   -0.3153    5.3699 H         1 <0>         0.1243
     27 H12         6.6440   -2.3419    6.5547 H         1 <0>         0.1235
     28 H13         5.3207   -4.0461    5.3683 H         1 <0>         0.1243
     29 H14         4.7342   -3.7201    2.9991 H         1 <0>         0.1226
@<TRIPOS>BOND
     1    1    6 ar
     2    1    2 ar
     3    1   16 1
     4    2    3 ar
     5    2   17 1
     6    3    4 ar
     7    3   18 1
     8    4    5 ar
     9    4    7 1
    10    5    6 ar
    11    5   19 1
    12    6   20 1
    13    7    8 1
    14    7   21 1
    15    7   22 1
    16    8    9 1
    17    9   10 1
    18    9   23 1
    19    9   24 1
    20   10   15 ar
    21   10   11 ar
    22   11   12 ar
    23   11   25 1
    24   12   13 ar
    25   12   26 1
    26   13   14 ar
    27   13   27 1
    28   14   15 ar
    29   14   28 1
    30   15   29 1
@<TRIPOS>MOLECULE
ZINC19365698
   69    71     0     0     0
SMALL
USER_CHARGES

@<TRIPOS>ATOM
      1 C1         -3.2717   -1.8103   -0.8628 C.3       1 <0>        -0.1682
      2 C2         -2.5244   -0.5323   -0.4763 C.3       1 <0>         0.1081
      3 N1         -1.4685   -0.8562    0.4861 N.am      1 <0>        -0.6052
      4 C3         -0.1536   -1.2940    0.0112 C.3       1 <0>         0.0964
      5 C4          0.6678   -0.0745   -0.4120 C.3       1 <0>        -0.1789
      6 C5         -1.7067   -0.7513    1.8085 C.2       1 <0>         0.5551
      7 O1         -2.8123   -0.4369    2.2038 O.2       1 <0>        -0.5295
      8 C6         -0.6233   -1.0189    2.7783 C.ar      1 <0>        -0.1181
      9 C7          0.6447   -0.4696    2.5818 C.ar      1 <0>        -0.0952
     10 C8          1.6511   -0.7228    3.4908 C.ar      1 <0>        -0.1237
     11 C9          1.4058   -1.5195    4.5951 C.ar      1 <0>        -0.0540
     12 C10         0.1512   -2.0674    4.7955 C.ar      1 <0>        -0.0973
     13 C11        -0.8657   -1.8170    3.8974 C.ar      1 <0>        -0.0692
     14 C12         2.5101   -1.7922    5.5836 C.3       1 <0>         0.1749
     15 H1          3.2869   -1.0348    5.4786 H         1 <0>         0.0716
     16 C13         3.0974   -3.1543    5.3176 C.ar      1 <0>        -0.0990
     17 C14         2.3631   -4.2908    5.6005 C.ar      1 <0>        -0.1008
     18 C15         2.9017   -5.5403    5.3566 C.ar      1 <0>        -0.1194
     19 C16         4.1746   -5.6533    4.8293 C.ar      1 <0>        -0.1071
     20 C17         4.9086   -4.5168    4.5455 C.ar      1 <0>        -0.1140
     21 C18         4.3682   -3.2672    4.7855 C.ar      1 <0>        -0.1080
     22 N2          1.9672   -1.7509    6.9480 N.3       1 <0>        -0.5273
     23 C19         2.8497   -2.4568    7.8876 C.3       1 <0>         0.0249
     24 C20         2.2207   -2.4422    9.2825 C.3       1 <0>         0.0320
     25 H2          1.2579   -2.9523    9.2523 H         1 <0>         0.1441
     26 N3          2.0254   -1.0528    9.7172 N.4       1 <0>        -0.3827
     27 C21         1.1224   -0.3680    8.7827 C.3       1 <0>         0.0016
     28 C22         1.7423   -0.3654    7.3836 C.3       1 <0>         0.0647
     29 H3          2.6931    0.1671    7.4081 H         1 <0>         0.0662
     30 C23         0.7926    0.3295    6.4058 C.3       1 <0>        -0.1641
     31 C24         1.4382   -1.0393   11.0637 C.3       1 <0>         0.0243
     32 C25         1.3511    0.3811   11.5595 C.2       1 <0>        -0.2351
     33 C26         0.2021    0.8655   11.9611 C.2       1 <0>        -0.1051
     34 C27         3.1468   -3.1591   10.2671 C.3       1 <0>        -0.1831
     35 H4         -4.0573   -1.5693   -1.5789 H         1 <0>         0.0704
     36 H5         -2.5743   -2.5170   -1.3126 H         1 <0>         0.0562
     37 H6         -3.7157   -2.2549    0.0278 H         1 <0>         0.0586
     38 H7         -2.0804   -0.0877   -1.3670 H         1 <0>         0.0795
     39 H8         -3.2218    0.1744   -0.0265 H         1 <0>         0.0876
     40 H9          0.3650   -1.8212    0.8120 H         1 <0>         0.0861
     41 H10        -0.2789   -1.9613   -0.8415 H         1 <0>         0.0817
     42 H11         0.4897    0.7436    0.2860 H         1 <0>         0.0639
     43 H12         1.7272   -0.3309   -0.4085 H         1 <0>         0.0720
     44 H13         0.3717    0.2328   -1.4150 H         1 <0>         0.0653
     45 H14         0.8377    0.1519    1.7199 H         1 <0>         0.1428
     46 H15         2.6327   -0.2984    3.3399 H         1 <0>         0.1274
     47 H16        -0.0337   -2.6887    5.6593 H         1 <0>         0.1335
     48 H17        -1.8458   -2.2413    4.0576 H         1 <0>         0.1307
     49 H18         1.3686   -4.2026    6.0125 H         1 <0>         0.1279
     50 H19         2.3283   -6.4282    5.5782 H         1 <0>         0.1262
     51 H20         4.5957   -6.6295    4.6394 H         1 <0>         0.1266
     52 H21         5.9031   -4.6050    4.1339 H         1 <0>         0.1272
     53 H22         4.9402   -2.3792    4.5604 H         1 <0>         0.1217
     54 H23         2.9811   -3.4877    7.5586 H         1 <0>         0.1332
     55 H24         3.8188   -1.9589    7.9204 H         1 <0>         0.0612
     56 H25         0.1652   -0.8887    8.7550 H         1 <0>         0.1364
     57 H26         0.9679    0.6590    9.1136 H         1 <0>         0.1359
     58 H27        -0.1583   -0.2028    6.3826 H         1 <0>         0.0796
     59 H28         0.6260    1.3570    6.7292 H         1 <0>         0.0698
     60 H29         1.2335    0.3293    5.4090 H         1 <0>         0.0910
     61 H30         0.4392   -1.4738   11.0288 H         1 <0>         0.1300
     62 H31         2.0645   -1.6221   11.7391 H         1 <0>         0.1385
     63 H32         2.2360    0.9998   11.5837 H         1 <0>         0.1329
     64 H33         0.1397    1.8834   12.3164 H         1 <0>         0.1229
     65 H34        -0.6828    0.2468   11.9369 H         1 <0>         0.1115
     66 H35         4.1097   -2.6491   10.2973 H         1 <0>         0.0808
     67 H36         2.6988   -3.1487   11.2607 H         1 <0>         0.0861
     68 H37         3.2918   -4.1902    9.9446 H         1 <0>         0.1078
     69 H38         2.9153   -0.5776    9.7340 H         1 <0>         0.4182
@<TRIPOS>BOND
     1    1    2 1
     2    1   35 1
     3    1   36 1
     4    1   37 1
     5    2    3 1
     6    2   38 1
     7    2   39 1
     8    3    4 1
     9    3    6 am
    10    4    5 1
    11    4   40 1
    12    4   41 1
    13    5   42 1
    14    5   43 1
    15    5   44 1
    16    6    7 2
    17    6    8 1
    18    8   13 ar
    19    8    9 ar
    20    9   10 ar
    21    9   45 1
    22   10   11 ar
    23   10   46 1
    24   11   12 ar
    25   11   14 1
    26   12   13 ar
    27   12   47 1
    28   13   48 1
    29   14   15 1
    30   14   16 1
    31   14   22 1
    32   16   21 ar
    33   16   17 ar
    34   17   18 ar
    35   17   49 1
    36   18   19 ar
    37   18   50 1
    38   19   20 ar
    39   19   51 1
    40   20   21 ar
    41   20   52 1
    42   21   53 1
    43   22   28 1
    44   22   23 1
    45   23   24 1
    46   23   54 1
    47   23   55 1
    48   24   25 1
    49   24   26 1
    50   24   34 1
    51   26   27 1
    52   26   31 1
    53   26   69 1
    54   27   28 1
    55   27   56 1
    56   27   57 1
    57   28   29 1
    58   28   30 1
    59   30   58 1
    60   30   59 1
    61   30   60 1
    62   31   32 1
    63   31   61 1
    64   31   62 1
    65   32   33 2
    66   32   63 1
    67   33   64 1
    68   33   65 1
    69   34   66 1
    70   34   67 1
    71   34   68 1
@<TRIPOS>MOLECULE
ZINC19365698
   69    71     0     0     0
SMALL
USER_CHARGES

@<TRIPOS>ATOM
      1 C1         -3.7959   -4.5389    0.0810 C.3       1 <0>        -0.1690
      2 C2         -3.1546   -3.1499    0.0952 C.3       1 <0>         0.1074
      3 N1         -2.1637   -3.0804    1.1720 N.am      1 <0>        -0.6022
      4 C3         -0.7947   -3.5472    0.9389 C.3       1 <0>         0.0928
      5 C4         -0.0240   -2.4908    0.1446 C.3       1 <0>        -0.1803
      6 C5         -2.5115   -2.5871    2.3770 C.2       1 <0>         0.5506
      7 O1         -3.6616   -2.2558    2.5892 O.2       1 <0>        -0.5213
      8 C6         -1.4942   -2.4490    3.4409 C.ar      1 <0>        -0.0973
      9 C7         -0.2346   -1.9269    3.1426 C.ar      1 <0>        -0.0882
     10 C8          0.7100   -1.8002    4.1401 C.ar      1 <0>        -0.1000
     11 C9          0.4111   -2.1897    5.4336 C.ar      1 <0>        -0.0977
     12 C10        -0.8354   -2.7084    5.7359 C.ar      1 <0>        -0.1230
     13 C11        -1.7912   -2.8346    4.7490 C.ar      1 <0>        -0.0538
     14 C12         1.4481   -2.0488    6.5180 C.3       1 <0>         0.1308
     15 H1          2.2620   -1.4169    6.1626 H         1 <0>         0.1507
     16 C13         1.9882   -3.4093    6.8764 C.ar      1 <0>        -0.1318
     17 C14         1.2676   -4.2404    7.7138 C.ar      1 <0>        -0.1232
     18 C15         1.7630   -5.4883    8.0425 C.ar      1 <0>        -0.1022
     19 C16         2.9787   -5.9054    7.5336 C.ar      1 <0>        -0.0911
     20 C17         3.6988   -5.0748    6.6955 C.ar      1 <0>        -0.1029
     21 C18         3.2014   -3.8285    6.3633 C.ar      1 <0>        -0.0846
     22 N2          0.8356   -1.4370    7.7048 N.4       1 <0>        -0.3822
     23 C19         1.7843   -1.4853    8.8251 C.3       1 <0>        -0.0049
     24 C20         1.1398   -0.8650   10.0667 C.3       1 <0>         0.0608
     25 H2          0.2486   -1.4321   10.3356 H         1 <0>         0.0638
     26 N3          0.7667    0.5270    9.7779 N.3       1 <0>        -0.5311
     27 C21        -0.1638    0.5931    8.6421 C.3       1 <0>         0.0330
     28 C22         0.4915   -0.0393    7.4123 C.3       1 <0>         0.0367
     29 H3          1.3968    0.5124    7.1589 H         1 <0>         0.1453
     30 C23        -0.4825    0.0101    6.2334 C.3       1 <0>        -0.1983
     31 C24         0.1950    1.1760   10.9653 C.3       1 <0>         0.0780
     32 C25         0.0534    2.6545   10.7104 C.2       1 <0>        -0.1651
     33 C26        -1.1105    3.2366   10.8610 C.2       1 <0>        -0.1713
     34 C27         2.1350   -0.8968   11.2283 C.3       1 <0>        -0.1518
     35 H4         -4.5331   -4.5906   -0.7202 H         1 <0>         0.0726
     36 H5         -3.0262   -5.2928   -0.0843 H         1 <0>         0.0568
     37 H6         -4.2852   -4.7229    1.0375 H         1 <0>         0.0588
     38 H7         -2.6652   -2.9659   -0.8613 H         1 <0>         0.0821
     39 H8         -3.9243   -2.3960    0.2605 H         1 <0>         0.0896
     40 H9         -0.3002   -3.7147    1.8957 H         1 <0>         0.0851
     41 H10        -0.8198   -4.4794    0.3747 H         1 <0>         0.0844
     42 H11         1.0412   -2.7199    0.1736 H         1 <0>         0.0749
     43 H12        -0.3678   -2.4916   -0.8898 H         1 <0>         0.0686
     44 H13        -0.1964   -1.5083    0.5840 H         1 <0>         0.0632
     45 H14         0.0002   -1.6231    2.1332 H         1 <0>         0.1540
     46 H15         1.6851   -1.3964    3.9106 H         1 <0>         0.1420
     47 H16        -1.0623   -3.0109    6.7475 H         1 <0>         0.1233
     48 H17        -2.7655   -3.2351    4.9872 H         1 <0>         0.1427
     49 H18         0.3179   -3.9145    8.1114 H         1 <0>         0.1142
     50 H19         1.2004   -6.1373    8.6973 H         1 <0>         0.1355
     51 H20         3.3660   -6.8802    7.7910 H         1 <0>         0.1362
     52 H21         4.6487   -5.4006    6.2981 H         1 <0>         0.1378
     53 H22         3.7622   -3.1810    5.7055 H         1 <0>         0.1339
     54 H23         2.0489   -2.5221    9.0327 H         1 <0>         0.1398
     55 H24         2.6830   -0.9263    8.5645 H         1 <0>         0.1398
     56 H25        -1.0764    0.0500    8.8876 H         1 <0>         0.0585
     57 H26        -0.4057    1.6346    8.4302 H         1 <0>         0.1262
     58 H27        -1.2575   -0.7439    6.3705 H         1 <0>         0.0838
     59 H28        -0.9413    0.9976    6.1822 H         1 <0>         0.1007
     60 H29         0.0574   -0.1880    5.3074 H         1 <0>         0.0992
     61 H30        -0.7850    0.7482   11.1767 H         1 <0>         0.0490
     62 H31         0.8533    1.0159   11.8192 H         1 <0>         0.1014
     63 H32         0.9114    3.2342   10.4036 H         1 <0>         0.1193
     64 H33        -1.2120    4.2961   10.6783 H         1 <0>         0.1068
     65 H34        -1.9685    2.6568   11.1678 H         1 <0>         0.0969
     66 H35         3.0257   -0.3289   10.9594 H         1 <0>         0.0789
     67 H36         1.6756   -0.4549   12.1125 H         1 <0>         0.0797
     68 H37         2.4127   -1.9292   11.4407 H         1 <0>         0.0753
     69 H38        -0.0010   -1.9446    7.9508 H         1 <0>         0.4123
@<TRIPOS>BOND
     1    1    2 1
     2    1   35 1
     3    1   36 1
     4    1   37 1
     5    2    3 1
     6    2   38 1
     7    2   39 1
     8    3    4 1
     9    3    6 am
    10    4    5 1
    11    4   40 1
    12    4   41 1
    13    5   42 1
    14    5   43 1
    15    5   44 1
    16    6    7 2
    17    6    8 1
    18    8   13 ar
    19    8    9 ar
    20    9   10 ar
    21    9   45 1
    22   10   11 ar
    23   10   46 1
    24   11   12 ar
    25   11   14 1
    26   12   13 ar
    27   12   47 1
    28   13   48 1
    29   14   15 1
    30   14   16 1
    31   14   22 1
    32   16   21 ar
    33   16   17 ar
    34   17   18 ar
    35   17   49 1
    36   18   19 ar
    37   18   50 1
    38   19   20 ar
    39   19   51 1
    40   20   21 ar
    41   20   52 1
    42   21   53 1
    43   22   28 1
    44   22   23 1
    45   22   69 1
    46   23   24 1
    47   23   54 1
    48   23   55 1
    49   24   25 1
    50   24   26 1
    51   24   34 1
    52   26   27 1
    53   26   31 1
    54   27   28 1
    55   27   56 1
    56   27   57 1
    57   28   29 1
    58   28   30 1
    59   30   58 1
    60   30   59 1
    61   30   60 1
    62   31   32 1
    63   31   61 1
    64   31   62 1
    65   32   33 2
    66   32   63 1
    67   33   64 1
    68   33   65 1
    69   34   66 1
    70   34   67 1
    71   34   68 1
@<TRIPOS>MOLECULE
ZINC19365698
   68    70     0     0     0
SMALL
USER_CHARGES

@<TRIPOS>ATOM
      1 C1          0.9023   -2.1882    3.3404 C.3       1 <0>        -0.1676
      2 C2          0.8628   -0.8357    2.6261 C.3       1 <0>         0.1090
      3 N1          1.2165   -1.0176    1.2162 N.am      1 <0>        -0.6080
      4 C3          0.1856   -1.3915    0.2447 C.3       1 <0>         0.0967
      5 C4         -0.6229   -0.1520   -0.1434 C.3       1 <0>        -0.1775
      6 C5          2.4903   -0.8410    0.8128 C.2       1 <0>         0.5599
      7 O1          3.3527   -0.5683    1.6248 O.2       1 <0>        -0.5323
      8 C6          2.8386   -0.9790   -0.6174 C.ar      1 <0>        -0.1308
      9 C7          2.0514   -0.3652   -1.5929 C.ar      1 <0>        -0.0983
     10 C8          2.3822   -0.4974   -2.9257 C.ar      1 <0>        -0.1266
     11 C9          3.4914   -1.2369   -3.2962 C.ar      1 <0>        -0.0352
     12 C10         4.2757   -1.8483   -2.3343 C.ar      1 <0>        -0.0943
     13 C11         3.9595   -1.7187   -0.9977 C.ar      1 <0>        -0.0697
     14 C12         3.8464   -1.3775   -4.7540 C.3       1 <0>         0.1637
     15 H1          3.3742   -0.5759   -5.3220 H         1 <0>         0.0623
     16 C13         3.3585   -2.7091   -5.2637 C.ar      1 <0>        -0.0812
     17 C14         3.9629   -3.8765   -4.8360 C.ar      1 <0>        -0.0940
     18 C15         3.5153   -5.0979   -5.3036 C.ar      1 <0>        -0.1224
     19 C16         2.4631   -5.1521   -6.1985 C.ar      1 <0>        -0.1160
     20 C17         1.8582   -3.9848   -6.6255 C.ar      1 <0>        -0.1189
     21 C18         2.3029   -2.7635   -6.1546 C.ar      1 <0>        -0.1111
     22 N2          5.3046   -1.2968   -4.9129 N.3       1 <0>        -0.5253
     23 C19         5.7305   -1.9033   -6.1819 C.3       1 <0>         0.0588
     24 C20         7.2580   -1.8706   -6.2725 C.3       1 <0>         0.0847
     25 H2          7.6833   -2.4541   -5.4560 H         1 <0>         0.0492
     26 N3          7.7222   -0.4797   -6.1749 N.3       1 <0>        -0.5330
     27 C21         7.2963    0.1268   -4.9059 C.3       1 <0>         0.0659
     28 C22         5.7688    0.0941   -4.8152 C.3       1 <0>         0.0885
     29 H3          5.3435    0.6776   -5.6317 H         1 <0>         0.0505
     30 C23         5.3241    0.6879   -3.4771 C.3       1 <0>        -0.1589
     31 C24         9.1804   -0.3990   -6.3337 C.3       1 <0>         0.0754
     32 C25         9.5913    1.0441   -6.4741 C.2       1 <0>        -0.1452
     33 C26        10.4893    1.5509   -5.6661 C.2       1 <0>        -0.1906
     34 C27         7.7027   -2.4649   -7.6104 C.3       1 <0>        -0.1490
     35 H4          1.9058   -2.6077    3.2688 H         1 <0>         0.0588
     36 H5          0.6392   -2.0528    4.3895 H         1 <0>         0.0676
     37 H6          0.1902   -2.8675    2.8719 H         1 <0>         0.0554
     38 H7         -0.1407   -0.4162    2.6978 H         1 <0>         0.0766
     39 H8          1.5749   -0.1564    3.0947 H         1 <0>         0.0865
     40 H9          0.6584   -1.8098   -0.6439 H         1 <0>         0.0898
     41 H10        -0.4781   -2.1344    0.6870 H         1 <0>         0.0780
     42 H11         0.0542    0.6854   -0.3122 H         1 <0>         0.0645
     43 H12        -1.1839   -0.3551   -1.0556 H         1 <0>         0.0717
     44 H13        -1.3151    0.0969    0.6610 H         1 <0>         0.0616
     45 H14         1.1849    0.2118   -1.3051 H         1 <0>         0.1377
     46 H15         1.7739   -0.0230   -3.6815 H         1 <0>         0.1253
     47 H16         5.1400   -2.4244   -2.6301 H         1 <0>         0.1350
     48 H17         4.5753   -2.1924   -0.2474 H         1 <0>         0.1273
     49 H18         4.7849   -3.8342   -4.1369 H         1 <0>         0.1273
     50 H19         3.9880   -6.0099   -4.9700 H         1 <0>         0.1221
     51 H20         2.1139   -6.1063   -6.5643 H         1 <0>         0.1212
     52 H21         1.0363   -4.0270   -7.3249 H         1 <0>         0.1222
     53 H22         1.8279   -1.8518   -6.4854 H         1 <0>         0.1195
     54 H23         5.3857   -2.9364   -6.2250 H         1 <0>         0.0911
     55 H24         5.3047   -1.3425   -7.0139 H         1 <0>         0.0428
     56 H25         7.7221   -0.4340   -4.0739 H         1 <0>         0.0422
     57 H26         7.6411    1.1599   -4.8628 H         1 <0>         0.0815
     58 H27         5.7505    0.1046   -2.6611 H         1 <0>         0.0664
     59 H28         5.6686    1.7195   -3.4050 H         1 <0>         0.0573
     60 H29         4.2363    0.6627   -3.4121 H         1 <0>         0.0713
     61 H30         9.6656   -0.8315   -5.4588 H         1 <0>         0.0380
     62 H31         9.4798   -0.9504   -7.2250 H         1 <0>         0.0893
     63 H32         9.1455    1.6604   -7.2408 H         1 <0>         0.1132
     64 H33        10.7838    2.5851   -5.7667 H         1 <0>         0.0995
     65 H34        10.9351    0.9346   -4.8994 H         1 <0>         0.0940
     66 H35         7.2779   -1.8807   -8.4267 H         1 <0>         0.0643
     67 H36         8.7906   -2.4415   -7.6747 H         1 <0>         0.0605
     68 H37         7.3566   -3.4960   -7.6829 H         1 <0>         0.0623
@<TRIPOS>BOND
     1    1    2 1
     2    1   35 1
     3    1   36 1
     4    1   37 1
     5    2    3 1
     6    2   38 1
     7    2   39 1
     8    3    4 1
     9    3    6 am
    10    4    5 1
    11    4   40 1
    12    4   41 1
    13    5   42 1
    14    5   43 1
    15    5   44 1
    16    6    7 2
    17    6    8 1
    18    8   13 ar
    19    8    9 ar
    20    9   10 ar
    21    9   45 1
    22   10   11 ar
    23   10   46 1
    24   11   12 ar
    25   11   14 1
    26   12   13 ar
    27   12   47 1
    28   13   48 1
    29   14   15 1
    30   14   16 1
    31   14   22 1
    32   16   21 ar
    33   16   17 ar
    34   17   18 ar
    35   17   49 1
    36   18   19 ar
    37   18   50 1
    38   19   20 ar
    39   19   51 1
    40   20   21 ar
    41   20   52 1
    42   21   53 1
    43   22   28 1
    44   22   23 1
    45   23   24 1
    46   23   54 1
    47   23   55 1
    48   24   25 1
    49   24   26 1
    50   24   34 1
    51   26   27 1
    52   26   31 1
    53   27   28 1
    54   27   56 1
    55   27   57 1
    56   28   29 1
    57   28   30 1
    58   30   58 1
    59   30   59 1
    60   30   60 1
    61   31   32 1
    62   31   61 1
    63   31   62 1
    64   32   33 2
    65   32   63 1
    66   33   64 1
    67   33   65 1
    68   34   66 1
    69   34   67 1
    70   34   68 1
@<TRIPOS>MOLECULE
ZINC08217391
   46    48     0     0     0
SMALL
USER_CHARGES
[(2R,3S,4R,5R)-5-(2-amino-6-oxo-1H-purin-9-yl)-3,4-dihydroxy-tetrahydrofuran-2-yl]methyl (dihydroxyphosphinothioyloxy-hydroxy-phosphoryl) hydrogen phosphate
@<TRIPOS>ATOM
      1 C1         -2.7112    8.5145    5.0865 C.2       1 <0>         0.2447
      2 N1         -3.4293    8.6058    6.1675 N.2       1 <0>        -0.4266
      3 C2         -4.4051    9.5278    5.9815 C.2       1 <0>        -0.1232
      4 C3         -5.4543   10.0282    6.7876 C.2       1 <0>         0.5929
      5 O1         -5.6208    9.6163    7.9229 O.2       1 <0>        -0.5114
      6 N2         -6.2674   10.9744    6.2680 N.am      1 <0>        -0.6420
      7 H1         -7.0163   11.3436    6.8183 H         1 <0>         0.4270
      8 C4         -6.0719   11.4280    4.9976 C.2       1 <0>         0.5872
      9 N3         -5.1011   10.9710    4.2386 N.2       1 <0>        -0.5402
     10 C5         -4.2565   10.0340    4.6852 C.2       1 <0>         0.2884
     11 N4         -3.1816    9.3825    4.1441 N.pl3     1 <0>        -0.4443
     12 C6         -2.6389    9.5765    2.7972 C.3       1 <0>         0.3073
     13 H2         -3.4375    9.8090    2.0927 H         1 <0>         0.1211
     14 C7         -1.5653   10.6944    2.7936 C.3       1 <0>         0.0355
     15 H3         -0.9657   10.6610    3.7033 H         1 <0>         0.0916
     16 C8         -0.7130   10.3215    1.5562 C.3       1 <0>         0.0467
     17 H4          0.3468   10.4687    1.7644 H         1 <0>         0.0959
     18 C9         -1.0150    8.8280    1.3258 C.3       1 <0>         0.0868
     19 H5         -1.4887    8.6890    0.3540 H         1 <0>         0.1051
     20 O2         -1.9085    8.4067    2.3699 O.3       1 <0>        -0.3372
     21 C10         0.2817    8.0187    1.3927 C.3       1 <0>         0.1371
     22 O3          0.0067    6.6518    1.0796 O.3       1 <0>        -0.7633
     23 P1          1.1436    5.5120    1.0547 P.3       1 <0>         2.2923
     24 O4          2.2338    5.9226    0.1419 O.2       1 <0>        -1.0897
     25 O5          0.5043    4.1275    0.5386 O.3       1 <0>        -1.0905
     26 P2          1.1231    2.7398    0.0060 P.3       1 <0>         2.3064
     27 O6          2.2346    2.3238    0.8902 O.2       1 <0>        -1.0401
     28 O7         -0.0198    1.6058    0.0109 O.3       1 <0>        -1.0564
     29 P3          0.0021   -0.0041    0.0020 P.3       1 <0>         2.4572
     30 S1          0.9034   -0.6214    1.5118 S.2       1 <0>        -1.2386
     31 O8         -1.5084   -0.5613    0.0134 O.3       1 <0>        -0.8430
     32 O9          0.7557   -0.5233   -1.3226 O.3       1 <0>        -0.8326
     33 O10        -1.1131   11.0934    0.4221 O.3       1 <0>        -0.5372
     34 O11        -2.1679   11.9798    2.6299 O.3       1 <0>        -0.5329
     35 N5         -6.9133   12.3893    4.4965 N.pl3     1 <0>        -0.7480
     36 H6         -1.8678    7.8528    4.9554 H         1 <0>         0.2331
     37 H7          0.6996    8.0844    2.3972 H         1 <0>         0.0641
     38 H8          0.9973    8.4190    0.6745 H         1 <0>         0.0769
     39 H9         -1.5716   -1.5263    0.0089 H         1 <0>         0.4449
     40 H10         0.3404   -0.2390   -2.1483 H         1 <0>         0.4292
     41 H11        -0.9459   12.0415    0.5130 H         1 <0>         0.3788
     42 H12        -1.5364   12.7120    2.6213 H         1 <0>         0.3800
     43 H13        -7.8518   12.0441    4.4973 H         1 <0>         0.3684
     44 H14        -6.7867   12.7220    3.5942 H         1 <0>         0.3935
     45 O12         1.7339    5.3103    2.5390 O.3       1 <0>        -1.1066
     46 O13         1.6754    2.9387   -1.4931 O.3       1 <0>        -1.0884
@<TRIPOS>BOND
     1    1   11 1
     2    1    2 2
     3    1   36 1
     4    2    3 1
     5    3   10 2
     6    3    4 1
     7    4    5 2
     8    4    6 am
     9    6    7 1
    10    6    8 1
    11    8    9 2
    12    8   35 1
    13    9   10 1
    14   10   11 1
    15   11   12 1
    16   12   13 1
    17   12   20 1
    18   12   14 1
    19   14   15 1
    20   14   16 1
    21   14   34 1
    22   16   17 1
    23   16   18 1
    24   16   33 1
    25   18   19 1
    26   18   20 1
    27   18   21 1
    28   21   22 1
    29   21   37 1
    30   21   38 1
    31   22   23 1
    32   23   24 2
    33   23   25 1
    34   23   45 1
    35   25   26 1
    36   26   27 2
    37   26   28 1
    38   26   46 1
    39   28   29 1
    40   29   30 2
    41   29   31 1
    42   29   32 1
    43   31   39 1
    44   32   40 1
    45   33   41 1
    46   34   42 1
    47   35   43 1
    48   35   44 1
@<TRIPOS>MOLECULE
ZINC15280332
   45    47     0     0     0
SMALL
USER_CHARGES

@<TRIPOS>ATOM
      1 C1         -0.0164    1.3606    0.0095 C.2       1 <0>         0.2399
      2 N1          1.2014    1.8181    0.0004 N.2       1 <0>        -0.4274
      3 C2          2.0711    0.7788   -0.0135 C.2       1 <0>        -0.1446
      4 C3          3.4818    0.6749   -0.0276 C.2       1 <0>         0.5983
      5 O1          4.1818    1.6731   -0.0285 O.2       1 <0>        -0.5173
      6 N2          4.0343   -0.5584   -0.0395 N.am      1 <0>        -0.6577
      7 H1          4.9994   -0.6547   -0.0489 H         1 <0>         0.4141
      8 C4          3.2421   -1.6676   -0.0379 C.2       1 <0>         0.6422
      9 N3          1.9305   -1.5844   -0.0253 N.2       1 <0>        -0.5603
     10 C5          1.3128   -0.3975   -0.0126 C.2       1 <0>         0.3096
     11 N4          0.0021   -0.0041    0.0020 N.pl3     1 <0>        -0.4463
     12 C6         -1.1673   -0.8865    0.0089 C.3       1 <0>         0.3029
     13 H2         -0.9755   -1.7741   -0.5939 H         1 <0>         0.1209
     14 C7         -1.5302   -1.2872    1.4560 C.3       1 <0>         0.0379
     15 H3         -1.1590   -0.5447    2.1624 H         1 <0>         0.0831
     16 C8         -3.0750   -1.3152    1.4617 C.3       1 <0>         0.0472
     17 H4         -3.4675   -0.5864    2.1709 H         1 <0>         0.0936
     18 C9         -3.4628   -0.9280    0.0174 C.3       1 <0>         0.0863
     19 H5         -3.6249   -1.8221   -0.5846 H         1 <0>         0.1040
     20 O2         -2.3294   -0.1850   -0.4847 O.3       1 <0>        -0.3324
     21 C10        -4.7182   -0.0535    0.0192 C.3       1 <0>         0.1422
     22 O3         -5.1265    0.1966   -1.3272 O.3       1 <0>        -0.7621
     23 P1         -6.4157    1.0851   -1.7019 P.3       1 <0>         2.2880
     24 O4         -7.6599    0.5155   -0.9845 O.2       1 <0>        -1.0984
     25 O5         -6.1842    2.5445   -1.2508 O.3       1 <0>        -1.1070
     26 O6         -6.6498    1.0464   -3.2943 O.3       1 <0>        -1.0949
     27 P2         -7.8804    1.4427   -4.2538 P.3       1 <0>         2.3416
     28 O7         -9.2078    1.0008   -3.5982 O.2       1 <0>        -1.0938
     29 O8         -7.8955    2.9729   -4.4666 O.3       1 <0>        -1.1050
     30 O9         -7.7121    0.7049   -5.6749 O.3       1 <0>        -1.0759
     31 P3         -8.6994    0.4315   -6.9169 P.3       1 <0>         2.2027
     32 O10        -9.9094   -0.4021   -6.4392 O.2       1 <0>        -1.0052
     33 O11        -9.1953    1.7791   -7.4870 O.3       1 <0>        -1.0129
     34 S1         -7.6587   -0.6339   -8.4256 S.3       1 <0>        -0.8895
     35 O12        -3.5509   -2.6252    1.7768 O.3       1 <0>        -0.5311
     36 O13        -1.0021   -2.5786    1.7653 O.3       1 <0>        -0.5315
     37 N5          3.8310   -2.9070   -0.0502 N.pl3     1 <0>        -0.8235
     38 H6         -0.9084    1.9694    0.0254 H         1 <0>         0.2312
     39 H7         -5.5183   -0.5675    0.5519 H         1 <0>         0.0793
     40 H8         -4.5011    0.8928    0.5147 H         1 <0>         0.0618
     41 H9         -8.5743   -0.8007   -9.3967 H         1 <0>         0.2000
     42 H10        -3.2844   -2.9408    2.6511 H         1 <0>         0.3727
     43 H11        -1.2005   -2.8800    2.6624 H         1 <0>         0.3765
     44 H12         4.7979   -2.9845   -0.0598 H         1 <0>         0.4124
     45 H13         3.2805   -3.7056   -0.0492 H         1 <0>         0.4283
@<TRIPOS>BOND
     1    1   11 1
     2    1    2 2
     3    1   38 1
     4    2    3 1
     5    3   10 2
     6    3    4 1
     7    4    5 2
     8    4    6 am
     9    6    7 1
    10    6    8 1
    11    8    9 2
    12    8   37 1
    13    9   10 1
    14   10   11 1
    15   11   12 1
    16   12   13 1
    17   12   20 1
    18   12   14 1
    19   14   15 1
    20   14   16 1
    21   14   36 1
    22   16   17 1
    23   16   18 1
    24   16   35 1
    25   18   19 1
    26   18   20 1
    27   18   21 1
    28   21   22 1
    29   21   39 1
    30   21   40 1
    31   22   23 1
    32   23   24 2
    33   23   25 1
    34   23   26 1
    35   26   27 1
    36   27   28 2
    37   27   29 1
    38   27   30 1
    39   30   31 1
    40   31   32 2
    41   31   33 1
    42   31   34 1
    43   34   41 1
    44   35   42 1
    45   36   43 1
    46   37   44 1
    47   37   45 1
@<TRIPOS>MOLECULE
ZINC15280332
   44    46     0     0     0
SMALL
USER_CHARGES

@<TRIPOS>ATOM
      1 C1         -0.0164    1.3606    0.0095 C.2       1 <0>         0.2430
      2 N1          1.2014    1.8181    0.0004 N.2       1 <0>        -0.4291
      3 C2          2.0711    0.7788   -0.0135 C.2       1 <0>        -0.1446
      4 C3          3.4818    0.6749   -0.0276 C.2       1 <0>         0.5990
      5 O1          4.1818    1.6731   -0.0285 O.2       1 <0>        -0.5199
      6 N2          4.0343   -0.5584   -0.0395 N.am      1 <0>        -0.6577
      7 H1          4.9994   -0.6547   -0.0489 H         1 <0>         0.4129
      8 C4          3.2421   -1.6676   -0.0379 C.2       1 <0>         0.6394
      9 N3          1.9305   -1.5844   -0.0253 N.2       1 <0>        -0.5574
     10 C5          1.3128   -0.3975   -0.0126 C.2       1 <0>         0.3080
     11 N4          0.0021   -0.0041    0.0020 N.pl3     1 <0>        -0.4444
     12 C6         -1.1673   -0.8865    0.0089 C.3       1 <0>         0.3009
     13 H2         -0.9755   -1.7741   -0.5939 H         1 <0>         0.1215
     14 C7         -1.5302   -1.2872    1.4560 C.3       1 <0>         0.0385
     15 H3         -1.1590   -0.5447    2.1624 H         1 <0>         0.0821
     16 C8         -3.0750   -1.3152    1.4617 C.3       1 <0>         0.0478
     17 H4         -3.4675   -0.5864    2.1709 H         1 <0>         0.0933
     18 C9         -3.4628   -0.9280    0.0174 C.3       1 <0>         0.0852
     19 H5         -3.6249   -1.8221   -0.5846 H         1 <0>         0.1055
     20 O2         -2.3294   -0.1850   -0.4847 O.3       1 <0>        -0.3302
     21 C10        -4.7182   -0.0535    0.0192 C.3       1 <0>         0.1424
     22 O3         -5.1265    0.1966   -1.3272 O.3       1 <0>        -0.7598
     23 P1         -6.4157    1.0851   -1.7019 P.3       1 <0>         2.2910
     24 O4         -7.6599    0.5155   -0.9845 O.2       1 <0>        -1.1022
     25 O5         -6.1842    2.5445   -1.2508 O.3       1 <0>        -1.1123
     26 O6         -6.6498    1.0464   -3.2943 O.3       1 <0>        -1.0957
     27 P2         -7.8804    1.4427   -4.2538 P.3       1 <0>         2.3510
     28 O7         -9.2078    1.0008   -3.5982 O.2       1 <0>        -1.1103
     29 O8         -7.8955    2.9729   -4.4666 O.3       1 <0>        -1.1230
     30 O9         -7.7121    0.7049   -5.6749 O.3       1 <0>        -1.0998
     31 P3         -8.6994    0.4315   -6.9169 P.3       1 <0>         2.3820
     32 O10        -9.9094   -0.4021   -6.4392 O.2       1 <0>        -1.1050
     33 O11        -9.1953    1.7791   -7.4870 O.3       1 <0>        -1.1115
     34 S1         -7.6587   -0.6339   -8.4256 S.3       1 <0>        -1.6099
     35 O12        -3.5509   -2.6252    1.7768 O.3       1 <0>        -0.5295
     36 O13        -1.0021   -2.5786    1.7653 O.3       1 <0>        -0.5315
     37 N5          3.8310   -2.9070   -0.0502 N.pl3     1 <0>        -0.8245
     38 H6         -0.9084    1.9694    0.0254 H         1 <0>         0.2321
     39 H7         -5.5183   -0.5675    0.5519 H         1 <0>         0.0782
     40 H8         -4.5011    0.8928    0.5147 H         1 <0>         0.0596
     41 H9         -3.2844   -2.9408    2.6511 H         1 <0>         0.3702
     42 H10        -1.2005   -2.8800    2.6624 H         1 <0>         0.3749
     43 H11         4.7979   -2.9845   -0.0598 H         1 <0>         0.4113
     44 H12         3.2805   -3.7056   -0.0492 H         1 <0>         0.4282
@<TRIPOS>BOND
     1    1   11 1
     2    1    2 2
     3    1   38 1
     4    2    3 1
     5    3   10 2
     6    3    4 1
     7    4    5 2
     8    4    6 am
     9    6    7 1
    10    6    8 1
    11    8    9 2
    12    8   37 1
    13    9   10 1
    14   10   11 1
    15   11   12 1
    16   12   13 1
    17   12   20 1
    18   12   14 1
    19   14   15 1
    20   14   16 1
    21   14   36 1
    22   16   17 1
    23   16   18 1
    24   16   35 1
    25   18   19 1
    26   18   20 1
    27   18   21 1
    28   21   22 1
    29   21   39 1
    30   21   40 1
    31   22   23 1
    32   23   24 2
    33   23   25 1
    34   23   26 1
    35   26   27 1
    36   27   28 2
    37   27   29 1
    38   27   30 1
    39   30   31 1
    40   31   32 2
    41   31   33 1
    42   31   34 1
    43   35   41 1
    44   36   42 1
    45   37   43 1
    46   37   44 1
@<TRIPOS>MOLECULE
ZINC15878789
   46    48     0     0     0
SMALL
USER_CHARGES
[(2R,3S,4R,5R)-5-(2-amino-6-oxo-1H-purin-9-yl)-3,4-dihydroxy-tetrahydrofuran-2-yl]methyl [dihydroxyphosphinothioyloxy(hydroxy)phosphoryl] hydrogen phosphate
@<TRIPOS>ATOM
      1 C1          0.4582   -3.4564   -6.1726 C.2       1 <0>         0.2311
      2 N1         -0.3037   -4.4809   -6.4226 N.2       1 <0>        -0.4268
      3 C2          0.4030   -5.4076   -7.1144 C.2       1 <0>        -0.1527
      4 C3          0.1022   -6.6866   -7.6384 C.2       1 <0>         0.5988
      5 O1         -1.0076   -7.1724   -7.5020 O.2       1 <0>        -0.5214
      6 N2          1.0756   -7.3564   -8.2945 N.am      1 <0>        -0.6724
      7 H1          0.8714   -8.3530   -8.7130 H         1 <0>         0.4365
      8 C4          2.3127   -6.8035   -8.4416 C.2       1 <0>         0.6497
      9 N3          2.6048   -5.6164   -7.9590 N.2       1 <0>        -0.5724
     10 C5          1.6921   -4.8945   -7.2984 C.2       1 <0>         0.3168
     11 N4          1.7000   -3.6641   -6.6993 N.pl3     1 <0>        -0.4557
     12 C6          2.8358   -2.7414   -6.6303 C.3       1 <0>         0.3134
     13 H2          3.7183   -3.3861   -6.5054 H         1 <0>         0.1189
     14 C7          2.8506   -1.7959   -7.8584 C.3       1 <0>         0.0981
     15 H3          1.8710   -1.5737   -8.3068 H         1 <0>         0.0943
     16 C8          3.6384   -0.5769   -7.3197 C.3       1 <0>         0.0649
     17 H4          3.3230    0.3940   -7.7294 H         1 <0>         0.0890
     18 C9          3.5139   -0.6935   -5.7882 C.3       1 <0>         0.0511
     19 H5          4.4831   -0.8591   -5.2950 H         1 <0>         0.1011
     20 O2          2.6908   -1.8393   -5.5124 O.3       1 <0>        -0.3417
     21 C10         2.8573    0.5672   -5.2222 C.3       1 <0>         0.1307
     22 O3          2.8365    0.4937   -3.7952 O.3       1 <0>        -0.7634
     23 P1          2.2161    1.6533   -2.8664 P.3       1 <0>         2.2964
     24 O4          0.8190    1.9189   -3.2762 O.2       1 <0>        -1.0880
     25 O5          3.0882    2.9966   -3.0307 O.3       1 <0>        -1.1173
     26 O6          2.2434    1.1805   -1.3277 O.3       1 <0>        -1.0919
     27 P2          1.4507    1.6376   -0.0030 P.3       1 <0>         2.3098
     28 O7          1.3138    3.1113    0.0062 O.2       1 <0>        -1.0660
     29 O8         -0.0110    0.9628    0.0073 O.3       1 <0>        -1.0623
     30 O9          2.2685    1.1664    1.3013 O.3       1 <0>        -1.0485
     31 P3          2.2012    1.5514    2.8631 P.3       1 <0>         2.5266
     32 S1          0.5091    1.1462    3.5304 S.2       1 <0>        -1.3180
     33 O10         3.3120    0.7117    3.6713 O.3       1 <0>        -0.8852
     34 O11         2.4850    3.1263    3.0404 O.3       1 <0>        -0.8793
     35 O12         5.0090   -0.6519   -7.7173 O.3       1 <0>        -0.5852
     36 O13         3.5338   -2.3997   -8.9587 O.3       1 <0>        -0.5685
     37 N5          3.2814   -7.5069   -9.1125 N.pl3     1 <0>        -0.8503
     38 H6          0.1530   -2.5730   -5.6315 H         1 <0>         0.2284
     39 H7          3.4312    1.4517   -5.5355 H         1 <0>         0.0709
     40 H8          1.8273    0.6456   -5.6004 H         1 <0>         0.0666
     41 H9          3.4168    0.8422    4.7585 H         1 <0>         0.4836
     42 H10         2.4803    3.5764    4.0441 H         1 <0>         0.4814
     43 H11         5.7127    0.1386   -7.4175 H         1 <0>         0.4160
     44 H12         3.6325   -1.8562   -9.9100 H         1 <0>         0.4090
     45 H13         4.2852   -7.0756   -9.2403 H         1 <0>         0.4517
     46 H14         3.0541   -8.5020   -9.5224 H         1 <0>         0.4321
@<TRIPOS>BOND
     1    1   11 1
     2    1    2 2
     3    1   38 1
     4    2    3 1
     5    3   10 2
     6    3    4 1
     7    4    5 2
     8    4    6 am
     9    6    7 1
    10    6    8 1
    11    8    9 2
    12    8   37 1
    13    9   10 1
    14   10   11 1
    15   11   12 1
    16   12   13 1
    17   12   20 1
    18   12   14 1
    19   14   15 1
    20   14   16 1
    21   14   36 1
    22   16   17 1
    23   16   18 1
    24   16   35 1
    25   18   19 1
    26   18   20 1
    27   18   21 1
    28   21   22 1
    29   21   39 1
    30   21   40 1
    31   22   23 1
    32   23   24 2
    33   23   25 1
    34   23   26 1
    35   26   27 1
    36   27   28 2
    37   27   29 1
    38   27   30 1
    39   30   31 1
    40   31   32 2
    41   31   33 1
    42   31   34 1
    43   33   41 1
    44   34   42 1
    45   35   43 1
    46   36   44 1
    47   37   45 1
    48   37   46 1
@<TRIPOS>MOLECULE
ZINC16052058
   46    48     0     0     0
SMALL
USER_CHARGES
[(2R,3S,4R,5R)-5-(2-amino-6-oxo-1H-purin-9-yl)-3,4-dihydroxy-tetrahydrofuran-2-yl]methyl [dihydroxyphosphinothioyloxy(hydroxy)phosphoryl] hydrogen phosphate
@<TRIPOS>ATOM
      1 C1          0.6319    3.8738    1.2988 C.2       1 <0>         0.2295
      2 N1          1.0714    5.0747    1.5383 N.2       1 <0>        -0.4275
      3 C2          2.2487    5.2587    0.8926 C.2       1 <0>        -0.1533
      4 C3          3.1565    6.3385    0.7876 C.2       1 <0>         0.5994
      5 O1          2.9423    7.3928    1.3611 O.2       1 <0>        -0.5217
      6 N2          4.2673    6.1722    0.0360 N.am      1 <0>        -0.6724
      7 H1          4.9915    6.9940   -0.0645 H         1 <0>         0.4375
      8 C4          4.4970    4.9890   -0.6005 C.2       1 <0>         0.6521
      9 N3          3.6613    3.9785   -0.5112 N.2       1 <0>        -0.5752
     10 C5          2.5411    4.0695    0.2151 C.2       1 <0>         0.3171
     11 N4          1.5098    3.2128    0.4894 N.pl3     1 <0>        -0.4550
     12 C6          1.3704    1.8394   -0.0011 C.3       1 <0>         0.3088
     13 H2          1.7557    1.8487   -1.0314 H         1 <0>         0.1187
     14 C7          2.0729    0.8522    0.9571 C.3       1 <0>         0.1004
     15 H3          2.2969    1.2613    1.9533 H         1 <0>         0.0841
     16 C8          1.1520   -0.3885    0.9592 C.3       1 <0>         0.0672
     17 H4          0.8281   -0.7191    1.9571 H         1 <0>         0.0880
     18 C9          0.0021   -0.0041    0.0020 C.3       1 <0>         0.0486
     19 H5          0.1413   -0.3570   -1.0305 H         1 <0>         0.1033
     20 O2         -0.0175    1.4400    0.0100 O.3       1 <0>        -0.3410
     21 C10        -1.3278   -0.5576    0.5178 C.3       1 <0>         0.1338
     22 O3         -2.3700   -0.2279   -0.4027 O.3       1 <0>        -0.7645
     23 P1         -3.9061   -0.6539   -0.1772 P.3       1 <0>         2.2866
     24 O4         -4.3650   -0.1654    1.1423 O.2       1 <0>        -1.0824
     25 O5         -4.0313   -2.2582   -0.2287 O.3       1 <0>        -1.1111
     26 O6         -4.8180   -0.0070   -1.3357 O.3       1 <0>        -1.0916
     27 P2         -6.3913    0.3041   -1.4779 P.3       1 <0>         2.3032
     28 O7         -6.8855    0.9283   -0.2303 O.2       1 <0>        -1.0582
     29 O8         -7.1881   -1.0695   -1.7430 O.3       1 <0>        -1.0632
     30 O9         -6.6300    1.3098   -2.7123 O.3       1 <0>        -1.0478
     31 P3         -7.8276    2.3004   -3.1323 P.3       1 <0>         2.5266
     32 S1         -9.3928    1.3171   -3.3693 S.2       1 <0>        -1.3193
     33 O10        -8.0514    3.3940   -1.9722 O.3       1 <0>        -0.8798
     34 O11        -7.4493    3.0468   -4.5077 O.3       1 <0>        -0.8852
     35 O12         1.8522   -1.5326    0.4666 O.3       1 <0>        -0.5898
     36 O13         3.3709    0.5115    0.4661 O.3       1 <0>        -0.5697
     37 N5          5.6335    4.8490   -1.3568 N.pl3     1 <0>        -0.8491
     38 H6         -0.2886    3.4611    1.6845 H         1 <0>         0.2267
     39 H7         -1.2568   -1.6510    0.6151 H         1 <0>         0.0732
     40 H8         -1.5526   -0.1159    1.4998 H         1 <0>         0.0660
     41 H9         -8.8327    4.1605   -2.0822 H         1 <0>         0.4817
     42 H10        -8.1508    3.7673   -4.9534 H         1 <0>         0.4837
     43 H11         1.3409   -2.5043    0.4012 H         1 <0>         0.4224
     44 H12         4.0076   -0.1846    1.0317 H         1 <0>         0.4131
     45 H13         5.8345    3.9010   -1.8772 H         1 <0>         0.4530
     46 H14         6.3435    5.6848   -1.4426 H         1 <0>         0.4331
@<TRIPOS>BOND
     1    1   11 1
     2    1    2 2
     3    1   38 1
     4    2    3 1
     5    3   10 2
     6    3    4 1
     7    4    5 2
     8    4    6 am
     9    6    7 1
    10    6    8 1
    11    8    9 2
    12    8   37 1
    13    9   10 1
    14   10   11 1
    15   11   12 1
    16   12   13 1
    17   12   20 1
    18   12   14 1
    19   14   15 1
    20   14   16 1
    21   14   36 1
    22   16   17 1
    23   16   18 1
    24   16   35 1
    25   18   19 1
    26   18   20 1
    27   18   21 1
    28   21   22 1
    29   21   39 1
    30   21   40 1
    31   22   23 1
    32   23   24 2
    33   23   25 1
    34   23   26 1
    35   26   27 1
    36   27   28 2
    37   27   29 1
    38   27   30 1
    39   30   31 1
    40   31   32 2
    41   31   33 1
    42   31   34 1
    43   33   41 1
    44   34   42 1
    45   35   43 1
    46   36   44 1
    47   37   45 1
    48   37   46 1
@<TRIPOS>MOLECULE
ZINC13580323
   56    60     0     0     0
SMALL
USER_CHARGES
cyclopropylmethyl-dimethoxy-BLAHone
@<TRIPOS>ATOM
      1 C1          3.6706    6.1544   -2.9214 C.3       1 <0>         0.0101
      2 O1          2.5897    5.4445   -2.3133 O.3       1 <0>        -0.2962
      3 C2          2.2092    4.2792   -2.9000 C.ar      1 <0>         0.1487
      4 C3          2.8651    3.8325   -4.0359 C.ar      1 <0>        -0.1930
      5 C4          2.4751    2.6467   -4.6272 C.ar      1 <0>        -0.0612
      6 C5          1.4325    1.9191   -4.0912 C.ar      1 <0>        -0.1492
      7 C6          0.7659    2.3652   -2.9559 C.ar      1 <0>        -0.0643
      8 C7          1.1631    3.5398   -2.3573 C.ar      1 <0>        -0.1255
      9 C8          0.4925    4.0573   -1.1111 C.3       1 <0>         0.0178
     10 C9          1.2797    3.5371    0.1018 C.3       1 <0>        -0.1301
     11 C10         1.3438    2.0089    0.0000 C.3       1 <0>        -0.0049
     12 C11        -0.8479    1.9813   -1.0690 C.3       1 <0>         0.0018
     13 H1         -1.8552    1.5877   -0.9332 H         1 <0>         0.1354
     14 C12        -0.3722    1.5283   -2.4382 C.3       1 <0>        -0.0880
     15 C13        -0.9342    3.5106   -1.0319 C.3       1 <0>         0.1189
     16 C14        -1.7422    3.9848   -2.2430 C.3       1 <0>        -0.1390
     17 C15        -1.8447    5.5125   -2.2300 C.3       1 <0>        -0.1573
     18 C16        -0.4442    6.0835   -2.1794 C.2       1 <0>         0.3617
     19 O2         -0.0812    6.9133   -2.9781 O.2       1 <0>        -0.4336
     20 C17         0.4870    5.5828   -1.0979 C.3       1 <0>        -0.1728
     21 O3         -1.5545    3.9364    0.1830 O.3       1 <0>        -0.3595
     22 C18        -2.8960    3.4713    0.3447 C.3       1 <0>         0.0066
     23 C19         0.0021   -0.0041    0.0020 C.3       1 <0>         0.0250
     24 C20         0.6072   -0.5131    1.3118 C.3       1 <0>        -0.2118
     25 C21         1.9187   -1.2964    1.2268 C.3       1 <0>        -0.1667
     26 C22         0.6112   -2.0248    1.5477 C.3       1 <0>        -0.1490
     27 H2          3.4032    6.4157   -3.9453 H         1 <0>         0.0630
     28 H3          3.8723    7.0637   -2.3553 H         1 <0>         0.1076
     29 H4          4.5607    5.5253   -2.9276 H         1 <0>         0.0610
     30 H5          3.6762    4.4082   -4.4566 H         1 <0>         0.1395
     31 H6          2.9861    2.2890   -5.5089 H         1 <0>         0.1357
     32 H7          1.1313    0.9931   -4.5584 H         1 <0>         0.1311
     33 H8          0.7717    3.8246    1.0223 H         1 <0>         0.1041
     34 H9          2.2883    3.9502    0.0917 H         1 <0>         0.1185
     35 H10         1.9009    1.6108    0.8481 H         1 <0>         0.1315
     36 H11         1.8417    1.7260   -0.9274 H         1 <0>         0.1338
     37 H12        -0.0458    0.4903   -2.3728 H         1 <0>         0.1030
     38 H13        -1.2042    1.5912   -3.1395 H         1 <0>         0.1262
     39 H14        -1.2462    3.6625   -3.1585 H         1 <0>         0.0963
     40 H15        -2.7429    3.5547   -2.2021 H         1 <0>         0.0909
     41 H16        -2.3132    5.8222   -3.0574 H         1 <0>         0.0885
     42 H17        -2.4049    5.8355   -1.3526 H         1 <0>         0.1062
     43 H18         0.1730    5.9073   -0.2056 H         1 <0>         0.0997
     44 H19         1.4952    5.9524   -1.2852 H         1 <0>         0.1503
     45 H20        -3.2958    3.8371    1.2905 H         1 <0>         0.1084
     46 H21        -3.5101    3.8407   -0.4766 H         1 <0>         0.0638
     47 H22        -2.9053    2.3813    0.3437 H         1 <0>         0.0418
     48 H23        -1.0158   -0.3807   -0.0985 H         1 <0>         0.1302
     49 H24         0.6037   -0.3547   -0.8366 H         1 <0>         0.1329
     50 H25         0.4610    0.1311    2.1789 H         1 <0>         0.1249
     51 H26         2.3505   -1.4491    0.2376 H         1 <0>         0.1056
     52 H27         2.6353   -1.1678    2.0380 H         1 <0>         0.1102
     53 H28         0.4681   -2.3751    2.5699 H         1 <0>         0.1122
     54 H29         0.1824   -2.6567    0.7698 H         1 <0>         0.1072
     55 N1         -0.0347    1.4638    0.0516 N.4       1 <0>        -0.3785
     56 H30        -0.4694    1.7548    0.9351 H         1 <0>         0.4305
@<TRIPOS>BOND
     1    1    2 1
     2    1   27 1
     3    1   28 1
     4    1   29 1
     5    2    3 1
     6    3    8 ar
     7    3    4 ar
     8    4    5 ar
     9    4   30 1
    10    5    6 ar
    11    5   31 1
    12    6    7 ar
    13    6   32 1
    14    7   14 1
    15    7    8 ar
    16    8    9 1
    17    9   15 1
    18    9   20 1
    19    9   10 1
    20   10   11 1
    21   10   33 1
    22   10   34 1
    23   11   35 1
    24   11   36 1
    25   11   55 1
    26   12   13 1
    27   12   14 1
    28   12   15 1
    29   12   55 1
    30   14   37 1
    31   14   38 1
    32   15   16 1
    33   15   21 1
    34   16   17 1
    35   16   39 1
    36   16   40 1
    37   17   18 1
    38   17   41 1
    39   17   42 1
    40   18   19 2
    41   18   20 1
    42   20   43 1
    43   20   44 1
    44   21   22 1
    45   22   45 1
    46   22   46 1
    47   22   47 1
    48   23   24 1
    49   23   48 1
    50   23   49 1
    51   23   55 1
    52   24   26 1
    53   24   25 1
    54   24   50 1
    55   25   26 1
    56   25   51 1
    57   25   52 1
    58   26   53 1
    59   26   54 1
    60   55   56 1
@<TRIPOS>MOLECULE
ZINC00967961
   48    51     0     0     0
SMALL
USER_CHARGES
N-[[6-(2-fluorophenyl)-2-methyl-2,5-diazabicyclo[5.4.0]undeca-5,8,10,12-tetraen-3-yl]methyl]thiophene-3-carboxamide
@<TRIPOS>ATOM
      1 C1          0.4780   -2.0200    0.9728 C.3       1 <0>         0.0140
      2 N1          0.8295   -0.5987    0.8524 N.pl3     1 <0>        -0.4887
      3 C2          0.6300    0.0672    2.0555 C.ar      1 <0>         0.1220
      4 C3         -0.2090   -0.4516    3.0299 C.ar      1 <0>        -0.1594
      5 C4         -0.3719    0.2208    4.2255 C.ar      1 <0>        -0.0831
      6 C5          0.2974    1.4111    4.4595 C.ar      1 <0>        -0.1327
      7 C6          1.1294    1.9448    3.4969 C.ar      1 <0>        -0.0784
      8 C7          1.2951    1.2812    2.2838 C.ar      1 <0>        -0.1088
      9 C8          2.1419    1.8478    1.2141 C.2       1 <0>         0.2593
     10 N2          1.6539    1.9319    0.0031 N.2       1 <0>        -0.4770
     11 C9          0.2634    1.5423   -0.2360 C.3       1 <0>         0.0362
     12 C10         0.1072    0.0278   -0.2542 C.3       1 <0>         0.0768
     13 H1          0.4946   -0.3590   -1.1968 H         1 <0>         0.1045
     14 C11        -1.3778   -0.3231   -0.1427 C.3       1 <0>         0.0882
     15 N3         -2.0884    0.1803   -1.3208 N.am      1 <0>        -0.7235
     16 C12        -3.4302    0.0773   -1.3934 C.2       1 <0>         0.5761
     17 O1         -4.0513   -0.4335   -0.4808 O.2       1 <0>        -0.5337
     18 C13        -4.1441    0.5830   -2.5771 C.2       1 <0>        -0.1769
     19 C14        -5.5776    0.4844   -2.6905 C.2       1 <0>        -0.1113
     20 C15        -6.1397    0.9811   -3.8099 C.2       1 <0>        -0.1908
     21 S1         -4.7390    1.5774   -4.7345 S.3       1 <0>         0.1330
     22 C16        -3.4703    1.1672   -3.6296 C.2       1 <0>        -0.1745
     23 C17         3.5169    2.3122    1.5070 C.ar      1 <0>        -0.0907
     24 C18         4.0253    2.2236    2.8032 C.ar      1 <0>        -0.0665
     25 C19         5.3088    2.6525    3.0688 C.ar      1 <0>        -0.1370
     26 C20         6.0900    3.1811    2.0557 C.ar      1 <0>        -0.0729
     27 C21         5.5926    3.2780    0.7697 C.ar      1 <0>        -0.1650
     28 C22         4.3092    2.8464    0.4879 C.ar      1 <0>         0.1451
     29 F1          3.8230    2.9416   -0.7690 F         1 <0>        -0.1138
     30 H2          0.6447   -2.5177    0.0175 H         1 <0>         0.0804
     31 H3          1.1000   -2.4845    1.7379 H         1 <0>         0.0816
     32 H4         -0.5715   -2.1123    1.2524 H         1 <0>         0.0480
     33 H5         -0.7339   -1.3791    2.8546 H         1 <0>         0.1322
     34 H6         -1.0261   -0.1842    4.9834 H         1 <0>         0.1283
     35 H7          0.1673    1.9240    5.4010 H         1 <0>         0.1300
     36 H8          1.6493    2.8729    3.6831 H         1 <0>         0.1335
     37 H9         -0.0602    1.9458   -1.1955 H         1 <0>         0.0975
     38 H10        -0.3638    1.9561    0.5535 H         1 <0>         0.0622
     39 H11        -1.4920   -1.4055   -0.0844 H         1 <0>         0.0799
     40 H12        -1.7929    0.1349    0.7551 H         1 <0>         0.0754
     41 H13        -1.5931    0.5876   -2.0486 H         1 <0>         0.4004
     42 H14        -6.1753    0.0362   -1.9107 H         1 <0>         0.1496
     43 H15        -7.1844    1.0070   -4.0823 H         1 <0>         0.1926
     44 H16        -2.4082    1.3297   -3.7381 H         1 <0>         0.1899
     45 H17         3.4161    1.8160    3.5964 H         1 <0>         0.1389
     46 H18         5.7040    2.5802    4.0713 H         1 <0>         0.1344
     47 H19         7.0927    3.5197    2.2711 H         1 <0>         0.1356
     48 H20         6.2070    3.6917   -0.0163 H         1 <0>         0.1394
@<TRIPOS>BOND
     1    1    2 1
     2    1   30 1
     3    1   31 1
     4    1   32 1
     5    2   12 1
     6    2    3 1
     7    3    8 ar
     8    3    4 ar
     9    4    5 ar
    10    4   33 1
    11    5    6 ar
    12    5   34 1
    13    6    7 ar
    14    6   35 1
    15    7    8 ar
    16    7   36 1
    17    8    9 1
    18    9   10 2
    19    9   23 1
    20   10   11 1
    21   11   12 1
    22   11   37 1
    23   11   38 1
    24   12   13 1
    25   12   14 1
    26   14   15 1
    27   14   39 1
    28   14   40 1
    29   15   16 am
    30   15   41 1
    31   16   17 2
    32   16   18 1
    33   18   22 2
    34   18   19 1
    35   19   20 2
    36   19   42 1
    37   20   21 1
    38   20   43 1
    39   21   22 1
    40   22   44 1
    41   23   28 ar
    42   23   24 ar
    43   24   25 ar
    44   24   45 1
    45   25   26 ar
    46   25   46 1
    47   26   27 ar
    48   26   47 1
    49   27   28 ar
    50   27   48 1
    51   28   29 1
@<TRIPOS>MOLECULE
ZINC01532369
   48    51     0     0     0
SMALL
USER_CHARGES
N-[[6-(2-fluorophenyl)-2-methyl-2,5-diazabicyclo[5.4.0]undeca-5,8,10,12-tetraen-3-yl]methyl]thiophene-3-carboxamide
@<TRIPOS>ATOM
      1 C1          0.1112    6.1537   -2.9488 C.3       1 <0>         0.0191
      2 N1          0.7416    5.5385   -1.7731 N.pl3     1 <0>        -0.4961
      3 C2         -0.2053    5.2351   -0.8017 C.ar      1 <0>         0.1287
      4 C3         -1.4465    5.8523   -0.7941 C.ar      1 <0>        -0.1599
      5 C4         -2.3777    5.5111    0.1676 C.ar      1 <0>        -0.0836
      6 C5         -2.0804    4.5550    1.1252 C.ar      1 <0>        -0.1343
      7 C6         -0.8456    3.9398    1.1378 C.ar      1 <0>        -0.0774
      8 C7          0.1059    4.2816    0.1736 C.ar      1 <0>        -0.1100
      9 C8          1.4455    3.6605    0.1822 C.2       1 <0>         0.2579
     10 N2          2.4967    4.4336    0.0990 N.2       1 <0>        -0.4722
     11 C9          2.3148    5.8861    0.0961 C.3       1 <0>         0.0326
     12 C10         1.8204    6.3804   -1.2559 C.3       1 <0>         0.0786
     13 H1          1.4553    7.4020   -1.1499 H         1 <0>         0.0643
     14 C11         2.9839    6.3662   -2.2494 C.3       1 <0>         0.1304
     15 N3          3.9926    7.3440   -1.8341 N.am      1 <0>        -0.7251
     16 C12         5.0688    7.5740   -2.6122 C.2       1 <0>         0.5767
     17 O1          5.2024    6.9697   -3.6594 O.2       1 <0>        -0.5315
     18 C13         6.0823    8.5564   -2.1949 C.2       1 <0>        -0.1733
     19 C14         7.2452    8.8272   -3.0023 C.2       1 <0>        -0.1108
     20 C15         8.1157    9.7437   -2.5356 C.2       1 <0>        -0.1903
     21 S1          7.3774   10.2551   -0.9975 S.3       1 <0>         0.1285
     22 C16         5.9584    9.2629   -1.0166 C.2       1 <0>        -0.1762
     23 C17         1.5953    2.1905    0.2769 C.ar      1 <0>        -0.0910
     24 C18         0.4666    1.3753    0.3652 C.ar      1 <0>        -0.0667
     25 C19         0.6124    0.0067    0.4527 C.ar      1 <0>        -0.1374
     26 C20         1.8751   -0.5604    0.4528 C.ar      1 <0>        -0.0726
     27 C21         2.9990    0.2395    0.3662 C.ar      1 <0>        -0.1650
     28 C22         2.8676    1.6135    0.2783 C.ar      1 <0>         0.1457
     29 F1          3.9662    2.3953    0.1941 F         1 <0>        -0.1130
     30 H2          0.8279    6.1875   -3.7694 H         1 <0>         0.0821
     31 H3         -0.7552    5.5634   -3.2471 H         1 <0>         0.0812
     32 H4         -0.2068    7.1667   -2.7022 H         1 <0>         0.0414
     33 H5         -1.6849    6.5983   -1.5378 H         1 <0>         0.1307
     34 H6         -3.3441    5.9932    0.1732 H         1 <0>         0.1279
     35 H7         -2.8199    4.2895    1.8662 H         1 <0>         0.1298
     36 H8         -0.6180    3.1959    1.8869 H         1 <0>         0.1339
     37 H9          1.5880    6.1562    0.8622 H         1 <0>         0.0628
     38 H10         3.2669    6.3652    0.3246 H         1 <0>         0.0983
     39 H11         3.4296    5.3718   -2.2727 H         1 <0>         0.0852
     40 H12         2.6164    6.6230   -3.2430 H         1 <0>         0.0758
     41 H13         3.8861    7.8259   -0.9990 H         1 <0>         0.3963
     42 H14         7.4117    8.3177   -3.9399 H         1 <0>         0.1502
     43 H15         9.0368   10.0848   -2.9845 H         1 <0>         0.1924
     44 H16         5.1681    9.2089   -0.2824 H         1 <0>         0.1883
     45 H17        -0.5199    1.8150    0.3604 H         1 <0>         0.1386
     46 H18        -0.2613   -0.6245    0.5210 H         1 <0>         0.1342
     47 H19         1.9826   -1.6328    0.5213 H         1 <0>         0.1355
     48 H20         3.9814   -0.2091    0.3668 H         1 <0>         0.1393
@<TRIPOS>BOND
     1    1    2 1
     2    1   30 1
     3    1   31 1
     4    1   32 1
     5    2   12 1
     6    2    3 1
     7    3    8 ar
     8    3    4 ar
     9    4    5 ar
    10    4   33 1
    11    5    6 ar
    12    5   34 1
    13    6    7 ar
    14    6   35 1
    15    7    8 ar
    16    7   36 1
    17    8    9 1
    18    9   10 2
    19    9   23 1
    20   10   11 1
    21   11   12 1
    22   11   37 1
    23   11   38 1
    24   12   13 1
    25   12   14 1
    26   14   15 1
    27   14   39 1
    28   14   40 1
    29   15   16 am
    30   15   41 1
    31   16   17 2
    32   16   18 1
    33   18   22 2
    34   18   19 1
    35   19   20 2
    36   19   42 1
    37   20   21 1
    38   20   43 1
    39   21   22 1
    40   22   44 1
    41   23   28 ar
    42   23   24 ar
    43   24   25 ar
    44   24   45 1
    45   25   26 ar
    46   25   46 1
    47   26   27 ar
    48   26   47 1
    49   27   28 ar
    50   27   48 1
    51   28   29 1
@<TRIPOS>MOLECULE
ZINC12952544
   58    61     0     0     0
SMALL
USER_CHARGES

@<TRIPOS>ATOM
      1 C1          0.9395    1.5858   -0.2112 C.3       1 <0>         0.0303
      2 N1          0.7906    0.1289   -0.3262 N.3       1 <0>        -0.5039
      3 C2         -0.6174   -0.2434   -0.5063 C.3       1 <0>         0.0747
      4 C3         -0.7081   -1.7432   -0.8324 C.3       1 <0>        -0.0772
      5 C4          0.1432   -2.0088   -2.0849 C.3       1 <0>         0.1689
      6 H1         -0.2721   -1.4603   -2.9304 H         1 <0>         0.1177
      7 N2          1.5189   -1.5609   -1.8384 N.3       1 <0>        -0.4643
      8 C5          2.1666   -2.3189   -0.7615 C.3       1 <0>         0.1684
      9 H2          3.2015   -1.9926   -0.6584 H         1 <0>         0.1173
     10 C6          1.4159   -2.0697    0.5569 C.3       1 <0>        -0.0772
     11 C7          1.4053   -0.5545    0.8179 C.3       1 <0>         0.0749
     12 C8         -0.0329   -2.4814    0.3185 C.2       1 <0>         0.4141
     13 O1         -0.5961   -3.3178    0.9829 O.2       1 <0>        -0.3802
     14 C9          2.0390   -2.8258    1.7020 C.2       1 <0>         0.5061
     15 O2          3.0098   -3.5193    1.5108 O.2       1 <0>        -0.4885
     16 O3          1.5156   -2.7288    2.9342 O.3       1 <0>        -0.3442
     17 C10         2.1572   -3.4727    3.9720 C.3       1 <0>         0.0384
     18 C11         2.1331   -3.7892   -1.0905 C.ar      1 <0>         0.0938
     19 C12         2.8306   -4.2599   -2.1871 C.ar      1 <0>        -0.1690
     20 C13         2.7932   -5.6142   -2.4810 C.ar      1 <0>        -0.0733
     21 C14         2.0522   -6.4481   -1.6572 C.ar      1 <0>        -0.1654
     22 C15         1.3805   -5.9054   -0.5785 C.ar      1 <0>         0.1076
     23 N3          1.4430   -4.6124   -0.3259 N.ar      1 <0>        -0.4476
     24 C16         2.3173   -1.6099   -3.0705 C.3       1 <0>        -0.0118
     25 C17         0.1406   -3.4842   -2.3918 C.ar      1 <0>         0.0930
     26 C18         0.7649   -3.9452   -3.5356 C.ar      1 <0>        -0.1683
     27 C19         0.7567   -5.3043   -3.8087 C.ar      1 <0>        -0.0729
     28 C20         0.1179   -6.1527   -2.9170 C.ar      1 <0>        -0.1652
     29 C21        -0.4849   -5.6192   -1.7939 C.ar      1 <0>         0.1074
     30 N4         -0.4527   -4.3210   -1.5633 N.ar      1 <0>        -0.4481
     31 C22        -2.1369   -2.1862   -1.0150 C.2       1 <0>         0.5062
     32 O4         -2.4919   -2.6627   -2.0670 O.2       1 <0>        -0.4893
     33 O5         -3.0152   -2.0513   -0.0089 O.3       1 <0>        -0.3437
     34 C23        -4.3526   -2.4921   -0.2518 C.3       1 <0>         0.0384
     35 H3          1.9986    1.8414   -0.1792 H         1 <0>         0.0747
     36 H4          0.4753    2.0675   -1.0718 H         1 <0>         0.0740
     37 H5          0.4550    1.9295    0.7027 H         1 <0>         0.0259
     38 H6         -1.1688   -0.0364    0.4109 H         1 <0>         0.0533
     39 H7         -1.0444    0.3339   -1.3264 H         1 <0>         0.0960
     40 H8          2.4280   -0.2001    0.9470 H         1 <0>         0.0958
     41 H9          0.8299   -0.3444    1.7195 H         1 <0>         0.0536
     42 H10         2.1330   -4.5344    3.7262 H         1 <0>         0.0599
     43 H11         3.1925   -3.1452    4.0670 H         1 <0>         0.0590
     44 H12         1.6355   -3.3059    4.9144 H         1 <0>         0.1019
     45 H13         3.3974   -3.5812   -2.8072 H         1 <0>         0.1389
     46 H14         3.3282   -6.0103   -3.3315 H         1 <0>         0.1303
     47 H15         2.0005   -7.5083   -1.8565 H         1 <0>         0.1313
     48 H16         0.8012   -6.5481    0.0678 H         1 <0>         0.1485
     49 H17         1.8379   -1.0028   -3.8384 H         1 <0>         0.0802
     50 H18         3.3163   -1.2219   -2.8717 H         1 <0>         0.0803
     51 H19         2.3901   -2.6412   -3.4156 H         1 <0>         0.0588
     52 H20         1.2526   -3.2552   -4.2083 H         1 <0>         0.1387
     53 H21         1.2360   -5.6930   -4.6949 H         1 <0>         0.1304
     54 H22         0.0916   -7.2171   -3.0982 H         1 <0>         0.1314
     55 H23        -0.9844   -6.2732   -1.0945 H         1 <0>         0.1487
     56 H24        -4.7743   -1.9312   -1.0858 H         1 <0>         0.0590
     57 H25        -4.3465   -3.5547   -0.4947 H         1 <0>         0.0599
     58 H26        -4.9572   -2.3268    0.6400 H         1 <0>         0.1020
@<TRIPOS>BOND
     1    1    2 1
     2    1   35 1
     3    1   36 1
     4    1   37 1
     5    2   11 1
     6    2    3 1
     7    3    4 1
     8    3   38 1
     9    3   39 1
    10    4   12 1
    11    4    5 1
    12    4   31 1
    13    5    6 1
    14    5    7 1
    15    5   25 1
    16    7    8 1
    17    7   24 1
    18    8    9 1
    19    8   10 1
    20    8   18 1
    21   10   11 1
    22   10   12 1
    23   10   14 1
    24   11   40 1
    25   11   41 1
    26   12   13 2
    27   14   15 2
    28   14   16 1
    29   16   17 1
    30   17   42 1
    31   17   43 1
    32   17   44 1
    33   18   23 ar
    34   18   19 ar
    35   19   20 ar
    36   19   45 1
    37   20   21 ar
    38   20   46 1
    39   21   22 ar
    40   21   47 1
    41   22   23 ar
    42   22   48 1
    43   24   49 1
    44   24   50 1
    45   24   51 1
    46   25   30 ar
    47   25   26 ar
    48   26   27 ar
    49   26   52 1
    50   27   28 ar
    51   27   53 1
    52   28   29 ar
    53   28   54 1
    54   29   30 ar
    55   29   55 1
    56   31   32 2
    57   31   33 1
    58   33   34 1
    59   34   56 1
    60   34   57 1
    61   34   58 1
@<TRIPOS>MOLECULE
ZINC12952552
   58    61     0     0     0
SMALL
USER_CHARGES
dimethyl (1S,2S,4S,5R)-3,7-dimethyl-9-oxo-2,4-bis(2-pyridyl)-3,7-diazabicyclo[3.3.1]nonane-1,5-dicarboxylate
@<TRIPOS>ATOM
      1 C1         -3.4441    1.7415    3.3601 C.3       1 <0>         0.0355
      2 N1         -3.5113    2.7667    2.3101 N.3       1 <0>        -0.4895
      3 C2         -4.6992    3.6122    2.4760 C.3       1 <0>         0.0743
      4 C3         -4.8460    4.5272    1.2490 C.3       1 <0>        -0.0868
      5 C4         -4.9190    3.6358   -0.0017 C.3       1 <0>         0.1721
      6 H1         -5.7956    2.9720    0.0287 H         1 <0>         0.1234
      7 N2         -3.7221    2.7888   -0.0624 N.3       1 <0>        -0.4717
      8 C5         -2.4917    3.5735   -0.2169 C.3       1 <0>         0.1678
      9 H2         -2.5937    4.1766   -1.1311 H         1 <0>         0.0886
     10 C6         -2.2979    4.4623    1.0227 C.3       1 <0>        -0.0761
     11 C7         -2.2719    3.5509    2.2608 C.3       1 <0>         0.0728
     12 C8         -3.5503    5.3241    1.1417 C.2       1 <0>         0.4108
     13 O1         -3.5189    6.5313    1.1498 O.2       1 <0>        -0.4075
     14 C9         -1.0524    5.3037    0.9132 C.2       1 <0>         0.4934
     15 O2         -0.3524    5.2218   -0.0682 O.2       1 <0>        -0.4880
     16 O3         -0.7208    6.1440    1.9059 O.3       1 <0>        -0.3469
     17 C10         0.4922    6.9232    1.7325 C.3       1 <0>         0.0339
     18 C11        -1.3152    2.6423   -0.3573 C.ar      1 <0>         0.1389
     19 C12        -0.5295    2.7007   -1.4930 C.ar      1 <0>        -0.1379
     20 C13         0.5470    1.8358   -1.6148 C.ar      1 <0>        -0.0776
     21 C14         0.8006    0.9479   -0.5803 C.ar      1 <0>        -0.1699
     22 C15        -0.0254    0.9510    0.5275 C.ar      1 <0>         0.0902
     23 N3         -1.0443    1.7847    0.6069 N.ar      1 <0>        -0.4481
     24 C16        -3.8422    1.7832   -1.1266 C.3       1 <0>         0.0277
     25 C17        -4.9871    4.5015   -1.2334 C.ar      1 <0>         0.0846
     26 C18        -5.9626    4.2626   -2.1832 C.ar      1 <0>        -0.1344
     27 C19        -6.0168    5.0650   -3.3123 C.ar      1 <0>        -0.0725
     28 C20        -5.0837    6.0822   -3.4446 C.ar      1 <0>        -0.1658
     29 C21        -4.1375    6.2610   -2.4536 C.ar      1 <0>         0.1035
     30 N4         -4.1189    5.4814   -1.3900 N.ar      1 <0>        -0.4843
     31 C22        -6.0472    5.4308    1.3575 C.2       1 <0>         0.4927
     32 O4         -6.9193    5.3793    0.5228 O.2       1 <0>        -0.4885
     33 O5         -6.1482    6.2929    2.3813 O.3       1 <0>        -0.3449
     34 C23        -7.3323    7.1323    2.4219 C.3       1 <0>         0.0339
     35 H3         -4.3837    1.1698    3.3750 H         1 <0>         0.0702
     36 H4         -3.2940    2.2258    4.3363 H         1 <0>         0.0202
     37 H5         -2.6042    1.0613    3.1552 H         1 <0>         0.0795
     38 H6         -5.5917    2.9761    2.5703 H         1 <0>         0.0986
     39 H7         -4.5889    4.2258    3.3822 H         1 <0>         0.0514
     40 H8         -2.1905    4.1655    3.1695 H         1 <0>         0.0398
     41 H9         -1.4097    2.8706    2.1999 H         1 <0>         0.1271
     42 H10         0.6446    7.5651    2.6127 H         1 <0>         0.1055
     43 H11         0.4000    7.5499    0.8332 H         1 <0>         0.0657
     44 H12         1.3508    6.2448    1.6203 H         1 <0>         0.0643
     45 H13        -0.7539    3.4083   -2.2774 H         1 <0>         0.1276
     46 H14         1.1760    1.8561   -2.4925 H         1 <0>         0.1324
     47 H15         1.6329    0.2623   -0.6398 H         1 <0>         0.1326
     48 H16         0.1653    0.2626    1.3375 H         1 <0>         0.1558
     49 H17        -2.9336    1.1636   -1.1498 H         1 <0>         0.0741
     50 H18        -3.9665    2.2882   -2.0959 H         1 <0>         0.0230
     51 H19        -4.7164    1.1449   -0.9309 H         1 <0>         0.0792
     52 H20        -6.6733    3.4608   -2.0475 H         1 <0>         0.1353
     53 H21        -6.7678    4.9016   -4.0711 H         1 <0>         0.1362
     54 H22        -5.0965    6.7268   -4.3110 H         1 <0>         0.1360
     55 H23        -3.4072    7.0510   -2.5491 H         1 <0>         0.1543
     56 H24        -7.2879    7.7864    3.3052 H         1 <0>         0.1063
     57 H25        -8.2294    6.4983    2.4798 H         1 <0>         0.0667
     58 H26        -7.3766    7.7481    1.5115 H         1 <0>         0.0642
@<TRIPOS>BOND
     1    1    2 1
     2    1   35 1
     3    1   36 1
     4    1   37 1
     5    2   11 1
     6    2    3 1
     7    3    4 1
     8    3   38 1
     9    3   39 1
    10    4   12 1
    11    4    5 1
    12    4   31 1
    13    5    6 1
    14    5    7 1
    15    5   25 1
    16    7    8 1
    17    7   24 1
    18    8    9 1
    19    8   10 1
    20    8   18 1
    21   10   11 1
    22   10   12 1
    23   10   14 1
    24   11   40 1
    25   11   41 1
    26   12   13 2
    27   14   15 2
    28   14   16 1
    29   16   17 1
    30   17   42 1
    31   17   43 1
    32   17   44 1
    33   18   23 ar
    34   18   19 ar
    35   19   20 ar
    36   19   45 1
    37   20   21 ar
    38   20   46 1
    39   21   22 ar
    40   21   47 1
    41   22   23 ar
    42   22   48 1
    43   24   49 1
    44   24   50 1
    45   24   51 1
    46   25   30 ar
    47   25   26 ar
    48   26   27 ar
    49   26   52 1
    50   27   28 ar
    51   27   53 1
    52   28   29 ar
    53   28   54 1
    54   29   30 ar
    55   29   55 1
    56   31   32 2
    57   31   33 1
    58   33   34 1
    59   34   56 1
    60   34   57 1
    61   34   58 1
@<TRIPOS>MOLECULE
ZINC68197070
   55    57     0     0     0
SMALL
USER_CHARGES

@<TRIPOS>ATOM
      1 C1          0.5838    1.3875   -0.8025 C.3       1 <0>        -0.1528
      2 C2          0.5150   -0.1356   -0.6750 C.3       1 <0>        -0.1189
      3 C3          1.1498   -0.5658    0.6490 C.3       1 <0>        -0.1711
      4 C4         -0.9471   -0.5848   -0.7093 C.3       1 <0>        -0.0084
      5 N1         -1.0087   -2.0525   -0.7075 N.4       1 <0>        -0.5101
      6 C5         -2.4126   -2.4838   -0.7405 C.3       1 <0>         0.0438
      7 C6         -2.4757   -3.9894   -0.7387 C.ar      1 <0>        -0.1532
      8 C7         -2.4699   -4.6808   -1.9367 C.ar      1 <0>        -0.0986
      9 C8         -2.5276   -6.0597   -1.9409 C.ar      1 <0>        -0.0397
     10 C9         -2.5917   -6.7555   -0.7354 C.ar      1 <0>        -0.0772
     11 C10        -2.5972   -6.0539    0.4685 C.ar      1 <0>        -0.0820
     12 C11        -2.5335   -4.6752    0.4612 C.ar      1 <0>        -0.1099
     13 C12        -2.6543   -8.2380   -0.7336 C.ar      1 <0>         0.0356
     14 C13        -1.6357   -8.9803   -0.1392 C.ar      1 <0>        -0.1223
     15 C14        -1.6993  -10.3588   -0.1400 C.ar      1 <0>        -0.0593
     16 C15        -2.7717  -11.0040   -0.7295 C.ar      1 <0>        -0.1270
     17 C16        -3.7852  -10.2723   -1.3212 C.ar      1 <0>        -0.0179
     18 C17        -3.7346   -8.8928   -1.3211 C.ar      1 <0>        -0.6655
     19 S1         -5.0304   -7.9620   -2.0690 S.o2      1 <0>         2.7015
     20 O1         -4.4063   -6.9812   -2.8862 O.2       1 <0>        -0.9490
     21 O2         -5.9611   -8.9036   -2.5851 O.2       1 <0>        -0.9461
     22 N2         -5.8076   -7.1435   -0.8573 N.pl3     1 <0>        -1.0068
     23 C18        -6.9516   -7.6447   -0.0815 C.3       1 <0>         0.1157
     24 C19        -7.3534   -6.5341    0.9118 C.3       1 <0>        -0.1287
     25 C20        -6.7748   -5.2536    0.2540 C.3       1 <0>        -0.1302
     26 C21        -5.4631   -5.7943   -0.3734 C.3       1 <0>         0.1076
     27 H1          1.6255    1.7075   -0.7780 H         1 <0>         0.0776
     28 H2          0.1316    1.6940   -1.7457 H         1 <0>         0.0682
     29 H3          0.0433    1.8462    0.0255 H         1 <0>         0.0681
     30 H4          1.0556   -0.5943   -1.5030 H         1 <0>         0.0938
     31 H5          1.1008   -1.6509    0.7398 H         1 <0>         0.0514
     32 H6          2.1915   -0.2458    0.6734 H         1 <0>         0.0830
     33 H7          0.6093   -0.1071    1.4770 H         1 <0>         0.0728
     34 H8         -1.4666   -0.1983    0.1675 H         1 <0>         0.1328
     35 H9         -1.4237   -0.2022   -1.6119 H         1 <0>         0.1339
     36 H10        -0.5278   -2.4103   -1.5192 H         1 <0>         0.4278
     37 H11        -2.9320   -2.0973    0.1364 H         1 <0>         0.1389
     38 H12        -2.8891   -2.1012   -1.6431 H         1 <0>         0.1401
     39 H13        -2.4206   -4.1405   -2.8706 H         1 <0>         0.1368
     40 H14        -2.5234   -6.5985   -2.8769 H         1 <0>         0.1615
     41 H15        -2.6471   -6.5882    1.4058 H         1 <0>         0.1378
     42 H16        -2.5329   -4.1307    1.3938 H         1 <0>         0.1356
     43 H17        -0.7978   -8.4777    0.3210 H         1 <0>         0.1341
     44 H18        -0.9102  -10.9351    0.3201 H         1 <0>         0.1387
     45 H19        -2.8175  -12.0830   -0.7279 H         1 <0>         0.1406
     46 H20        -4.6198  -10.7811   -1.7806 H         1 <0>         0.1488
     47 H21        -7.7847   -7.8641   -0.7493 H         1 <0>         0.0782
     48 H22        -6.6643   -8.5437    0.4639 H         1 <0>         0.0686
     49 H23        -8.4380   -6.4673    0.9974 H         1 <0>         0.0868
     50 H24        -6.8983   -6.7060    1.8872 H         1 <0>         0.0771
     51 H25        -7.4485   -4.8690   -0.5117 H         1 <0>         0.0789
     52 H26        -6.5620   -4.4913    1.0035 H         1 <0>         0.0821
     53 H27        -4.6754   -5.8504    0.3780 H         1 <0>         0.0728
     54 H28        -5.1515   -5.1614   -1.2043 H         1 <0>         0.0782
     55 H29        -0.5676   -2.4066    0.1280 H         1 <0>         0.4254
@<TRIPOS>BOND
     1    1    2 1
     2    1   27 1
     3    1   28 1
     4    1   29 1
     5    2    3 1
     6    2    4 1
     7    2   30 1
     8    3   31 1
     9    3   32 1
    10    3   33 1
    11    4    5 1
    12    4   34 1
    13    4   35 1
    14    5    6 1
    15    5   36 1
    16    5   55 1
    17    6    7 1
    18    6   37 1
    19    6   38 1
    20    7   12 ar
    21    7    8 ar
    22    8    9 ar
    23    8   39 1
    24    9   10 ar
    25    9   40 1
    26   10   11 ar
    27   10   13 1
    28   11   12 ar
    29   11   41 1
    30   12   42 1
    31   13   18 ar
    32   13   14 ar
    33   14   15 ar
    34   14   43 1
    35   15   16 ar
    36   15   44 1
    37   16   17 ar
    38   16   45 1
    39   17   18 ar
    40   17   46 1
    41   18   19 1
    42   19   20 2
    43   19   21 2
    44   19   22 1
    45   22   26 1
    46   22   23 1
    47   23   24 1
    48   23   47 1
    49   23   48 1
    50   24   25 1
    51   24   49 1
    52   24   50 1
    53   25   26 1
    54   25   51 1
    55   25   52 1
    56   26   53 1
    57   26   54 1
@<TRIPOS>MOLECULE
ZINC13583880
   38    39     0     0     0
SMALL
USER_CHARGES
(3R)-3-dimethylamino-4,4-dimethyl-tetralin-6-ol
@<TRIPOS>ATOM
      1 C1          1.3168    3.6502   -0.6951 C.3       1 <0>        -0.1740
      2 C2          1.4389    2.1682   -0.3349 C.3       1 <0>        -0.0303
      3 C3          2.4167    1.5083   -1.2718 C.ar      1 <0>        -0.0631
      4 C4          3.5829    2.1968   -1.5773 C.ar      1 <0>        -0.1389
      5 C5          4.5269    1.6396   -2.4225 C.ar      1 <0>         0.1171
      6 C6          4.3040    0.3830   -2.9674 C.ar      1 <0>        -0.1314
      7 C7          3.1442   -0.2972   -2.6640 C.ar      1 <0>        -0.0954
      8 C8          2.1957    0.2633   -1.8172 C.ar      1 <0>        -0.0914
      9 C9          0.9497   -0.5352   -1.5354 C.3       1 <0>        -0.0764
     10 C10         0.2427   -0.0060   -0.2893 C.3       1 <0>        -0.1455
     11 C11         0.0651    1.5094   -0.4410 C.3       1 <0>         0.0371
     12 H1         -0.3747    1.7320   -1.4131 H         1 <0>         0.1438
     13 C12        -1.4129    3.2992    0.2479 C.3       1 <0>        -0.0600
     14 C13        -1.8427    1.0285    0.9703 C.3       1 <0>        -0.0481
     15 O1          5.6659    2.3198   -2.7176 O.3       1 <0>        -0.4960
     16 C14         1.9506    2.0395    1.1012 C.3       1 <0>        -0.1626
     17 H2          0.9111    4.1986    0.1550 H         1 <0>         0.0693
     18 H3          2.3012    4.0454   -0.9461 H         1 <0>         0.0888
     19 H4          0.6513    3.7624   -1.5510 H         1 <0>         0.0738
     20 H5          3.7548    3.1747   -1.1524 H         1 <0>         0.1345
     21 H6          5.0359   -0.0599   -3.6265 H         1 <0>         0.1370
     22 H7          2.9709   -1.2749   -3.0888 H         1 <0>         0.1336
     23 H8          1.2198   -1.5796   -1.3790 H         1 <0>         0.0977
     24 H9          0.2759   -0.4622   -2.3891 H         1 <0>         0.0887
     25 H10         0.8462   -0.2183    0.5932 H         1 <0>         0.0937
     26 H11        -0.7329   -0.4818   -0.1900 H         1 <0>         0.0989
     27 H12        -1.8796    3.2070   -0.7328 H         1 <0>         0.1238
     28 H13        -2.1669    3.5771    0.9844 H         1 <0>         0.1234
     29 H14        -0.6400    4.0669    0.2118 H         1 <0>         0.1297
     30 H15        -1.3747    0.1554    1.4250 H         1 <0>         0.1236
     31 H16        -2.5470    1.4713    1.6745 H         1 <0>         0.1234
     32 H17        -2.3730    0.7273    0.0669 H         1 <0>         0.1247
     33 H18         5.5938    2.8885   -3.4963 H         1 <0>         0.3981
     34 H19         2.1219    0.9883    1.3331 H         1 <0>         0.0811
     35 H20         2.8849    2.5913    1.2049 H         1 <0>         0.0935
     36 H21         1.2096    2.4472    1.7889 H         1 <0>         0.0529
     37 N1         -0.7933    2.0187    0.6492 N.4       1 <0>        -0.3992
     38 H22        -0.2155    2.1747    1.4835 H         1 <0>         0.4244
@<TRIPOS>BOND
     1    1    2 1
     2    1   17 1
     3    1   18 1
     4    1   19 1
     5    2   11 1
     6    2    3 1
     7    2   16 1
     8    3    8 ar
     9    3    4 ar
    10    4    5 ar
    11    4   20 1
    12    5    6 ar
    13    5   15 1
    14    6    7 ar
    15    6   21 1
    16    7    8 ar
    17    7   22 1
    18    8    9 1
    19    9   10 1
    20    9   23 1
    21    9   24 1
    22   10   11 1
    23   10   25 1
    24   10   26 1
    25   11   12 1
    26   11   37 1
    27   13   27 1
    28   13   28 1
    29   13   29 1
    30   13   37 1
    31   14   30 1
    32   14   31 1
    33   14   32 1
    34   14   37 1
    35   15   33 1
    36   16   34 1
    37   16   35 1
    38   16   36 1
    39   37   38 1
@<TRIPOS>MOLECULE
ZINC13583882
   38    39     0     0     0
SMALL
USER_CHARGES
(3S)-3-dimethylamino-4,4-dimethyl-tetralin-6-ol
@<TRIPOS>ATOM
      1 C1          4.2620    1.3766    3.1471 C.3       1 <0>        -0.1733
      2 C2          3.7800    2.7138    2.5810 C.3       1 <0>        -0.0305
      3 C3          3.0363    2.4693    1.2940 C.ar      1 <0>        -0.0632
      4 C4          1.7351    1.9931    1.3809 C.ar      1 <0>        -0.1376
      5 C5          1.0031    1.7354    0.2346 C.ar      1 <0>         0.1167
      6 C6          1.5721    1.9665   -1.0097 C.ar      1 <0>        -0.1314
      7 C7          2.8612    2.4471   -1.0927 C.ar      1 <0>        -0.0956
      8 C8          3.5976    2.7009    0.0580 C.ar      1 <0>        -0.0915
      9 C9          4.9977    3.2313   -0.1096 C.3       1 <0>        -0.0773
     10 C10         5.7995    3.0475    1.1772 C.3       1 <0>        -0.1359
     11 C11         4.9840    3.6225    2.3413 C.3       1 <0>         0.0352
     12 H1          4.6419    4.6263    2.0894 H         1 <0>         0.1423
     13 C12         6.7664    2.5522    3.5823 C.3       1 <0>        -0.0750
     14 C13         6.5145    4.9591    3.6580 C.3       1 <0>        -0.0438
     15 O1         -0.2682    1.2640    0.3275 O.3       1 <0>        -0.4960
     16 C14         2.8390    3.3782    3.5880 C.3       1 <0>        -0.1614
     17 H2          4.6572    1.5286    4.1515 H         1 <0>         0.0648
     18 H3          3.4271    0.6770    3.1873 H         1 <0>         0.0883
     19 H4          5.0449    0.9716    2.5060 H         1 <0>         0.0785
     20 H5          1.2920    1.8185    2.3502 H         1 <0>         0.1332
     21 H6          1.0072    1.7709   -1.9091 H         1 <0>         0.1369
     22 H7          3.3033    2.6279   -2.0614 H         1 <0>         0.1335
     23 H8          5.4908    2.6946   -0.9201 H         1 <0>         0.0977
     24 H9          4.9530    4.2920   -0.3567 H         1 <0>         0.0890
     25 H10         5.9835    1.9866    1.3467 H         1 <0>         0.0962
     26 H11         6.7488    3.5771    1.0971 H         1 <0>         0.0927
     27 H12         7.3609    2.5551    2.6688 H         1 <0>         0.1289
     28 H13         7.4246    2.6584    4.4446 H         1 <0>         0.1228
     29 H14         6.2191    1.6125    3.6567 H         1 <0>         0.1358
     30 H15         5.7854    5.7584    3.7909 H         1 <0>         0.1212
     31 H16         7.1890    4.9366    4.5139 H         1 <0>         0.1241
     32 H17         7.0877    5.1378    2.7483 H         1 <0>         0.1235
     33 H18        -0.3299    0.2991    0.3406 H         1 <0>         0.3982
     34 H19         2.4255    4.2882    3.1533 H         1 <0>         0.0787
     35 H20         2.0284    2.6926    3.8349 H         1 <0>         0.0877
     36 H21         3.3928    3.6271    4.4933 H         1 <0>         0.0550
     37 N1          5.7982    3.6690    3.5740 N.4       1 <0>        -0.3943
     38 H22         5.1777    3.5785    4.3871 H         1 <0>         0.4261
@<TRIPOS>BOND
     1    1    2 1
     2    1   17 1
     3    1   18 1
     4    1   19 1
     5    2   11 1
     6    2    3 1
     7    2   16 1
     8    3    8 ar
     9    3    4 ar
    10    4    5 ar
    11    4   20 1
    12    5    6 ar
    13    5   15 1
    14    6    7 ar
    15    6   21 1
    16    7    8 ar
    17    7   22 1
    18    8    9 1
    19    9   10 1
    20    9   23 1
    21    9   24 1
    22   10   11 1
    23   10   25 1
    24   10   26 1
    25   11   12 1
    26   11   37 1
    27   13   27 1
    28   13   28 1
    29   13   29 1
    30   13   37 1
    31   14   30 1
    32   14   31 1
    33   14   32 1
    34   14   37 1
    35   15   33 1
    36   16   34 1
    37   16   35 1
    38   16   36 1
    39   37   38 1
@<TRIPOS>MOLECULE
ZINC01608488
   59    62     0     0     0
SMALL
USER_CHARGES
methyl (2S,4aS,6aR,7R,9S,10aR,10bR)-9-acetoxy-2-(3-furyl)-6a,10b-dimethyl-4,10-dioxo-2,4a,5,6,7,8,9,10a-octahydro-1H-benzo[f]isochromene-7-carboxylate
@<TRIPOS>ATOM
      1 C1         -0.0878   -6.3519   -0.5915 C.3       1 <0>        -0.1496
      2 C2         -0.0176   -4.8522   -0.7219 C.2       1 <0>         0.4646
      3 O1          0.9735   -4.2604   -0.3649 O.2       1 <0>        -0.5104
      4 O2         -1.0561   -4.1737   -1.2347 O.3       1 <0>        -0.3362
      5 C3         -0.9182   -2.7274   -1.3307 C.3       1 <0>         0.0401
      6 H1          0.1505   -2.5065   -1.4684 H         1 <0>         0.1292
      7 C4         -1.7476   -2.2194   -2.5092 C.3       1 <0>        -0.1071
      8 C5         -1.7907   -0.6922   -2.5249 C.3       1 <0>        -0.0737
      9 H2         -0.7684   -0.2954   -2.6114 H         1 <0>         0.1160
     10 C6         -2.3830   -0.1297   -1.2414 C.3       1 <0>        -0.0447
     11 C7         -2.4479    1.3974   -1.2883 C.3       1 <0>        -0.1131
     12 C8         -1.0408    1.9847   -1.1880 C.3       1 <0>        -0.1139
     13 C9         -0.4859    1.6307    0.1953 C.3       1 <0>        -0.1203
     14 H3         -1.1604    1.9938    0.9847 H         1 <0>         0.1202
     15 C10         0.8688    2.2818    0.3586 C.2       1 <0>         0.4963
     16 O3          1.0386    3.1997    1.1276 O.2       1 <0>        -0.4442
     17 O4          1.8871    1.8041   -0.3878 O.3       1 <0>        -0.3713
     18 C11         2.1066    0.3697   -0.2923 C.3       1 <0>         0.1893
     19 H4          2.4557    0.1623    0.7300 H         1 <0>         0.0940
     20 C12         0.8022   -0.3741   -0.5957 C.3       1 <0>        -0.1614
     21 C13        -0.3318    0.1121    0.2990 C.3       1 <0>        -0.0420
     22 C14        -1.6409   -0.5998   -0.0005 C.3       1 <0>        -0.0995
     23 H5         -2.3000   -0.3374    0.8402 H         1 <0>         0.1154
     24 C15        -1.4245   -2.0937   -0.0583 C.2       1 <0>         0.3586
     25 O5         -1.6608   -2.7866    0.9105 O.2       1 <0>        -0.4219
     26 C16         0.0397   -0.2117    1.7620 C.3       1 <0>        -0.1659
     27 C17         3.1494   -0.0351   -1.3022 C.2       1 <0>        -0.1932
     28 C18         4.1235   -1.0480   -1.1477 C.2       1 <0>        -0.1962
     29 C19         4.8426   -1.0738   -2.2842 C.2       1 <0>        -0.0351
     30 O6          4.3583   -0.1355   -3.1142 O.3       1 <0>        -0.1725
     31 C20         3.3282    0.4941   -2.5259 C.2       1 <0>        -0.0027
     32 C21        -3.8429   -0.6255   -1.1317 C.3       1 <0>        -0.1632
     33 C22        -2.6418   -0.2710   -3.7056 C.2       1 <0>         0.4731
     34 O7         -3.5783   -0.9529   -4.0490 O.2       1 <0>        -0.4920
     35 O8         -2.3554    0.8596   -4.3700 O.3       1 <0>        -0.3527
     36 C23        -3.2132    1.2009   -5.4906 C.3       1 <0>         0.0290
     37 H6         -1.0593   -6.7074   -0.9654 H         1 <0>         0.0942
     38 H7          0.0234   -6.6336    0.4660 H         1 <0>         0.1098
     39 H8          0.7212   -6.8094   -1.1799 H         1 <0>         0.1096
     40 H9         -1.3005   -2.5709   -3.4508 H         1 <0>         0.0967
     41 H10        -2.7756   -2.6020   -2.4261 H         1 <0>         0.1069
     42 H11        -2.9058    1.7160   -2.2364 H         1 <0>         0.0830
     43 H12        -3.0537    1.7647   -0.4468 H         1 <0>         0.0833
     44 H13        -0.4065    1.5535   -1.9765 H         1 <0>         0.0815
     45 H14        -1.0894    3.0765   -1.3127 H         1 <0>         0.0846
     46 H15         0.5185   -0.2038   -1.6448 H         1 <0>         0.0913
     47 H16         0.9460   -1.4512   -0.4250 H         1 <0>         0.1010
     48 H17         0.1598   -1.2990    1.8777 H         1 <0>         0.0707
     49 H18        -0.7593    0.1422    2.4301 H         1 <0>         0.0738
     50 H19         0.9833    0.2910    2.0205 H         1 <0>         0.0622
     51 H20         4.2639   -1.6795   -0.2828 H         1 <0>         0.1523
     52 H21         5.6693   -1.7364   -2.4936 H         1 <0>         0.2060
     53 H22         2.7440    1.2917   -2.9606 H         1 <0>         0.2058
     54 H23        -4.2955   -0.2319   -0.2096 H         1 <0>         0.0697
     55 H24        -3.8557   -1.7251   -1.1060 H         1 <0>         0.0639
     56 H25        -4.4164   -0.2723   -2.0014 H         1 <0>         0.0714
     57 H26        -2.8693    2.1433   -5.9419 H         1 <0>         0.1066
     58 H27        -4.2481    1.3198   -5.1372 H         1 <0>         0.0663
     59 H28        -3.1721    0.3982   -6.2416 H         1 <0>         0.0665
@<TRIPOS>BOND
     1    1    2 1
     2    1   37 1
     3    1   38 1
     4    1   39 1
     5    2    3 2
     6    2    4 1
     7    4    5 1
     8    5    6 1
     9    5   24 1
    10    5    7 1
    11    7    8 1
    12    7   40 1
    13    7   41 1
    14    8    9 1
    15    8   10 1
    16    8   33 1
    17   10   22 1
    18   10   11 1
    19   10   32 1
    20   11   12 1
    21   11   42 1
    22   11   43 1
    23   12   13 1
    24   12   44 1
    25   12   45 1
    26   13   14 1
    27   13   21 1
    28   13   15 1
    29   15   16 2
    30   15   17 1
    31   17   18 1
    32   18   19 1
    33   18   20 1
    34   18   27 1
    35   20   21 1
    36   20   46 1
    37   20   47 1
    38   21   22 1
    39   21   26 1
    40   22   23 1
    41   22   24 1
    42   24   25 2
    43   26   48 1
    44   26   49 1
    45   26   50 1
    46   27   31 2
    47   27   28 1
    48   28   29 2
    49   28   51 1
    50   29   30 1
    51   29   52 1
    52   30   31 1
    53   31   53 1
    54   32   54 1
    55   32   55 1
    56   32   56 1
    57   33   34 2
    58   33   35 1
    59   35   36 1
    60   36   57 1
    61   36   58 1
    62   36   59 1
@<TRIPOS>MOLECULE
ZINC13607514
   59    62     0     0     0
SMALL
USER_CHARGES

@<TRIPOS>ATOM
      1 C1         -0.4357    1.7542    0.5288 C.3       1 <0>        -0.1461
      2 C2         -0.3487    0.2525    0.4381 C.2       1 <0>         0.4644
      3 O1         -0.3274   -0.4134    1.4460 O.2       1 <0>        -0.5086
      4 O2         -0.2950   -0.3454   -0.7625 O.3       1 <0>        -0.3301
      5 C3         -0.2136   -1.7722   -0.7738 C.3       1 <0>         0.0415
      6 H1         -0.7203   -2.1720    0.1052 H         1 <0>         0.1191
      7 C4         -0.8688   -2.3169   -2.0411 C.3       1 <0>        -0.1091
      8 C5         -0.5773   -3.8003   -2.2464 C.3       1 <0>        -0.0730
      9 H2         -0.9922   -4.3736   -1.4153 H         1 <0>         0.1193
     10 C6          0.9373   -4.0644   -2.3109 C.3       1 <0>        -0.0221
     11 C7          1.1877   -5.5410   -2.5993 C.3       1 <0>        -0.1184
     12 C8          2.6637   -5.9043   -2.4013 C.3       1 <0>        -0.1031
     13 C9          3.0702   -5.5857   -0.9734 C.3       1 <0>        -0.1318
     14 H3          2.4118   -6.1175   -0.2806 H         1 <0>         0.1121
     15 C10         4.5003   -5.9672   -0.6813 C.2       1 <0>         0.5012
     16 O3          5.1978   -6.5084   -1.5030 O.2       1 <0>        -0.4391
     17 O4          4.9537   -5.6702    0.5573 O.3       1 <0>        -0.3715
     18 C11         4.7443   -4.3390    1.0299 C.3       1 <0>         0.1894
     19 H4          5.4620   -3.6675    0.5561 H         1 <0>         0.0898
     20 C12         3.3172   -3.8616    0.7661 C.3       1 <0>        -0.1491
     21 C13         2.9439   -4.0734   -0.7115 C.3       1 <0>        -0.0280
     22 C14         1.5159   -3.6587   -0.9593 C.3       1 <0>        -0.1093
     23 H5          0.8994   -4.1915   -0.1890 H         1 <0>         0.1048
     24 C15         1.2465   -2.1910   -0.7424 C.2       1 <0>         0.3597
     25 O5          2.1096   -1.3779   -0.5407 O.2       1 <0>        -0.4150
     26 C16         3.9524   -3.3146   -1.5694 C.3       1 <0>        -0.1696
     27 C17         4.9977   -4.3122    2.5152 C.2       1 <0>        -0.1946
     28 C18         5.5648   -3.2486    3.2541 C.2       1 <0>        -0.2001
     29 C19         5.6067   -3.6453    4.5387 C.2       1 <0>        -0.0351
     30 O6          5.0978   -4.8857    4.6166 O.3       1 <0>        -0.1737
     31 C20         4.7222   -5.2933    3.3933 C.2       1 <0>        -0.0053
     32 C21         1.5002   -3.2263   -3.4584 C.3       1 <0>        -0.1672
     33 C22        -1.2209   -4.2546   -3.5321 C.2       1 <0>         0.4690
     34 O7         -0.5401   -4.7092   -4.4208 O.2       1 <0>        -0.4841
     35 O8         -2.5502   -4.1542   -3.6893 O.3       1 <0>        -0.3509
     36 C23        -3.0922   -4.6037   -4.9328 C.3       1 <0>         0.0321
     37 H6          0.5692    2.1747    0.5675 H         1 <0>         0.1084
     38 H7         -0.9581    2.1414   -0.3460 H         1 <0>         0.0961
     39 H8         -0.9811    2.0328    1.4305 H         1 <0>         0.1060
     40 H9         -1.9587   -2.1897   -1.9463 H         1 <0>         0.0988
     41 H10        -0.5531   -1.7339   -2.9040 H         1 <0>         0.0952
     42 H11         0.5758   -6.1488   -1.9299 H         1 <0>         0.0647
     43 H12         0.9160   -5.7681   -3.6331 H         1 <0>         0.1048
     44 H13         2.7837   -6.9821   -2.5738 H         1 <0>         0.0770
     45 H14         3.2855   -5.3773   -3.1174 H         1 <0>         0.0801
     46 H15         2.6187   -4.4242    1.3873 H         1 <0>         0.0815
     47 H16         3.2340   -2.8000    1.0015 H         1 <0>         0.0994
     48 H17         3.8397   -3.6125   -2.6118 H         1 <0>         0.0734
     49 H18         3.7751   -2.2431   -1.4764 H         1 <0>         0.0862
     50 H19         4.9629   -3.5462   -1.2326 H         1 <0>         0.0564
     51 H20         5.9007   -2.2999    2.8622 H         1 <0>         0.1515
     52 H21         5.9855   -3.0649    5.3670 H         1 <0>         0.2060
     53 H22         4.2768   -6.2478    3.1546 H         1 <0>         0.2045
     54 H23         1.4301   -2.1687   -3.2042 H         1 <0>         0.0523
     55 H24         2.5444   -3.4917   -3.6239 H         1 <0>         0.0721
     56 H25         0.9277   -3.4208   -4.3652 H         1 <0>         0.0874
     57 H26        -2.6563   -4.0271   -5.7487 H         1 <0>         0.0632
     58 H27        -2.8601   -5.6598   -5.0697 H         1 <0>         0.0634
     59 H28        -4.1735   -4.4669   -4.9284 H         1 <0>         0.1042
@<TRIPOS>BOND
     1    1    2 1
     2    1   37 1
     3    1   38 1
     4    1   39 1
     5    2    3 2
     6    2    4 1
     7    4    5 1
     8    5    6 1
     9    5   24 1
    10    5    7 1
    11    7    8 1
    12    7   40 1
    13    7   41 1
    14    8    9 1
    15    8   10 1
    16    8   33 1
    17   10   22 1
    18   10   11 1
    19   10   32 1
    20   11   12 1
    21   11   42 1
    22   11   43 1
    23   12   13 1
    24   12   44 1
    25   12   45 1
    26   13   14 1
    27   13   21 1
    28   13   15 1
    29   15   16 2
    30   15   17 1
    31   17   18 1
    32   18   19 1
    33   18   20 1
    34   18   27 1
    35   20   21 1
    36   20   46 1
    37   20   47 1
    38   21   22 1
    39   21   26 1
    40   22   23 1
    41   22   24 1
    42   24   25 2
    43   26   48 1
    44   26   49 1
    45   26   50 1
    46   27   31 2
    47   27   28 1
    48   28   29 2
    49   28   51 1
    50   29   30 1
    51   29   52 1
    52   30   31 1
    53   31   53 1
    54   32   54 1
    55   32   55 1
    56   32   56 1
    57   33   34 2
    58   33   35 1
    59   35   36 1
    60   36   57 1
    61   36   58 1
    62   36   59 1
@<TRIPOS>MOLECULE
ZINC15449154
   54    57     0     0     0
SMALL
USER_CHARGES

@<TRIPOS>ATOM
      1 C1         -0.1929    1.5261    0.6455 C.3       1 <0>        -0.1678
      2 C2         -0.1567    0.0027    0.5237 C.3       1 <0>        -0.0208
      3 C3          0.0762   -0.3772   -0.9349 C.3       1 <0>        -0.1193
      4 C4          1.5263   -0.1077   -1.3528 C.3       1 <0>        -0.1035
      5 C5          2.4579   -0.9093   -0.4616 C.3       1 <0>        -0.1319
      6 H1          2.1879   -1.9689   -0.5170 H         1 <0>         0.1112
      7 C6          3.9071   -0.7547   -0.8497 C.2       1 <0>         0.5005
      8 O1          4.2479   -0.0934   -1.7988 O.2       1 <0>        -0.4387
      9 O2          4.8025   -1.4053   -0.0723 O.3       1 <0>        -0.3720
     10 C7          4.6989   -1.2150    1.3398 C.3       1 <0>         0.1883
     11 H2          5.0974   -0.2350    1.6056 H         1 <0>         0.0899
     12 C8          3.2561   -1.3516    1.8238 C.3       1 <0>        -0.1478
     13 C9          2.3251   -0.4449    1.0000 C.3       1 <0>        -0.0282
     14 C10         0.8930   -0.6247    1.4352 C.3       1 <0>        -0.1137
     15 H3          0.6979   -1.7289    1.4130 H         1 <0>         0.1029
     16 C11         0.6132   -0.1982    2.8542 C.2       1 <0>         0.3422
     17 O3          1.4074    0.3839    3.5444 O.2       1 <0>        -0.4217
     18 C12        -0.7583   -0.5629    3.3971 C.3       1 <0>         0.0640
     19 H4         -0.8172   -1.6445    3.5228 H         1 <0>         0.0933
     20 C13        -1.8307   -0.0971    2.4149 C.3       1 <0>        -0.1073
     21 C14        -1.5251   -0.5295    0.9841 C.3       1 <0>        -0.0731
     22 H5         -1.5084   -1.6194    0.9265 H         1 <0>         0.1176
     23 C15        -2.6021   -0.0016    0.0701 C.2       1 <0>         0.4679
     24 O4         -2.3105    0.7229   -0.8518 O.2       1 <0>        -0.4864
     25 O5         -3.8848   -0.3366    0.2808 O.3       1 <0>        -0.3509
     26 C16        -4.8523    0.1997   -0.6238 C.3       1 <0>         0.0321
     27 O6         -0.9499    0.0752    4.6615 O.3       1 <0>        -0.5444
     28 C17         2.8217    0.9921    1.1326 C.3       1 <0>        -0.1701
     29 C18         5.5414   -2.2589    2.0264 C.2       1 <0>        -0.1945
     30 C19         6.2746   -2.0956    3.2242 C.2       1 <0>        -0.2005
     31 C20         6.8769   -3.2718    3.4759 C.2       1 <0>        -0.0352
     32 O7          6.5493   -4.1338    2.4995 O.3       1 <0>        -0.1739
     33 C21         5.7356   -3.5265    1.6204 C.2       1 <0>        -0.0054
     34 H6          0.7284    1.9449    0.2408 H         1 <0>         0.0712
     35 H7         -1.0447    1.9151    0.0876 H         1 <0>         0.0852
     36 H8         -0.2883    1.8045    1.6950 H         1 <0>         0.0532
     37 H9         -0.1455   -1.4375   -1.0724 H         1 <0>         0.0638
     38 H10        -0.5803    0.2103   -1.5812 H         1 <0>         0.1054
     39 H11         1.6568   -0.4356   -2.3926 H         1 <0>         0.0761
     40 H12         1.7465    0.9536   -1.3039 H         1 <0>         0.0793
     41 H13         2.9254   -2.3853    1.7142 H         1 <0>         0.0810
     42 H14         3.1906   -1.0617    2.8734 H         1 <0>         0.0988
     43 H15        -2.7897   -0.5488    2.7139 H         1 <0>         0.0963
     44 H16        -1.9519    0.9824    2.4791 H         1 <0>         0.0900
     45 H17        -4.6256   -0.1322   -1.6370 H         1 <0>         0.0629
     46 H18        -5.8459   -0.1483   -0.3413 H         1 <0>         0.1040
     47 H19        -4.8235    1.2885   -0.5832 H         1 <0>         0.0627
     48 H20        -0.2996   -0.1763    5.3316 H         1 <0>         0.3897
     49 H21         2.3169    1.6202    0.3986 H         1 <0>         0.0728
     50 H22         2.6055    1.3601    2.1356 H         1 <0>         0.0868
     51 H23         3.8972    1.0224    0.9585 H         1 <0>         0.0555
     52 H24         6.3391   -1.1986    3.8222 H         1 <0>         0.1519
     53 H25         7.5159   -3.4864    4.3197 H         1 <0>         0.2060
     54 H26         5.3110   -3.9785    0.7362 H         1 <0>         0.2045
@<TRIPOS>BOND
     1    1    2 1
     2    1   34 1
     3    1   35 1
     4    1   36 1
     5    2   14 1
     6    2   21 1
     7    2    3 1
     8    3    4 1
     9    3   37 1
    10    3   38 1
    11    4    5 1
    12    4   39 1
    13    4   40 1
    14    5    6 1
    15    5   13 1
    16    5    7 1
    17    7    8 2
    18    7    9 1
    19    9   10 1
    20   10   11 1
    21   10   12 1
    22   10   29 1
    23   12   13 1
    24   12   41 1
    25   12   42 1
    26   13   14 1
    27   13   28 1
    28   14   15 1
    29   14   16 1
    30   16   17 2
    31   16   18 1
    32   18   19 1
    33   18   20 1
    34   18   27 1
    35   20   21 1
    36   20   43 1
    37   20   44 1
    38   21   22 1
    39   21   23 1
    40   23   24 2
    41   23   25 1
    42   25   26 1
    43   26   45 1
    44   26   46 1
    45   26   47 1
    46   27   48 1
    47   28   49 1
    48   28   50 1
    49   28   51 1
    50   29   33 2
    51   29   30 1
    52   30   31 2
    53   30   52 1
    54   31   32 1
    55   31   53 1
    56   32   33 1
    57   33   54 1
@<TRIPOS>MOLECULE
ZINC14951777
   50    54     0     0     0
SMALL
USER_CHARGES
cyclopropylmethylBLAHol
@<TRIPOS>ATOM
      1 C1         -1.2359    3.1356    0.0288 C.ar      1 <0>        -0.1361
      2 C2         -0.0465    3.8326    0.0288 C.ar      1 <0>        -0.0935
      3 C3          1.1697    3.1595    0.0228 C.ar      1 <0>        -0.1116
      4 C4          1.1798    1.7811    0.0004 C.ar      1 <0>        -0.0608
      5 C5         -0.0126    1.0758    0.0080 C.ar      1 <0>        -0.1381
      6 C6         -1.2238    1.7485    0.0174 C.ar      1 <0>         0.1245
      7 O1         -2.3920    1.0541    0.0197 O.3       1 <0>        -0.4964
      8 C7          2.4695    1.0051   -0.0534 C.3       1 <0>        -0.0153
      9 C8          2.3410   -0.3185    0.6917 C.3       1 <0>        -0.1104
     10 C9          3.6618   -1.0869    0.5915 C.3       1 <0>        -0.1271
     11 C10         4.7910   -0.2518    1.1974 C.3       1 <0>        -0.1207
     12 C11         4.9117    1.0770    0.4466 C.3       1 <0>        -0.1284
     13 C12         3.5931    1.8415    0.5643 C.3       1 <0>        -0.0898
     14 H1          3.3681    2.0400    1.6122 H         1 <0>         0.1208
     15 C13         3.6733    3.1604   -0.2017 C.3       1 <0>         0.0378
     16 H2          4.5307    3.7162    0.1778 H         1 <0>         0.1329
     17 C14         2.4262    3.9864    0.0654 C.3       1 <0>        -0.0873
     18 C15         2.8539    2.0735   -2.2257 C.3       1 <0>        -0.0108
     19 C16         2.8089    0.7278   -1.4925 C.3       1 <0>        -0.1367
     20 C17         4.0171    4.1906   -2.3552 C.3       1 <0>         0.0263
     21 C18         4.4840    3.9088   -3.7847 C.3       1 <0>        -0.2162
     22 C19         5.8505    4.4558   -4.2024 C.3       1 <0>        -0.1670
     23 C20         4.5707    5.0955   -4.7465 C.3       1 <0>        -0.1489
     24 H3         -2.1752    3.6685    0.0339 H         1 <0>         0.1367
     25 H4         -0.0598    4.9125    0.0332 H         1 <0>         0.1317
     26 H5          0.0021   -0.0041    0.0020 H         1 <0>         0.1372
     27 H6         -2.7257    0.8487    0.9037 H         1 <0>         0.4005
     28 H7          2.1111   -0.1253    1.7395 H         1 <0>         0.0765
     29 H8          1.5412   -0.9104    0.2465 H         1 <0>         0.0781
     30 H9          3.5758   -2.0284    1.1340 H         1 <0>         0.0764
     31 H10         3.8843   -1.2908   -0.4558 H         1 <0>         0.0670
     32 H11         4.5741   -0.0564    2.2476 H         1 <0>         0.0727
     33 H12         5.7301   -0.7993    1.1170 H         1 <0>         0.0754
     34 H13         5.7165    1.6695    0.8818 H         1 <0>         0.0816
     35 H14         5.1291    0.8833   -0.6038 H         1 <0>         0.0610
     36 H15         2.3565    4.7733   -0.6857 H         1 <0>         0.0950
     37 H16         2.5131    4.4458    1.0501 H         1 <0>         0.1207
     38 H17         1.8847    2.5652   -2.1426 H         1 <0>         0.1345
     39 H18         3.0879    1.9068   -3.2772 H         1 <0>         0.1265
     40 H19         2.0388    0.0939   -1.9321 H         1 <0>         0.1132
     41 H20         3.7786    0.2355   -1.5654 H         1 <0>         0.1012
     42 H21         3.0519    4.6963   -2.3813 H         1 <0>         0.1338
     43 H22         4.7468    4.8261   -1.8533 H         1 <0>         0.1287
     44 H23         4.1791    2.9473   -4.1980 H         1 <0>         0.1251
     45 H24         6.4169    5.0165   -3.4588 H         1 <0>         0.1061
     46 H25         6.4444    3.8544   -4.8907 H         1 <0>         0.1099
     47 H26         4.3232    4.9148   -5.7925 H         1 <0>         0.1117
     48 H27         4.2947    6.0770   -4.3610 H         1 <0>         0.1074
     49 N1          3.9269    2.9113   -1.6371 N.4       1 <0>        -0.3830
     50 H28         4.8203    2.4142   -1.7318 H         1 <0>         0.4270
@<TRIPOS>BOND
     1    1    6 ar
     2    1    2 ar
     3    1   24 1
     4    2    3 ar
     5    2   25 1
     6    3   17 1
     7    3    4 ar
     8    4    5 ar
     9    4    8 1
    10    5    6 ar
    11    5   26 1
    12    6    7 1
    13    7   27 1
    14    8   13 1
    15    8   19 1
    16    8    9 1
    17    9   10 1
    18    9   28 1
    19    9   29 1
    20   10   11 1
    21   10   30 1
    22   10   31 1
    23   11   12 1
    24   11   32 1
    25   11   33 1
    26   12   13 1
    27   12   34 1
    28   12   35 1
    29   13   14 1
    30   13   15 1
    31   15   16 1
    32   15   17 1
    33   15   49 1
    34   17   36 1
    35   17   37 1
    36   18   19 1
    37   18   38 1
    38   18   39 1
    39   18   49 1
    40   19   40 1
    41   19   41 1
    42   20   21 1
    43   20   42 1
    44   20   43 1
    45   20   49 1
    46   21   23 1
    47   21   22 1
    48   21   44 1
    49   22   23 1
    50   22   45 1
    51   22   46 1
    52   23   47 1
    53   23   48 1
    54   49   50 1
@<TRIPOS>MOLECULE
ZINC13679981
   69    73     0     0     0
SMALL
USER_CHARGES
(2R)-1-benzyl-N-(3-spiro[1H-isobenzofuran-3,4'-piperidine]-1'-ylpropyl)pyrrolidine-2-carboxamide
@<TRIPOS>ATOM
      1 C1         -8.1007   -7.1835   -1.0255 C.ar      1 <0>        -0.0803
      2 C2         -8.1141   -5.8018   -1.0666 C.ar      1 <0>        -0.1112
      3 C3         -6.9256   -5.1014   -1.1550 C.ar      1 <0>        -0.0905
      4 C4         -5.7237   -5.7827   -1.2022 C.ar      1 <0>        -0.1631
      5 C5         -5.7106   -7.1645   -1.1664 C.ar      1 <0>        -0.1004
      6 C6         -6.8988   -7.8648   -1.0728 C.ar      1 <0>        -0.1115
      7 C7         -4.4281   -5.0191   -1.2989 C.3       1 <0>         0.0524
      8 C8         -3.9334   -5.9424    0.8890 C.3       1 <0>        -0.0222
      9 C9         -2.4923   -6.1507    1.4000 C.3       1 <0>        -0.1374
     10 C10        -1.8710   -4.7322    1.2879 C.3       1 <0>        -0.1332
     11 C11        -2.5509   -4.1950    0.0039 C.3       1 <0>         0.0023
     12 H1         -2.0324   -4.5619   -0.8819 H         1 <0>         0.1693
     13 C12        -2.5713   -2.6882    0.0122 C.2       1 <0>         0.5149
     14 O1         -3.6297   -2.0961    0.0255 O.2       1 <0>        -0.5142
     15 N1         -1.4134   -1.9985    0.0048 N.am      1 <0>        -0.7096
     16 C13        -1.4333   -0.5336    0.0129 C.3       1 <0>         0.1196
     17 C14         0.0021   -0.0041    0.0020 C.3       1 <0>        -0.1666
     18 C15        -0.0187    1.5258    0.0104 C.3       1 <0>        -0.0008
     19 C16         2.0606    1.6798    1.2406 C.3       1 <0>        -0.0020
     20 C17         3.5319    2.0889    1.1307 C.3       1 <0>        -0.1349
     21 C18         3.6196    3.5918    0.8706 C.3       1 <0>         0.1462
     22 C19         2.8330    3.9519   -0.3888 C.3       1 <0>        -0.1563
     23 C20         1.3837    3.4843   -0.2305 C.3       1 <0>         0.0041
     24 C21         5.0596    4.0145    0.7253 C.ar      1 <0>        -0.1438
     25 C22         6.1368    3.4666    0.0594 C.ar      1 <0>        -0.0861
     26 C23         7.3688    4.0929    0.1059 C.ar      1 <0>        -0.1099
     27 C24         7.5220    5.2671    0.8196 C.ar      1 <0>        -0.0952
     28 C25         6.4429    5.8168    1.4873 C.ar      1 <0>        -0.0885
     29 C26         5.2137    5.1924    1.4407 C.ar      1 <0>        -0.1240
     30 C27         3.8706    5.5290    2.0461 C.3       1 <0>         0.0881
     31 O2          3.0979    4.3148    1.9965 O.3       1 <0>        -0.3505
     32 H2         -9.0293   -7.7307   -0.9569 H         1 <0>         0.1383
     33 H3         -9.0532   -5.2696   -1.0301 H         1 <0>         0.1378
     34 H4         -6.9361   -4.0220   -1.1874 H         1 <0>         0.1313
     35 H5         -4.7719   -7.6969   -1.2077 H         1 <0>         0.1323
     36 H6         -6.8884   -8.9442   -1.0410 H         1 <0>         0.1384
     37 H7         -4.5965   -4.0839   -1.8329 H         1 <0>         0.1345
     38 H8         -3.6930   -5.6175   -1.8372 H         1 <0>         0.1352
     39 H9         -4.6102   -5.8082    1.7328 H         1 <0>         0.1330
     40 H10        -4.2468   -6.8012    0.2954 H         1 <0>         0.1450
     41 H11        -2.4959   -6.4898    2.4359 H         1 <0>         0.1198
     42 H12        -1.9571   -6.8579    0.7663 H         1 <0>         0.1053
     43 H13        -0.7895   -4.7864    1.1637 H         1 <0>         0.1243
     44 H14        -2.1331   -4.1227    2.1527 H         1 <0>         0.1038
     45 H15        -0.5669   -2.4720   -0.0058 H         1 <0>         0.4129
     46 H16        -1.9435   -0.1821    0.9097 H         1 <0>         0.0902
     47 H17        -1.9605   -0.1726   -0.8702 H         1 <0>         0.0899
     48 H18         0.5123   -0.3556   -0.8948 H         1 <0>         0.0982
     49 H19         0.5293   -0.3651    0.8851 H         1 <0>         0.0985
     50 H20        -0.5459    1.8868   -0.8726 H         1 <0>         0.1356
     51 H21        -0.5289    1.8773    0.9072 H         1 <0>         0.1381
     52 H22         1.6002    2.2014    2.0798 H         1 <0>         0.1398
     53 H23         1.9937    0.6037    1.4010 H         1 <0>         0.1288
     54 H24         3.9991    1.5492    0.3070 H         1 <0>         0.1009
     55 H25         4.0471    1.8499    2.0610 H         1 <0>         0.1224
     56 H26         3.2820    3.4598   -1.2515 H         1 <0>         0.1005
     57 H27         2.8530    5.0319   -0.5346 H         1 <0>         0.1185
     58 H28         0.8256    3.7173   -1.1373 H         1 <0>         0.1329
     59 H29         0.9278    3.9947    0.6179 H         1 <0>         0.1391
     60 H30         6.0178    2.5492   -0.4981 H         1 <0>         0.1237
     61 H31         8.2121    3.6642   -0.4151 H         1 <0>         0.1359
     62 H32         8.4848    5.7551    0.8559 H         1 <0>         0.1378
     63 H33         6.5624    6.7342    2.0445 H         1 <0>         0.1334
     64 H34         3.9951    5.8530    3.0794 H         1 <0>         0.1092
     65 H35         3.3818    6.3105    1.4644 H         1 <0>         0.0862
     66 N2         -3.9293   -4.7202    0.0688 N.4       1 <0>        -0.3831
     67 H36        -4.5403   -4.0182    0.5024 H         1 <0>         0.4355
     68 N3          1.3730    2.0202   -0.0236 N.4       1 <0>        -0.3940
     69 H37         1.8676    1.5705   -0.8030 H         1 <0>         0.4251
@<TRIPOS>BOND
     1    1    6 ar
     2    1    2 ar
     3    1   32 1
     4    2    3 ar
     5    2   33 1
     6    3    4 ar
     7    3   34 1
     8    4    5 ar
     9    4    7 1
    10    5    6 ar
    11    5   35 1
    12    6   36 1
    13    7   37 1
    14    7   38 1
    15    7   66 1
    16    8    9 1
    17    8   39 1
    18    8   40 1
    19    8   66 1
    20    9   10 1
    21    9   41 1
    22    9   42 1
    23   10   11 1
    24   10   43 1
    25   10   44 1
    26   11   12 1
    27   11   13 1
    28   11   66 1
    29   13   14 2
    30   13   15 am
    31   15   16 1
    32   15   45 1
    33   16   17 1
    34   16   46 1
    35   16   47 1
    36   17   18 1
    37   17   48 1
    38   17   49 1
    39   18   50 1
    40   18   51 1
    41   18   68 1
    42   19   20 1
    43   19   52 1
    44   19   53 1
    45   19   68 1
    46   20   21 1
    47   20   54 1
    48   20   55 1
    49   21   31 1
    50   21   22 1
    51   21   24 1
    52   22   23 1
    53   22   56 1
    54   22   57 1
    55   23   58 1
    56   23   59 1
    57   23   68 1
    58   24   29 ar
    59   24   25 ar
    60   25   26 ar
    61   25   60 1
    62   26   27 ar
    63   26   61 1
    64   27   28 ar
    65   27   62 1
    66   28   29 ar
    67   28   63 1
    68   29   30 1
    69   30   31 1
    70   30   64 1
    71   30   65 1
    72   66   67 1
    73   68   69 1
@<TRIPOS>MOLECULE
ZINC01699052
   48    51     0     0     0
SMALL
USER_CHARGES
8-benzyl-1-phenyl-1,3,8-triazaspiro[4.5]decan-4-one
@<TRIPOS>ATOM
      1 C1         -6.8443   -2.3610    3.7036 C.ar      1 <0>        -0.0843
      2 C2         -7.5373   -1.2678    3.2182 C.ar      1 <0>        -0.1133
      3 C3         -7.2127   -0.7360    1.9842 C.ar      1 <0>        -0.0961
      4 C4         -6.1953   -1.2975    1.2355 C.ar      1 <0>        -0.1618
      5 C5         -5.5061   -2.3941    1.7185 C.ar      1 <0>        -0.0945
      6 C6         -5.8272   -2.9228    2.9547 C.ar      1 <0>        -0.1135
      7 C7         -5.8417   -0.7179   -0.1099 C.3       1 <0>         0.0493
      8 C8         -4.2734    0.7386   -1.2411 C.3       1 <0>        -0.0007
      9 C9         -3.1013    1.6988   -1.0194 C.3       1 <0>        -0.1657
     10 C10        -3.5811    2.9033   -0.2140 C.3       1 <0>         0.0519
     11 C11        -4.2019    2.4469    1.1035 C.3       1 <0>        -0.1185
     12 C12        -5.3386    1.4626    0.8134 C.3       1 <0>        -0.0174
     13 C13        -4.5749    3.7095   -1.0134 C.2       1 <0>         0.5296
     14 O1         -5.7405    3.4254   -1.1908 O.2       1 <0>        -0.5108
     15 N1         -3.9453    4.8011   -1.4969 N.am      1 <0>        -0.7202
     16 C14        -2.5377    4.7828   -1.0787 C.3       1 <0>         0.2383
     17 N2         -2.4537    3.8224    0.0465 N.pl3     1 <0>        -0.4408
     18 C15        -1.2361    3.1382    0.0307 C.ar      1 <0>         0.0805
     19 C16        -0.2407    3.5091   -0.8644 C.ar      1 <0>        -0.1598
     20 C17         0.9597    2.8265   -0.8814 C.ar      1 <0>        -0.0848
     21 C18         1.1756    1.7821   -0.0011 C.ar      1 <0>        -0.1238
     22 C19         0.1889    1.4139    0.8951 C.ar      1 <0>        -0.0948
     23 C20        -1.0160    2.0886    0.9137 C.ar      1 <0>        -0.1412
     24 H1         -7.0977   -2.7763    4.6678 H         1 <0>         0.1355
     25 H2         -8.3322   -0.8291    3.8031 H         1 <0>         0.1361
     26 H3         -7.7541    0.1181    1.6050 H         1 <0>         0.1321
     27 H4         -4.7142   -2.8356    1.1316 H         1 <0>         0.1309
     28 H5         -5.2860   -3.7770    3.3338 H         1 <0>         0.1357
     29 H6         -6.7310   -0.2776   -0.5609 H         1 <0>         0.1388
     30 H7         -5.4595   -1.5077   -0.7566 H         1 <0>         0.1356
     31 H8         -5.0527    1.2425   -1.8128 H         1 <0>         0.1381
     32 H9         -3.9273   -0.1364   -1.7912 H         1 <0>         0.1363
     33 H10        -2.7187    2.0346   -1.9832 H         1 <0>         0.1152
     34 H11        -2.3101    1.1867   -0.4717 H         1 <0>         0.1192
     35 H12        -3.4427    1.9567    1.7129 H         1 <0>         0.1022
     36 H13        -4.5964    3.3109    1.6383 H         1 <0>         0.1230
     37 H14        -6.1106    1.9614    0.2275 H         1 <0>         0.1530
     38 H15        -5.7651    1.1128    1.7536 H         1 <0>         0.1353
     39 H16        -4.3592    5.4920   -2.0374 H         1 <0>         0.4325
     40 H17        -2.2320    5.7754   -0.7479 H         1 <0>         0.1178
     41 H18        -1.9062    4.4508   -1.9028 H         1 <0>         0.0853
     42 H19        -0.4070    4.3275   -1.5492 H         1 <0>         0.1353
     43 H20         1.7324    3.1115   -1.5801 H         1 <0>         0.1327
     44 H21         2.1171    1.2531   -0.0132 H         1 <0>         0.1309
     45 H22         0.3609    0.5981    1.5816 H         1 <0>         0.1318
     46 H23        -1.7860    1.8008    1.6141 H         1 <0>         0.1259
     47 N3         -4.7915    0.3046    0.0744 N.4       1 <0>        -0.3888
     48 H24        -4.0212   -0.1029    0.6174 H         1 <0>         0.4224
@<TRIPOS>BOND
     1    1    6 ar
     2    1    2 ar
     3    1   24 1
     4    2    3 ar
     5    2   25 1
     6    3    4 ar
     7    3   26 1
     8    4    5 ar
     9    4    7 1
    10    5    6 ar
    11    5   27 1
    12    6   28 1
    13    7   29 1
    14    7   30 1
    15    7   47 1
    16    8    9 1
    17    8   31 1
    18    8   32 1
    19    8   47 1
    20    9   10 1
    21    9   33 1
    22    9   34 1
    23   10   17 1
    24   10   11 1
    25   10   13 1
    26   11   12 1
    27   11   35 1
    28   11   36 1
    29   12   37 1
    30   12   38 1
    31   12   47 1
    32   13   14 2
    33   13   15 am
    34   15   16 1
    35   15   39 1
    36   16   17 1
    37   16   40 1
    38   16   41 1
    39   17   18 1
    40   18   23 ar
    41   18   19 ar
    42   19   20 ar
    43   19   42 1
    44   20   21 ar
    45   20   43 1
    46   21   22 ar
    47   21   44 1
    48   22   23 ar
    49   22   45 1
    50   23   46 1
    51   47   48 1
@<TRIPOS>MOLECULE
ZINC03787591
   57    59     0     0     0
SMALL
USER_CHARGES

@<TRIPOS>ATOM
      1 C1         -0.5654    1.5627    0.4620 C.3       1 <0>         0.0442
      2 N1         -0.1664    0.1844    0.1664 N.am      1 <0>        -0.6280
      3 C2          0.1346   -0.7418    1.2608 C.3       1 <0>         0.1722
      4 H1          0.3078   -1.7388    0.8557 H         1 <0>         0.1305
      5 C3         -1.0464   -0.7841    2.2325 C.3       1 <0>        -0.0170
      6 N2         -2.2726   -1.1236    1.4984 N.4       1 <0>        -0.3933
      7 C4         -2.2128   -2.5299    1.0241 C.3       1 <0>        -0.0117
      8 C5         -3.7028   -2.8938    0.8048 C.3       1 <0>        -0.1430
      9 C6         -4.4108   -2.1712    1.9738 C.3       1 <0>        -0.1431
     10 C7         -3.4431   -1.0515    2.3997 C.3       1 <0>        -0.0104
     11 C8          1.3682   -0.2744    1.9894 C.ar      1 <0>        -0.0857
     12 C9          2.4253   -1.1439    2.1863 C.ar      1 <0>        -0.1512
     13 C10         3.5583   -0.7183    2.8544 C.ar      1 <0>        -0.0707
     14 C11         3.6369    0.5775    3.3274 C.ar      1 <0>        -0.1986
     15 C12         2.5779    1.4516    3.1312 C.ar      1 <0>         0.1479
     16 C13         1.4443    1.0237    2.4550 C.ar      1 <0>        -0.1601
     17 O1          2.6528    2.7267    3.5955 O.3       1 <0>        -0.2777
     18 C14         3.8522    3.0995    4.2769 C.3       1 <0>        -0.0096
     19 C15         3.7541    4.5378    4.7160 C.2       1 <0>         0.5008
     20 O2          2.7501    5.1837    4.4684 O.co2     1 <0>        -0.6716
     21 O3          4.6787    5.0555    5.3190 O.co2     1 <0>        -0.6777
     22 C16        -0.0763   -0.2314   -1.1125 C.2       1 <0>         0.5175
     23 O4          0.2540   -1.3725   -1.3572 O.2       1 <0>        -0.5123
     24 C17        -0.3860    0.7213   -2.2382 C.3       1 <0>        -0.1027
     25 C18        -0.2110    0.0140   -3.5574 C.ar      1 <0>        -0.0605
     26 C19         1.0191    0.0237   -4.1887 C.ar      1 <0>        -0.0837
     27 C20         1.1808   -0.6242   -5.3987 C.ar      1 <0>        -0.0928
     28 C21         0.1116   -1.2832   -5.9788 C.ar      1 <0>        -0.0271
     29 C22        -1.1199   -1.2933   -5.3465 C.ar      1 <0>        -0.0304
     30 C23        -1.2787   -0.6486   -4.1327 C.ar      1 <0>        -0.0870
     31 Cl1        -2.4627   -2.1194   -6.0733 Cl        1 <0>        -0.0451
     32 Cl2         0.3141   -2.0967   -7.4990 Cl        1 <0>        -0.0416
     33 H2          0.3244    2.1752    0.6080 H         1 <0>         0.0900
     34 H3         -1.1468    1.9592   -0.3704 H         1 <0>         0.0908
     35 H4         -1.1706    1.5793    1.3684 H         1 <0>         0.0736
     36 H5         -0.8605   -1.5378    2.9977 H         1 <0>         0.1475
     37 H6         -1.1637    0.1914    2.7044 H         1 <0>         0.1393
     38 H7         -1.6586   -2.5969    0.0879 H         1 <0>         0.1369
     39 H8         -1.7674   -3.1733    1.7829 H         1 <0>         0.1359
     40 H9         -4.0556   -2.5136   -0.1539 H         1 <0>         0.0958
     41 H10        -3.8505   -3.9716    0.8715 H         1 <0>         0.1162
     42 H11        -5.3569   -1.7462    1.6385 H         1 <0>         0.1040
     43 H12        -4.5773   -2.8620    2.8003 H         1 <0>         0.1039
     44 H13        -3.1274   -1.2061    3.4314 H         1 <0>         0.1334
     45 H14        -3.9301   -0.0816    2.2989 H         1 <0>         0.1320
     46 H15         2.3655   -2.1574    1.8179 H         1 <0>         0.1215
     47 H16         4.3826   -1.3993    3.0069 H         1 <0>         0.1282
     48 H17         4.5219    0.9094    3.8499 H         1 <0>         0.1349
     49 H18         0.6204    1.7039    2.2968 H         1 <0>         0.1339
     50 H19         3.9873    2.4614    5.1502 H         1 <0>         0.0630
     51 H20         4.7030    2.9818    3.6058 H         1 <0>         0.0630
     52 H21        -1.4147    1.0700   -2.1466 H         1 <0>         0.1115
     53 H22         0.2921    1.5734   -2.1900 H         1 <0>         0.1195
     54 H23         1.8539    0.5381   -3.7361 H         1 <0>         0.1393
     55 H24         2.1417   -0.6156   -5.8916 H         1 <0>         0.1467
     56 H25        -2.2381   -0.6595   -3.6369 H         1 <0>         0.1371
     57 H26        -2.3958   -0.4969    0.7173 H         1 <0>         0.4215
@<TRIPOS>BOND
     1    1    2 1
     2    1   33 1
     3    1   34 1
     4    1   35 1
     5    2    3 1
     6    2   22 am
     7    3    4 1
     8    3    5 1
     9    3   11 1
    10    5    6 1
    11    5   36 1
    12    5   37 1
    13    6   10 1
    14    6    7 1
    15    6   57 1
    16    7    8 1
    17    7   38 1
    18    7   39 1
    19    8    9 1
    20    8   40 1
    21    8   41 1
    22    9   10 1
    23    9   42 1
    24    9   43 1
    25   10   44 1
    26   10   45 1
    27   11   16 ar
    28   11   12 ar
    29   12   13 ar
    30   12   46 1
    31   13   14 ar
    32   13   47 1
    33   14   15 ar
    34   14   48 1
    35   15   16 ar
    36   15   17 1
    37   16   49 1
    38   17   18 1
    39   18   19 1
    40   18   50 1
    41   18   51 1
    42   19   20 2
    43   19   21 1
    44   22   23 2
    45   22   24 1
    46   24   25 1
    47   24   52 1
    48   24   53 1
    49   25   30 ar
    50   25   26 ar
    51   26   27 ar
    52   26   54 1
    53   27   28 ar
    54   27   55 1
    55   28   29 ar
    56   28   32 1
    57   29   30 ar
    58   29   31 1
    59   30   56 1
@<TRIPOS>MOLECULE
ZINC03872882
   57    59     0     0     0
SMALL
USER_CHARGES

@<TRIPOS>ATOM
      1 C1          0.4066    0.1293   -0.9548 C.3       1 <0>         0.0586
      2 N1          0.6347    0.3784    0.4708 N.am      1 <0>        -0.6302
      3 C2          0.0854   -0.5393    1.4718 C.3       1 <0>         0.1872
      4 H1         -0.3707   -1.3931    0.9706 H         1 <0>         0.1192
      5 C3          1.2096   -1.0268    2.3881 C.3       1 <0>        -0.0312
      6 N2          2.1867   -1.7904    1.6007 N.4       1 <0>        -0.3871
      7 C4          2.9516   -0.8796    0.7110 C.3       1 <0>        -0.0176
      8 C5          4.2426   -1.6810    0.4086 C.3       1 <0>        -0.1448
      9 C6          4.5360   -2.3843    1.7537 C.3       1 <0>        -0.1430
     10 C7          3.1864   -2.4141    2.4947 C.3       1 <0>        -0.0087
     11 C8         -0.9563    0.1769    2.2921 C.ar      1 <0>        -0.0852
     12 C9         -0.9908    1.5593    2.3105 C.ar      1 <0>        -0.1462
     13 C10        -1.9451    2.2193    3.0619 C.ar      1 <0>        -0.0753
     14 C11        -2.8668    1.4990    3.7971 C.ar      1 <0>        -0.1988
     15 C12        -2.8344    0.1124    3.7804 C.ar      1 <0>         0.1475
     16 C13        -1.8793   -0.5478    3.0205 C.ar      1 <0>        -0.1521
     17 O1         -3.7399   -0.5984    4.5026 O.3       1 <0>        -0.2778
     18 C14        -4.6976    0.1474    5.2566 C.3       1 <0>        -0.0089
     19 C15        -5.6117   -0.8022    5.9871 C.2       1 <0>         0.5006
     20 O2         -5.4573   -2.0062    5.8726 O.co2     1 <0>        -0.6712
     21 O3         -6.5055   -0.3666    6.6926 O.co2     1 <0>        -0.6789
     22 C16         1.3498    1.4520    0.8612 C.2       1 <0>         0.5133
     23 O4          1.6080    1.6144    2.0351 O.2       1 <0>        -0.5031
     24 C17         1.8286    2.4507   -0.1607 C.3       1 <0>        -0.1048
     25 C18         2.5982    3.5468    0.5302 C.ar      1 <0>        -0.0627
     26 C19         1.9375    4.6718    0.9883 C.ar      1 <0>        -0.0835
     27 C20         2.6421    5.6779    1.6217 C.ar      1 <0>        -0.0914
     28 C21         4.0092    5.5597    1.7981 C.ar      1 <0>        -0.0260
     29 C22         4.6706    4.4331    1.3398 C.ar      1 <0>        -0.0299
     30 C23         3.9629    3.4245    0.7106 C.ar      1 <0>        -0.0880
     31 Cl1         6.3861    4.2834    1.5599 Cl        1 <0>        -0.0438
     32 Cl2         4.8948    6.8235    2.5932 Cl        1 <0>        -0.0395
     33 H2         -0.5462    0.5672   -1.2523 H         1 <0>         0.0786
     34 H3          1.2110    0.5804   -1.5357 H         1 <0>         0.0866
     35 H4          0.3853   -0.9452   -1.1369 H         1 <0>         0.0791
     36 H5          1.7026   -0.1693    2.8461 H         1 <0>         0.1631
     37 H6          0.7924   -1.6649    3.1672 H         1 <0>         0.1428
     38 H7          2.3971   -0.6829   -0.2066 H         1 <0>         0.1341
     39 H8          3.1885    0.0516    1.2257 H         1 <0>         0.1321
     40 H9          4.0664   -2.4133   -0.3792 H         1 <0>         0.0970
     41 H10         5.0583   -1.0105    0.1380 H         1 <0>         0.1133
     42 H11         4.8946   -3.3988    1.5798 H         1 <0>         0.1042
     43 H12         5.2692   -1.8159    2.3258 H         1 <0>         0.1023
     44 H13         3.2597   -1.8471    3.4227 H         1 <0>         0.1312
     45 H14         2.9024   -3.4447    2.7076 H         1 <0>         0.1334
     46 H15        -0.2707    2.1241    1.7370 H         1 <0>         0.1215
     47 H16        -1.9699    3.2990    3.0746 H         1 <0>         0.1230
     48 H17        -3.6118    2.0151    4.3846 H         1 <0>         0.1332
     49 H18        -1.8550   -1.6274    3.0021 H         1 <0>         0.1301
     50 H19        -4.1795    0.7799    5.9775 H         1 <0>         0.0623
     51 H20        -5.2850    0.7708    4.5825 H         1 <0>         0.0625
     52 H21         2.4759    1.9511   -0.8815 H         1 <0>         0.1110
     53 H22         0.9711    2.8799   -0.6789 H         1 <0>         0.1188
     54 H23         0.8703    4.7644    0.8508 H         1 <0>         0.1387
     55 H24         2.1256    6.5567    1.9787 H         1 <0>         0.1472
     56 H25         4.4776    2.5436    0.3564 H         1 <0>         0.1361
     57 H26         1.7179   -2.4982    1.0555 H         1 <0>         0.4211
@<TRIPOS>BOND
     1    1    2 1
     2    1   33 1
     3    1   34 1
     4    1   35 1
     5    2    3 1
     6    2   22 am
     7    3    4 1
     8    3    5 1
     9    3   11 1
    10    5    6 1
    11    5   36 1
    12    5   37 1
    13    6   10 1
    14    6    7 1
    15    6   57 1
    16    7    8 1
    17    7   38 1
    18    7   39 1
    19    8    9 1
    20    8   40 1
    21    8   41 1
    22    9   10 1
    23    9   42 1
    24    9   43 1
    25   10   44 1
    26   10   45 1
    27   11   16 ar
    28   11   12 ar
    29   12   13 ar
    30   12   46 1
    31   13   14 ar
    32   13   47 1
    33   14   15 ar
    34   14   48 1
    35   15   16 ar
    36   15   17 1
    37   16   49 1
    38   17   18 1
    39   18   19 1
    40   18   50 1
    41   18   51 1
    42   19   20 2
    43   19   21 1
    44   22   23 2
    45   22   24 1
    46   24   25 1
    47   24   52 1
    48   24   53 1
    49   25   30 ar
    50   25   26 ar
    51   26   27 ar
    52   26   54 1
    53   27   28 ar
    54   27   55 1
    55   28   29 ar
    56   28   32 1
    57   29   30 ar
    58   29   31 1
    59   30   56 1
@<TRIPOS>MOLECULE
ZINC24912441
   47    50     0     0     0
SMALL
USER_CHARGES
4-phenyl-8-(2-pyridylmethyl)-2,4,8-triazaspiro[4.5]decan-1-one
@<TRIPOS>ATOM
      1 C1          1.9740    9.0089   -6.0449 C.ar      1 <0>        -0.1254
      2 C2          1.9065    7.7327   -5.5166 C.ar      1 <0>        -0.0948
      3 C3          0.6839    7.1884   -5.1760 C.ar      1 <0>        -0.1436
      4 C4         -0.4791    7.9243   -5.3647 C.ar      1 <0>         0.0831
      5 C5         -0.4082    9.2040   -5.9005 C.ar      1 <0>        -0.1605
      6 C6          0.8182    9.7443   -6.2340 C.ar      1 <0>        -0.0845
      7 N1         -1.7174    7.3767   -5.0218 N.pl3     1 <0>        -0.4441
      8 C7         -2.7940    8.3888   -5.1304 C.3       1 <0>         0.2267
      9 N2         -3.7515    8.0843   -4.0595 N.am      1 <0>        -0.7306
     10 C8         -3.1660    7.2844   -3.1435 C.2       1 <0>         0.5352
     11 O1         -3.6864    6.8643   -2.1317 O.2       1 <0>        -0.5114
     12 C9         -1.7535    7.0026   -3.5927 C.3       1 <0>         0.0543
     13 C10        -0.7629    7.8531   -2.8022 C.3       1 <0>        -0.1656
     14 C11        -0.7831    7.4206   -1.3334 C.3       1 <0>        -0.0024
     15 N3         -0.4415    5.9955   -1.2382 N.4       1 <0>        -0.3899
     16 C12        -1.4266    5.1632   -1.9405 C.3       1 <0>        -0.0134
     17 C13        -1.4277    5.5205   -3.4296 C.3       1 <0>        -0.1188
     18 C14        -0.3049    5.5795    0.1640 C.3       1 <0>         0.0575
     19 C15        -0.1994    4.0778    0.2344 C.ar      1 <0>         0.0576
     20 C16         1.0471    3.4819    0.2782 C.ar      1 <0>        -0.1449
     21 C17         1.1331    2.0998    0.3424 C.ar      1 <0>        -0.0678
     22 C18        -0.0431    1.3654    0.3603 C.ar      1 <0>        -0.1372
     23 C19        -1.2531    2.0306    0.3080 C.ar      1 <0>         0.1093
     24 N4         -1.2971    3.3476    0.2532 N.ar      1 <0>        -0.4643
     25 H1          2.9314    9.4321   -6.3107 H         1 <0>         0.1304
     26 H2          2.8110    7.1609   -5.3705 H         1 <0>         0.1313
     27 H3          0.6319    6.1915   -4.7638 H         1 <0>         0.1253
     28 H4         -1.3108    9.7772   -6.0526 H         1 <0>         0.1353
     29 H5          0.8744   10.7407   -6.6468 H         1 <0>         0.1322
     30 H6         -2.3660    9.3943   -5.0046 H         1 <0>         0.0831
     31 H7         -3.2694    8.3138   -6.1195 H         1 <0>         0.1157
     32 H8         -4.7695    8.4992   -4.0976 H         1 <0>         0.4604
     33 H9          0.2482    7.7149   -3.2127 H         1 <0>         0.1205
     34 H10        -1.0476    8.9129   -2.8777 H         1 <0>         0.1157
     35 H11        -0.0490    8.0123   -0.7668 H         1 <0>         0.1401
     36 H12        -1.7875    7.5856   -0.9163 H         1 <0>         0.1362
     37 H13        -1.1638    4.1021   -1.8182 H         1 <0>         0.1324
     38 H14        -2.4265    5.3442   -1.5192 H         1 <0>         0.1558
     39 H15        -2.1860    4.9188   -3.9520 H         1 <0>         0.1218
     40 H16        -0.4361    5.3137   -3.8586 H         1 <0>         0.1006
     41 H17         0.6012    6.0313    0.5939 H         1 <0>         0.1464
     42 H18        -1.1857    5.9123    0.7327 H         1 <0>         0.1442
     43 H19         1.9426    4.0854    0.2629 H         1 <0>         0.1444
     44 H20         2.0933    1.6067    0.3780 H         1 <0>         0.1488
     45 H21        -0.0137    0.2869    0.4099 H         1 <0>         0.1501
     46 H22        -2.1736    1.4657    0.3166 H         1 <0>         0.1710
     47 H23         0.5307    5.8511   -1.7322 H         1 <0>         0.4335
@<TRIPOS>BOND
     1    1    6 ar
     2    1    2 ar
     3    1   25 1
     4    2    3 ar
     5    2   26 1
     6    3    4 ar
     7    3   27 1
     8    4    5 ar
     9    4    7 1
    10    5    6 ar
    11    5   28 1
    12    6   29 1
    13    7   12 1
    14    7    8 1
    15    8    9 1
    16    8   30 1
    17    8   31 1
    18    9   10 am
    19    9   32 1
    20   10   11 2
    21   10   12 1
    22   12   17 1
    23   12   13 1
    24   13   14 1
    25   13   33 1
    26   13   34 1
    27   14   15 1
    28   14   35 1
    29   14   36 1
    30   15   16 1
    31   15   18 1
    32   15   47 1
    33   16   17 1
    34   16   37 1
    35   16   38 1
    36   17   39 1
    37   17   40 1
    38   18   19 1
    39   18   41 1
    40   18   42 1
    41   19   24 ar
    42   19   20 ar
    43   20   21 ar
    44   20   43 1
    45   21   22 ar
    46   21   44 1
    47   22   23 ar
    48   22   45 1
    49   23   24 ar
    50   23   46 1
@<TRIPOS>MOLECULE
ZINC24912362
   47    50     0     0     0
SMALL
USER_CHARGES
4-phenyl-8-(3-pyridylmethyl)-2,4,8-triazaspiro[4.5]decan-1-one
@<TRIPOS>ATOM
      1 C1          1.1756    1.7821   -0.0011 C.ar      1 <0>        -0.1248
      2 C2          0.9597    2.8265   -0.8814 C.ar      1 <0>        -0.0846
      3 C3         -0.2407    3.5091   -0.8644 C.ar      1 <0>        -0.1606
      4 C4         -1.2361    3.1382    0.0307 C.ar      1 <0>         0.0823
      5 C5         -1.0160    2.0886    0.9137 C.ar      1 <0>        -0.1426
      6 C6          0.1889    1.4139    0.8951 C.ar      1 <0>        -0.0949
      7 N1         -2.4537    3.8224    0.0465 N.pl3     1 <0>        -0.4437
      8 C7         -2.5377    4.7828   -1.0787 C.3       1 <0>         0.2260
      9 N2         -3.9453    4.8011   -1.4969 N.am      1 <0>        -0.7293
     10 C8         -4.5749    3.7095   -1.0134 C.2       1 <0>         0.5364
     11 O1         -5.7405    3.4254   -1.1908 O.2       1 <0>        -0.5154
     12 C9         -3.5811    2.9033   -0.2140 C.3       1 <0>         0.0539
     13 C10        -4.2019    2.4469    1.1035 C.3       1 <0>        -0.1183
     14 C11        -5.3386    1.4626    0.8134 C.3       1 <0>        -0.0217
     15 N3         -4.8137    0.3179    0.0580 N.4       1 <0>        -0.3927
     16 C12        -4.2734    0.7386   -1.2411 C.3       1 <0>        -0.0034
     17 C13        -3.1013    1.6988   -1.0194 C.3       1 <0>        -0.1658
     18 C14        -5.8417   -0.7179   -0.1099 C.3       1 <0>         0.0523
     19 C15        -6.1953   -1.2975    1.2355 C.ar      1 <0>        -0.2152
     20 C16        -5.5097   -2.3975    1.7283 C.ar      1 <0>        -0.0473
     21 C17        -5.8660   -2.8940    2.9727 C.ar      1 <0>        -0.1657
     22 C18        -6.8923   -2.2864    3.6715 C.ar      1 <0>         0.1361
     23 N4         -7.5259   -1.2447    3.1695 N.ar      1 <0>        -0.4745
     24 C19        -7.2107   -0.7430    1.9912 C.ar      1 <0>         0.1293
     25 H1          2.1171    1.2531   -0.0132 H         1 <0>         0.1306
     26 H2          1.7324    3.1115   -1.5801 H         1 <0>         0.1324
     27 H3         -0.4070    4.3275   -1.5492 H         1 <0>         0.1355
     28 H4         -1.7860    1.8008    1.6141 H         1 <0>         0.1254
     29 H5          0.3609    0.5981    1.5816 H         1 <0>         0.1313
     30 H6         -2.2132    5.7769   -0.7373 H         1 <0>         0.1164
     31 H7         -1.8857    4.4457   -1.8980 H         1 <0>         0.0838
     32 H8         -4.3255    5.6299   -2.1122 H         1 <0>         0.4611
     33 H9         -3.4351    1.9530    1.7184 H         1 <0>         0.1023
     34 H10        -4.5990    3.3192    1.6434 H         1 <0>         0.1240
     35 H11        -5.7690    1.1096    1.7622 H         1 <0>         0.1340
     36 H12        -6.1177    1.9661    0.2221 H         1 <0>         0.1532
     37 H13        -3.9241   -0.1445   -1.7963 H         1 <0>         0.1392
     38 H14        -5.0599    1.2470   -1.8181 H         1 <0>         0.1362
     39 H15        -2.7145    2.0383   -1.9916 H         1 <0>         0.1156
     40 H16        -2.3022    1.1829   -0.4668 H         1 <0>         0.1200
     41 H17        -6.7391   -0.2734   -0.5650 H         1 <0>         0.1399
     42 H18        -5.4560   -1.5149   -0.7626 H         1 <0>         0.1410
     43 H19        -4.7143   -2.8542    1.1580 H         1 <0>         0.1448
     44 H20        -5.3511   -3.7471    3.3890 H         1 <0>         0.1504
     45 H21        -7.1788   -2.6696    4.6397 H         1 <0>         0.1703
     46 H22        -7.7523    0.1113    1.6126 H         1 <0>         0.1624
     47 H23        -3.9863   -0.1148    0.6395 H         1 <0>         0.4344
@<TRIPOS>BOND
     1    1    6 ar
     2    1    2 ar
     3    1   25 1
     4    2    3 ar
     5    2   26 1
     6    3    4 ar
     7    3   27 1
     8    4    5 ar
     9    4    7 1
    10    5    6 ar
    11    5   28 1
    12    6   29 1
    13    7   12 1
    14    7    8 1
    15    8    9 1
    16    8   30 1
    17    8   31 1
    18    9   10 am
    19    9   32 1
    20   10   11 2
    21   10   12 1
    22   12   17 1
    23   12   13 1
    24   13   14 1
    25   13   33 1
    26   13   34 1
    27   14   15 1
    28   14   35 1
    29   14   36 1
    30   15   16 1
    31   15   18 1
    32   15   47 1
    33   16   17 1
    34   16   37 1
    35   16   38 1
    36   17   39 1
    37   17   40 1
    38   18   19 1
    39   18   41 1
    40   18   42 1
    41   19   24 ar
    42   19   20 ar
    43   20   21 ar
    44   20   43 1
    45   21   22 ar
    46   21   44 1
    47   22   23 ar
    48   22   45 1
    49   23   24 ar
    50   24   46 1
@<TRIPOS>MOLECULE
ZINC22454243
   70    72     0     0     0
SMALL
USER_CHARGES

@<TRIPOS>ATOM
      1 C1         -3.2721   -1.8122   -0.8663 C.3       1 <0>        -0.1682
      2 C2         -2.5254   -0.5341   -0.4793 C.3       1 <0>         0.1080
      3 N1         -1.4693   -0.8579    0.4831 N.am      1 <0>        -0.6052
      4 C3         -0.1542   -1.2949    0.0080 C.3       1 <0>         0.0965
      5 C4          0.6666   -0.0749   -0.4147 C.3       1 <0>        -0.1790
      6 C5         -1.7077   -0.7538    1.8055 C.2       1 <0>         0.5549
      7 O1         -2.8134   -0.4399    2.2009 O.2       1 <0>        -0.5290
      8 C6         -0.6242   -1.0212    2.7753 C.ar      1 <0>        -0.1173
      9 C7          0.6436   -0.4714    2.5790 C.ar      1 <0>        -0.0954
     10 C8          1.6501   -0.7244    3.4879 C.ar      1 <0>        -0.1235
     11 C9          1.4051   -1.5217    4.5918 C.ar      1 <0>        -0.0552
     12 C10         0.1508   -2.0701    4.7921 C.ar      1 <0>        -0.0966
     13 C11        -0.8662   -1.8198    3.8940 C.ar      1 <0>        -0.0690
     14 C12         2.5096   -1.7942    5.5803 C.3       1 <0>         0.1748
     15 H1          3.2860   -1.0364    5.4756 H         1 <0>         0.0728
     16 C13         3.0975   -3.1560    5.3137 C.ar      1 <0>        -0.0809
     17 C14         2.3630   -4.2930    5.5964 C.ar      1 <0>        -0.1113
     18 C15         2.8995   -5.5436    5.3530 C.ar      1 <0>        -0.1008
     19 C16         4.1717   -5.6604    4.8269 C.ar      1 <0>        -0.1350
     20 C17         4.9105   -4.5214    4.5425 C.ar      1 <0>         0.1144
     21 C18         4.3674   -3.2672    4.7820 C.ar      1 <0>        -0.1357
     22 O2          6.1621   -4.6336    4.0249 O.3       1 <0>        -0.4985
     23 N2          1.9666   -1.7539    6.9446 N.3       1 <0>        -0.5268
     24 C19         2.8494   -2.4599    7.8840 C.3       1 <0>         0.0237
     25 C20         2.2203   -2.4462    9.2789 C.3       1 <0>         0.0324
     26 H2          1.2577   -2.9566    9.2483 H         1 <0>         0.1446
     27 N3          2.0243   -1.0571    9.7142 N.4       1 <0>        -0.3829
     28 C21         1.1211   -0.3722    8.7801 C.3       1 <0>         0.0017
     29 C22         1.7411   -0.3686    7.3810 C.3       1 <0>         0.0645
     30 H3          2.6916    0.1642    7.4058 H         1 <0>         0.0667
     31 C23         0.7911    0.3263    6.4035 C.3       1 <0>        -0.1641
     32 C24         1.4371   -1.0445   11.0607 C.3       1 <0>         0.0243
     33 C25         1.3494    0.3757   11.5572 C.2       1 <0>        -0.2351
     34 C26         0.2002    0.8593   11.9590 C.2       1 <0>        -0.1052
     35 C27         3.1467   -3.1632   10.2631 C.3       1 <0>        -0.1835
     36 H4         -4.0578   -1.5713   -1.5823 H         1 <0>         0.0705
     37 H5         -2.5744   -2.5185   -1.3164 H         1 <0>         0.0561
     38 H6         -3.7160   -2.2575    0.0241 H         1 <0>         0.0586
     39 H7         -2.0815   -0.0889   -1.3697 H         1 <0>         0.0795
     40 H8         -3.2231    0.1721   -0.0291 H         1 <0>         0.0877
     41 H9          0.3645   -1.8223    0.8086 H         1 <0>         0.0858
     42 H10        -0.2793   -1.9619   -0.8450 H         1 <0>         0.0817
     43 H11         0.3704    0.2326   -1.4175 H         1 <0>         0.0655
     44 H12         0.4881    0.7428    0.2837 H         1 <0>         0.0641
     45 H13         1.7261   -0.3309   -0.4112 H         1 <0>         0.0719
     46 H14         0.8363    0.1505    1.7173 H         1 <0>         0.1430
     47 H15         2.6316   -0.2996    3.3372 H         1 <0>         0.1275
     48 H16        -0.0338   -2.6919    5.6556 H         1 <0>         0.1342
     49 H17        -1.8462   -2.2446    4.0540 H         1 <0>         0.1312
     50 H18         1.3686   -4.2039    6.0084 H         1 <0>         0.1317
     51 H19         2.3238   -6.4301    5.5747 H         1 <0>         0.1319
     52 H20         4.5907   -6.6376    4.6376 H         1 <0>         0.1332
     53 H21         4.9388   -2.3788    4.5569 H         1 <0>         0.1284
     54 H22         6.1878   -4.6518    3.0584 H         1 <0>         0.3977
     55 H23         2.9812   -3.4905    7.5545 H         1 <0>         0.1331
     56 H24         3.8182   -1.9615    7.9170 H         1 <0>         0.0619
     57 H25         0.1642   -0.8933    8.7521 H         1 <0>         0.1367
     58 H26         0.9662    0.6546    9.1114 H         1 <0>         0.1362
     59 H27        -0.1596   -0.2064    6.3800 H         1 <0>         0.0798
     60 H28         0.6241    1.3536    6.7274 H         1 <0>         0.0701
     61 H29         1.2320    0.3268    5.4066 H         1 <0>         0.0908
     62 H30         0.4383   -1.4794   11.0256 H         1 <0>         0.1301
     63 H31         2.0637   -1.6273   11.7358 H         1 <0>         0.1386
     64 H32         2.2341    0.9948   11.5817 H         1 <0>         0.1330
     65 H33        -0.6844    0.2403   11.9344 H         1 <0>         0.1115
     66 H34         0.1374    1.8771   12.3148 H         1 <0>         0.1229
     67 H35         4.1093   -2.6528   10.2936 H         1 <0>         0.0811
     68 H36         2.6986   -3.1535   11.2567 H         1 <0>         0.0863
     69 H37         3.2921   -4.1940    9.9402 H         1 <0>         0.1080
     70 H38         2.9140   -0.5815    9.7313 H         1 <0>         0.4184
@<TRIPOS>BOND
     1    1    2 1
     2    1   36 1
     3    1   37 1
     4    1   38 1
     5    2    3 1
     6    2   39 1
     7    2   40 1
     8    3    4 1
     9    3    6 am
    10    4    5 1
    11    4   41 1
    12    4   42 1
    13    5   43 1
    14    5   44 1
    15    5   45 1
    16    6    7 2
    17    6    8 1
    18    8   13 ar
    19    8    9 ar
    20    9   10 ar
    21    9   46 1
    22   10   11 ar
    23   10   47 1
    24   11   12 ar
    25   11   14 1
    26   12   13 ar
    27   12   48 1
    28   13   49 1
    29   14   15 1
    30   14   16 1
    31   14   23 1
    32   16   21 ar
    33   16   17 ar
    34   17   18 ar
    35   17   50 1
    36   18   19 ar
    37   18   51 1
    38   19   20 ar
    39   19   52 1
    40   20   21 ar
    41   20   22 1
    42   21   53 1
    43   22   54 1
    44   23   29 1
    45   23   24 1
    46   24   25 1
    47   24   55 1
    48   24   56 1
    49   25   26 1
    50   25   27 1
    51   25   35 1
    52   27   28 1
    53   27   32 1
    54   27   70 1
    55   28   29 1
    56   28   57 1
    57   28   58 1
    58   29   30 1
    59   29   31 1
    60   31   59 1
    61   31   60 1
    62   31   61 1
    63   32   33 1
    64   32   62 1
    65   32   63 1
    66   33   34 2
    67   33   64 1
    68   34   65 1
    69   34   66 1
    70   35   67 1
    71   35   68 1
    72   35   69 1
@<TRIPOS>MOLECULE
ZINC22454243
   70    72     0     0     0
SMALL
USER_CHARGES

@<TRIPOS>ATOM
      1 C1         -3.7957   -4.5388    0.0807 C.3       1 <0>        -0.1689
      2 C2         -3.1544   -3.1498    0.0949 C.3       1 <0>         0.1073
      3 N1         -2.1636   -3.0803    1.1718 N.am      1 <0>        -0.6022
      4 C3         -0.7946   -3.5470    0.9388 C.3       1 <0>         0.0929
      5 C4         -0.0239   -2.4906    0.1444 C.3       1 <0>        -0.1805
      6 C5         -2.5115   -2.5871    2.3768 C.2       1 <0>         0.5504
      7 O1         -3.6616   -2.2559    2.5890 O.2       1 <0>        -0.5208
      8 C6         -1.4942   -2.4490    3.4407 C.ar      1 <0>        -0.0966
      9 C7         -0.2346   -1.9269    3.1425 C.ar      1 <0>        -0.0883
     10 C8          0.7100   -1.8001    4.1400 C.ar      1 <0>        -0.0995
     11 C9          0.4110   -2.1897    5.4336 C.ar      1 <0>        -0.0989
     12 C10        -0.8355   -2.7085    5.7358 C.ar      1 <0>        -0.1224
     13 C11        -1.7912   -2.8347    4.7489 C.ar      1 <0>        -0.0537
     14 C12         1.4480   -2.0489    6.5180 C.3       1 <0>         0.1307
     15 H1          2.2618   -1.4169    6.1626 H         1 <0>         0.1520
     16 C13         1.9881   -3.4094    6.8763 C.ar      1 <0>        -0.1123
     17 C14         1.2668   -4.2403    7.7140 C.ar      1 <0>        -0.1350
     18 C15         1.7596   -5.4889    8.0446 C.ar      1 <0>        -0.0827
     19 C16         2.9746   -5.9095    7.5389 C.ar      1 <0>        -0.1210
     20 C17         3.7000   -5.0779    6.6985 C.ar      1 <0>         0.1293
     21 C18         3.2004   -3.8275    6.3633 C.ar      1 <0>        -0.1150
     22 O2          4.8954   -5.4892    6.1998 O.3       1 <0>        -0.4928
     23 N2          0.8354   -1.4371    7.7048 N.4       1 <0>        -0.3820
     24 C19         1.7841   -1.4854    8.8251 C.3       1 <0>        -0.0060
     25 C20         1.1395   -0.8652   10.0667 C.3       1 <0>         0.0612
     26 H2          0.2483   -1.4324   10.3356 H         1 <0>         0.0643
     27 N3          0.7663    0.5267    9.7779 N.3       1 <0>        -0.5312
     28 C21        -0.1641    0.5928    8.6421 C.3       1 <0>         0.0331
     29 C22         0.4912   -0.0394    7.4123 C.3       1 <0>         0.0366
     30 H3          1.3965    0.5123    7.1590 H         1 <0>         0.1457
     31 C23        -0.4828    0.0100    6.2334 C.3       1 <0>        -0.1982
     32 C24         0.1946    1.1756   10.9653 C.3       1 <0>         0.0780
     33 C25         0.0528    2.6542   10.7106 C.2       1 <0>        -0.1650
     34 C26        -1.1111    3.2361   10.8611 C.2       1 <0>        -0.1713
     35 C27         2.1346   -0.8970   11.2284 C.3       1 <0>        -0.1522
     36 H4         -4.5329   -4.5905   -0.7206 H         1 <0>         0.0727
     37 H5         -3.0260   -5.2927   -0.0847 H         1 <0>         0.0568
     38 H6         -4.2850   -4.7229    1.0371 H         1 <0>         0.0589
     39 H7         -2.6651   -2.9657   -0.8615 H         1 <0>         0.0822
     40 H8         -3.9242   -2.3959    0.2602 H         1 <0>         0.0898
     41 H9         -0.3001   -3.7146    1.8955 H         1 <0>         0.0848
     42 H10        -0.8196   -4.4793    0.3745 H         1 <0>         0.0844
     43 H11        -0.3677   -2.4914   -0.8899 H         1 <0>         0.0688
     44 H12        -0.1964   -1.5081    0.5839 H         1 <0>         0.0633
     45 H13         1.0413   -2.7197    0.1735 H         1 <0>         0.0748
     46 H14         0.0002   -1.6231    2.1331 H         1 <0>         0.1542
     47 H15         1.6850   -1.3963    3.9106 H         1 <0>         0.1422
     48 H16        -1.0624   -3.0110    6.7474 H         1 <0>         0.1241
     49 H17        -2.7655   -3.2352    4.9870 H         1 <0>         0.1431
     50 H18         0.3172   -3.9131    8.1109 H         1 <0>         0.1180
     51 H19         1.1944   -6.1360    8.6990 H         1 <0>         0.1410
     52 H20         3.3595   -6.8847    7.7981 H         1 <0>         0.1426
     53 H21         3.7610   -3.1801    5.7053 H         1 <0>         0.1404
     54 H22         4.8296   -5.9564    5.3556 H         1 <0>         0.4032
     55 H23         2.0487   -2.5223    9.0326 H         1 <0>         0.1399
     56 H24         2.6827   -0.9263    8.5646 H         1 <0>         0.1403
     57 H25        -1.0768    0.0497    8.8876 H         1 <0>         0.0587
     58 H26        -0.4061    1.6343    8.4304 H         1 <0>         0.1264
     59 H27        -1.2578   -0.7441    6.3705 H         1 <0>         0.0839
     60 H28        -0.9415    0.9974    6.1823 H         1 <0>         0.1010
     61 H29         0.0572   -0.1881    5.3075 H         1 <0>         0.0991
     62 H30        -0.7854    0.7478   11.1768 H         1 <0>         0.0491
     63 H31         0.8528    1.0156   11.8193 H         1 <0>         0.1015
     64 H32         0.9108    3.2339   10.4038 H         1 <0>         0.1193
     65 H33        -1.9691    2.6564   11.1679 H         1 <0>         0.0969
     66 H34        -1.2127    4.2957   10.6785 H         1 <0>         0.1068
     67 H35         3.0253   -0.3291   10.9595 H         1 <0>         0.0790
     68 H36         1.6752   -0.4552   12.1126 H         1 <0>         0.0800
     69 H37         2.4124   -1.9294   11.4407 H         1 <0>         0.0756
     70 H38        -0.0012   -1.9448    7.9508 H         1 <0>         0.4126
@<TRIPOS>BOND
     1    1    2 1
     2    1   36 1
     3    1   37 1
     4    1   38 1
     5    2    3 1
     6    2   39 1
     7    2   40 1
     8    3    4 1
     9    3    6 am
    10    4    5 1
    11    4   41 1
    12    4   42 1
    13    5   43 1
    14    5   44 1
    15    5   45 1
    16    6    7 2
    17    6    8 1
    18    8   13 ar
    19    8    9 ar
    20    9   10 ar
    21    9   46 1
    22   10   11 ar
    23   10   47 1
    24   11   12 ar
    25   11   14 1
    26   12   13 ar
    27   12   48 1
    28   13   49 1
    29   14   15 1
    30   14   16 1
    31   14   23 1
    32   16   21 ar
    33   16   17 ar
    34   17   18 ar
    35   17   50 1
    36   18   19 ar
    37   18   51 1
    38   19   20 ar
    39   19   52 1
    40   20   21 ar
    41   20   22 1
    42   21   53 1
    43   22   54 1
    44   23   29 1
    45   23   24 1
    46   23   70 1
    47   24   25 1
    48   24   55 1
    49   24   56 1
    50   25   26 1
    51   25   27 1
    52   25   35 1
    53   27   28 1
    54   27   32 1
    55   28   29 1
    56   28   57 1
    57   28   58 1
    58   29   30 1
    59   29   31 1
    60   31   59 1
    61   31   60 1
    62   31   61 1
    63   32   33 1
    64   32   62 1
    65   32   63 1
    66   33   34 2
    67   33   64 1
    68   34   65 1
    69   34   66 1
    70   35   67 1
    71   35   68 1
    72   35   69 1
@<TRIPOS>MOLECULE
ZINC22454243
   69    71     0     0     0
SMALL
USER_CHARGES

@<TRIPOS>ATOM
      1 C1         -1.6361    0.7400   -0.4048 C.3       1 <0>        -0.1678
      2 C2         -0.4795   -0.2224   -0.1279 C.3       1 <0>         0.1108
      3 N1          0.4432   -0.2172   -1.2658 N.am      1 <0>        -0.6082
      4 C3          1.5612    0.7290   -1.2981 C.3       1 <0>         0.0925
      5 C4          2.6581    0.2551   -0.3424 C.3       1 <0>        -0.1780
      6 C5          0.2635   -1.0829   -2.2831 C.2       1 <0>         0.5592
      7 O1         -0.6961   -1.8290   -2.2839 O.2       1 <0>        -0.5319
      8 C6          1.2336   -1.1251   -3.3980 C.ar      1 <0>        -0.1322
      9 C7          2.6016   -1.0221   -3.1410 C.ar      1 <0>        -0.0992
     10 C8          3.5016   -1.0626   -4.1859 C.ar      1 <0>        -0.1277
     11 C9          3.0506   -1.2045   -5.4862 C.ar      1 <0>        -0.0354
     12 C10         1.6958   -1.3067   -5.7478 C.ar      1 <0>        -0.0943
     13 C11         0.7857   -1.2739   -4.7115 C.ar      1 <0>        -0.0670
     14 C12         4.0394   -1.2475   -6.6226 C.3       1 <0>         0.1636
     15 H1          5.0218   -1.5231   -6.2392 H         1 <0>         0.0640
     16 C13         4.1166    0.1097   -7.2730 C.ar      1 <0>        -0.0647
     17 C14         3.0645    0.5664   -8.0456 C.ar      1 <0>        -0.1032
     18 C15         3.1322    1.8110   -8.6435 C.ar      1 <0>        -0.1050
     19 C16         4.2520    2.6017   -8.4708 C.ar      1 <0>        -0.1414
     20 C17         5.3087    2.1459   -7.6963 C.ar      1 <0>         0.1062
     21 C18         5.2357    0.8989   -7.0922 C.ar      1 <0>        -0.1362
     22 O2          6.4112    2.9218   -7.5248 O.3       1 <0>        -0.4990
     23 N2          3.6040   -2.2411   -7.6132 N.3       1 <0>        -0.5248
     24 C19         4.2086   -1.9758   -8.9261 C.3       1 <0>         0.0559
     25 C20         3.6696   -2.9819   -9.9457 C.3       1 <0>         0.0851
     26 H2          2.5899   -2.8638  -10.0373 H         1 <0>         0.0496
     27 N3          3.9770   -4.3460   -9.4936 N.3       1 <0>        -0.5331
     28 C21         3.3724   -4.6113   -8.1807 C.3       1 <0>         0.0659
     29 C22         3.9114   -3.6052   -7.1611 C.3       1 <0>         0.0883
     30 H3          4.9911   -3.7233   -7.0695 H         1 <0>         0.0512
     31 C23         3.2532   -3.8531   -5.8023 C.3       1 <0>        -0.1582
     32 C24         3.5416   -5.3396  -10.4841 C.3       1 <0>         0.0755
     33 C25         4.0858   -6.6941  -10.1097 C.2       1 <0>        -0.1452
     34 C26         3.2716   -7.7102   -9.9662 C.2       1 <0>        -0.1906
     35 C27         4.3274   -2.7337  -11.3046 C.3       1 <0>        -0.1494
     36 H4         -1.2443    1.7467   -0.5503 H         1 <0>         0.0550
     37 H5         -2.1655    0.4229   -1.3033 H         1 <0>         0.0597
     38 H6         -2.3226    0.7362    0.4418 H         1 <0>         0.0673
     39 H7          0.0500    0.0947    0.7706 H         1 <0>         0.0779
     40 H8         -0.8713   -1.2291    0.0175 H         1 <0>         0.0839
     41 H9          1.9608    0.7849   -2.3106 H         1 <0>         0.0934
     42 H10         1.2120    1.7146   -0.9903 H         1 <0>         0.0765
     43 H11         3.5738    0.8143   -0.5345 H         1 <0>         0.0720
     44 H12         2.3400    0.4212    0.6868 H         1 <0>         0.0627
     45 H13         2.8419   -0.8078   -0.4988 H         1 <0>         0.0643
     46 H14         2.9549   -0.9105   -2.1265 H         1 <0>         0.1392
     47 H15         4.5604   -0.9830   -3.9885 H         1 <0>         0.1255
     48 H16         1.3503   -1.4170   -6.7651 H         1 <0>         0.1358
     49 H17        -0.2713   -1.3586   -4.9166 H         1 <0>         0.1287
     50 H18         2.1886   -0.0505   -8.1824 H         1 <0>         0.1318
     51 H19         2.3093    2.1654   -9.2465 H         1 <0>         0.1283
     52 H20         4.3048    3.5736   -8.9387 H         1 <0>         0.1282
     53 H21         6.0550    0.5437   -6.4848 H         1 <0>         0.1265
     54 H22         6.3626    3.5105   -6.7593 H         1 <0>         0.3911
     55 H23         3.9564   -0.9644   -9.2449 H         1 <0>         0.0923
     56 H24         5.2917   -2.0754   -8.8545 H         1 <0>         0.0436
     57 H25         2.2893   -4.5117   -8.2523 H         1 <0>         0.0425
     58 H26         3.6246   -5.6227   -7.8619 H         1 <0>         0.0817
     59 H27         2.1735   -3.7358   -5.8948 H         1 <0>         0.0666
     60 H28         3.4814   -4.8649   -5.4672 H         1 <0>         0.0579
     61 H29         3.6359   -3.1351   -5.0769 H         1 <0>         0.0704
     62 H30         2.4525   -5.3787  -10.5051 H         1 <0>         0.0381
     63 H31         3.9140   -5.0580  -11.4691 H         1 <0>         0.0894
     64 H32         5.1470   -6.8270   -9.9596 H         1 <0>         0.1132
     65 H33         2.2104   -7.5773  -10.1162 H         1 <0>         0.0940
     66 H34         3.6616   -8.6809   -9.6978 H         1 <0>         0.0995
     67 H35         5.4070   -2.8526  -11.2128 H         1 <0>         0.0645
     68 H36         3.9433   -3.4504  -12.0305 H         1 <0>         0.0608
     69 H37         4.1005   -1.7212  -11.6386 H         1 <0>         0.0625
@<TRIPOS>BOND
     1    1    2 1
     2    1   36 1
     3    1   37 1
     4    1   38 1
     5    2    3 1
     6    2   39 1
     7    2   40 1
     8    3    4 1
     9    3    6 am
    10    4    5 1
    11    4   41 1
    12    4   42 1
    13    5   43 1
    14    5   44 1
    15    5   45 1
    16    6    7 2
    17    6    8 1
    18    8   13 ar
    19    8    9 ar
    20    9   10 ar
    21    9   46 1
    22   10   11 ar
    23   10   47 1
    24   11   12 ar
    25   11   14 1
    26   12   13 ar
    27   12   48 1
    28   13   49 1
    29   14   15 1
    30   14   16 1
    31   14   23 1
    32   16   21 ar
    33   16   17 ar
    34   17   18 ar
    35   17   50 1
    36   18   19 ar
    37   18   51 1
    38   19   20 ar
    39   19   52 1
    40   20   21 ar
    41   20   22 1
    42   21   53 1
    43   22   54 1
    44   23   29 1
    45   23   24 1
    46   24   25 1
    47   24   55 1
    48   24   56 1
    49   25   26 1
    50   25   27 1
    51   25   35 1
    52   27   28 1
    53   27   32 1
    54   28   29 1
    55   28   57 1
    56   28   58 1
    57   29   30 1
    58   29   31 1
    59   31   59 1
    60   31   60 1
    61   31   61 1
    62   32   33 1
    63   32   62 1
    64   32   63 1
    65   33   34 2
    66   33   64 1
    67   34   65 1
    68   34   66 1
    69   35   67 1
    70   35   68 1
    71   35   69 1
@<TRIPOS>MOLECULE
ZINC29043518
   53    55     0     0     0
SMALL
USER_CHARGES
2-(3,4-dichloro-N-methyl-anilino)-1-[(2R)-2-(pyrrolidin-1-ylmethyl)-1-piperidyl]ethanone
@<TRIPOS>ATOM
      1 C1          4.3618    1.0374    1.9337 C.3       1 <0>         0.0843
      2 N1          4.0571    1.8260    0.7372 N.pl3     1 <0>        -0.6085
      3 C2          3.3087    3.0796    0.8571 C.3       1 <0>         0.1017
      4 C3          1.8307    2.7853    0.8461 C.2       1 <0>         0.5008
      5 O1          1.4393    1.6530    0.6573 O.2       1 <0>        -0.5282
      6 N2          0.9439    3.7803    1.0461 N.am      1 <0>        -0.6069
      7 C4          1.3950    5.1744    1.1551 C.3       1 <0>         0.1005
      8 C5          0.8483    5.7692    2.4566 C.3       1 <0>        -0.1414
      9 C6         -0.6718    5.5958    2.4930 C.3       1 <0>        -0.1211
     10 C7         -1.0179    4.1054    2.4603 C.3       1 <0>        -0.1510
     11 C8         -0.4923    3.4917    1.1588 C.3       1 <0>         0.1245
     12 H1         -0.9921    3.9337    0.2843 H         1 <0>         0.0959
     13 C9         -0.7109    1.9775    1.1808 C.3       1 <0>        -0.0068
     14 N3         -2.1423    1.6919    1.3467 N.4       1 <0>        -0.4155
     15 C10        -2.9576    2.4845    0.3911 C.3       1 <0>        -0.0091
     16 C11        -4.2944    1.7034    0.3327 C.3       1 <0>        -0.1422
     17 C12        -3.8366    0.2287    0.4068 C.3       1 <0>        -0.1422
     18 C13        -2.4377    0.2736    1.0491 C.3       1 <0>         0.0044
     19 C14         4.4804    1.3823   -0.5185 C.ar      1 <0>         0.2335
     20 C15         4.2810    2.1766   -1.6407 C.ar      1 <0>        -0.1842
     21 C16         4.7057    1.7390   -2.8798 C.ar      1 <0>        -0.0475
     22 C17         5.3190    0.5051   -3.0066 C.ar      1 <0>        -0.0846
     23 C18         5.5138   -0.2918   -1.8910 C.ar      1 <0>         0.0197
     24 C19         5.0961    0.1444   -0.6475 C.ar      1 <0>        -0.1746
     25 Cl1         6.2836   -1.8393   -2.0540 Cl        1 <0>        -0.0397
     26 Cl2         5.8455   -0.0446   -4.5668 Cl        1 <0>        -0.0483
     27 H2          4.9253    0.1376    1.6461 H         1 <0>         0.0864
     28 H3          3.4239    0.7409    2.4261 H         1 <0>         0.0574
     29 H4          4.9649    1.6417    2.6273 H         1 <0>         0.0642
     30 H5          3.5764    3.5776    1.8007 H         1 <0>         0.1145
     31 H6          3.5578    3.7377    0.0116 H         1 <0>         0.1177
     32 H7          2.4946    5.2043    1.1644 H         1 <0>         0.0975
     33 H8          1.0198    5.7495    0.2957 H         1 <0>         0.0840
     34 H9          1.2988    5.2493    3.3150 H         1 <0>         0.0740
     35 H10         1.0980    6.8394    2.5039 H         1 <0>         0.0912
     36 H11        -1.0700    6.0439    3.4153 H         1 <0>         0.0812
     37 H12        -1.1188    6.0946    1.6204 H         1 <0>         0.0730
     38 H13        -0.5512    3.6017    3.3196 H         1 <0>         0.0836
     39 H14        -2.1097    3.9813    2.5112 H         1 <0>         0.0743
     40 H15        -0.3574    1.5422    0.2345 H         1 <0>         0.1572
     41 H16        -0.1498    1.5381    2.0187 H         1 <0>         0.1346
     42 H17        -3.0840    3.5068    0.7770 H         1 <0>         0.1293
     43 H18        -2.4484    2.5207   -0.5833 H         1 <0>         0.1284
     44 H19        -4.9263    1.9939    1.1849 H         1 <0>         0.0971
     45 H20        -4.8156    1.9383   -0.6071 H         1 <0>         0.1143
     46 H21        -4.5460   -0.3450    1.0214 H         1 <0>         0.1056
     47 H22        -3.8030   -0.1962   -0.6073 H         1 <0>         0.1040
     48 H23        -1.6797   -0.1213    0.3566 H         1 <0>         0.1294
     49 H24        -2.4202   -0.3083    1.9824 H         1 <0>         0.1292
     50 H25         3.7984    3.1379   -1.5434 H         1 <0>         0.1304
     51 H26         4.5549    2.3586   -3.7514 H         1 <0>         0.1435
     52 H27         5.2480   -0.4771    0.2225 H         1 <0>         0.1449
     53 H28        -2.3784    1.9423    2.3915 H         1 <0>         0.4397
@<TRIPOS>BOND
     1    1    2 1
     2    1   27 1
     3    1   28 1
     4    1   29 1
     5    2    3 1
     6    2   19 1
     7    3    4 1
     8    3   30 1
     9    3   31 1
    10    4    5 2
    11    4    6 am
    12    6   11 1
    13    6    7 1
    14    7    8 1
    15    7   32 1
    16    7   33 1
    17    8    9 1
    18    8   34 1
    19    8   35 1
    20    9   10 1
    21    9   36 1
    22    9   37 1
    23   10   11 1
    24   10   38 1
    25   10   39 1
    26   11   12 1
    27   11   13 1
    28   13   14 1
    29   13   40 1
    30   13   41 1
    31   14   18 1
    32   14   15 1
    33   14   53 1
    34   15   16 1
    35   15   42 1
    36   15   43 1
    37   16   17 1
    38   16   44 1
    39   16   45 1
    40   17   18 1
    41   17   46 1
    42   17   47 1
    43   18   48 1
    44   18   49 1
    45   19   24 ar
    46   19   20 ar
    47   20   21 ar
    48   20   50 1
    49   21   22 ar
    50   21   51 1
    51   22   23 ar
    52   22   26 1
    53   23   24 ar
    54   23   25 1
    55   24   52 1
@<TRIPOS>MOLECULE
ZINC29043520
   53    55     0     0     0
SMALL
USER_CHARGES
2-(3,4-dichloro-N-methyl-anilino)-1-[(2S)-2-(pyrrolidin-1-ylmethyl)-1-piperidyl]ethanone
@<TRIPOS>ATOM
      1 C1          0.9454   -0.8315   -0.1527 C.3       1 <0>         0.0819
      2 N1          0.7249    0.5994    0.0715 N.pl3     1 <0>        -0.6083
      3 C2          1.8548    1.5307    0.0247 C.3       1 <0>         0.1011
      4 C3          2.0315    2.0358   -1.3841 C.2       1 <0>         0.5115
      5 O1          1.2869    1.6553   -2.2626 O.2       1 <0>        -0.5354
      6 N2          3.0169    2.9104   -1.6678 N.am      1 <0>        -0.5915
      7 C4          3.8517    3.4709   -0.5966 C.3       1 <0>         0.0916
      8 C5          5.3269    3.2239   -0.9469 C.3       1 <0>        -0.1404
      9 C6          5.6184    3.7973   -2.3356 C.3       1 <0>        -0.1261
     10 C7          4.7508    3.0850   -3.3758 C.3       1 <0>        -0.1276
     11 C8          3.2727    3.3261   -3.0536 C.3       1 <0>         0.1136
     12 H1          3.0203    4.3937   -3.1347 H         1 <0>         0.1035
     13 C9          2.3998    2.5051   -4.0049 C.3       1 <0>         0.0017
     14 N3          1.0073    2.9633   -3.9102 N.4       1 <0>        -0.4085
     15 C10         0.9163    4.4332   -4.1035 C.3       1 <0>        -0.0128
     16 C11        -0.5671    4.6479   -4.4958 C.3       1 <0>        -0.1385
     17 C12        -0.8734    3.4155   -5.3776 C.3       1 <0>        -0.1395
     18 C13         0.1783    2.3640   -4.9783 C.3       1 <0>         0.0095
     19 C14        -0.5639    1.0766    0.3242 C.ar      1 <0>         0.2284
     20 C15        -1.6370    0.1952    0.3632 C.ar      1 <0>        -0.1723
     21 C16        -2.9099    0.6688    0.6130 C.ar      1 <0>        -0.0441
     22 C17        -3.1177    2.0204    0.8247 C.ar      1 <0>        -0.0823
     23 C18        -2.0502    2.9017    0.7870 C.ar      1 <0>         0.0174
     24 C19        -0.7734    2.4318    0.5425 C.ar      1 <0>        -0.1902
     25 Cl1        -2.3146    4.5965    1.0541 Cl        1 <0>        -0.0413
     26 Cl2        -4.7193    2.6122    1.1385 Cl        1 <0>        -0.0437
     27 H2         -0.0131   -1.3662   -0.0789 H         1 <0>         0.0896
     28 H3          1.6407   -1.2187    0.6067 H         1 <0>         0.0672
     29 H4          1.3742   -0.9839   -1.1542 H         1 <0>         0.0617
     30 H5          1.6586    2.3793    0.6966 H         1 <0>         0.1239
     31 H6          2.7705    1.0127    0.3461 H         1 <0>         0.1281
     32 H7          3.6623    4.5511   -0.5113 H         1 <0>         0.0932
     33 H8          3.6050    2.9791    0.3559 H         1 <0>         0.1007
     34 H9          5.9683    3.7177   -0.2020 H         1 <0>         0.0942
     35 H10         5.5282    2.1425   -0.9448 H         1 <0>         0.0763
     36 H11         5.3900    4.8733   -2.3433 H         1 <0>         0.0734
     37 H12         6.6804    3.6461   -2.5792 H         1 <0>         0.0850
     38 H13         4.9787    3.4809   -4.3764 H         1 <0>         0.0928
     39 H14         4.9614    2.0056   -3.3518 H         1 <0>         0.0819
     40 H15         2.7592    2.6349   -5.0364 H         1 <0>         0.1206
     41 H16         2.4556    1.4419   -3.7283 H         1 <0>         0.1405
     42 H17         1.1818    4.9434   -3.1659 H         1 <0>         0.1131
     43 H18         1.6109    4.7422   -4.8985 H         1 <0>         0.1161
     44 H19        -1.1855    4.6823   -3.5867 H         1 <0>         0.0911
     45 H20        -0.6679    5.5963   -5.0439 H         1 <0>         0.1089
     46 H21        -1.8954    3.0636   -5.1736 H         1 <0>         0.0999
     47 H22        -0.7860    3.6929   -6.4385 H         1 <0>         0.0993
     48 H23         0.8161    2.1074   -5.8370 H         1 <0>         0.1122
     49 H24        -0.3080    1.4537   -4.5978 H         1 <0>         0.1210
     50 H25        -1.4759   -0.8599    0.1978 H         1 <0>         0.1441
     51 H26        -3.7441   -0.0164    0.6437 H         1 <0>         0.1478
     52 H27         0.0598    3.1185    0.5174 H         1 <0>         0.1310
     53 H28         0.6594    2.6597   -2.9118 H         1 <0>         0.4289
@<TRIPOS>BOND
     1    1    2 1
     2    1   27 1
     3    1   28 1
     4    1   29 1
     5    2    3 1
     6    2   19 1
     7    3    4 1
     8    3   30 1
     9    3   31 1
    10    4    5 2
    11    4    6 am
    12    6   11 1
    13    6    7 1
    14    7    8 1
    15    7   32 1
    16    7   33 1
    17    8    9 1
    18    8   34 1
    19    8   35 1
    20    9   10 1
    21    9   36 1
    22    9   37 1
    23   10   11 1
    24   10   38 1
    25   10   39 1
    26   11   12 1
    27   11   13 1
    28   13   14 1
    29   13   40 1
    30   13   41 1
    31   14   18 1
    32   14   15 1
    33   14   53 1
    34   15   16 1
    35   15   42 1
    36   15   43 1
    37   16   17 1
    38   16   44 1
    39   16   45 1
    40   17   18 1
    41   17   46 1
    42   17   47 1
    43   18   48 1
    44   18   49 1
    45   19   24 ar
    46   19   20 ar
    47   20   21 ar
    48   20   50 1
    49   21   22 ar
    50   21   51 1
    51   22   23 ar
    52   22   26 1
    53   23   24 ar
    54   23   25 1
    55   24   52 1
