@<TRIPOS>MOLECULE
ZINC38321402
   76    82     0     0     0
SMALL
USER_CHARGES

@<TRIPOS>ATOM
      1 C1          0.4310    1.5076   -1.3639 C.3       1 <0>        -0.1699
      2 C2         -0.0188    0.3493   -0.4713 C.3       1 <0>         0.1576
      3 C3          0.8533    0.3050    0.7849 C.3       1 <0>        -0.1001
      4 H1          0.9533   -0.7284    1.1169 H         1 <0>         0.0974
      5 C4          2.2417    0.8672    0.4567 C.3       1 <0>        -0.1345
      6 C5          2.5263    2.0512    1.3689 C.3       1 <0>        -0.0586
      7 C6          1.4722    3.1390    1.1281 C.3       1 <0>        -0.1114
      8 C7          0.0822    2.5870    1.4447 C.3       1 <0>        -0.1498
      9 C8          0.1872    1.1290    1.8917 C.3       1 <0>         0.1392
     10 C9          1.0327    1.0439    3.1653 C.3       1 <0>         0.0737
     11 H2          1.0947    0.0154    3.5210 H         1 <0>         0.1169
     12 C10         2.4211    1.5903    2.8308 C.3       1 <0>        -0.0454
     13 C11         3.5334    0.6459    3.2104 C.3       1 <0>        -0.1211
     14 C12         4.8977    1.2224    2.8250 C.3       1 <0>        -0.0107
     15 N1          4.9039    1.5632    1.3942 N.4       1 <0>        -0.3880
     16 C13         3.9169    2.6439    1.1753 C.3       1 <0>         0.0573
     17 H3          4.0109    3.0155    0.1550 H         1 <0>         0.1466
     18 C14         4.2611    3.7755    2.1430 C.3       1 <0>        -0.0941
     19 C15         3.3087    3.9382    3.2785 C.ar      1 <0>        -0.0530
     20 C16         2.4464    2.8973    3.5666 C.ar      1 <0>        -0.1746
     21 C17         1.3619    2.9528    4.4179 C.ar      1 <0>         0.1067
     22 C18         1.2530    4.0777    5.2475 C.ar      1 <0>         0.1057
     23 C19         2.1993    5.0849    5.0689 C.ar      1 <0>        -0.1016
     24 C20         3.1915    5.0414    4.1010 C.ar      1 <0>        -0.1156
     25 O1          0.2703    4.1813    6.1819 O.3       1 <0>        -0.4801
     26 O2          0.5194    1.9113    4.1927 O.3       1 <0>        -0.2684
     27 C21         6.2414    2.0255    1.0000 C.3       1 <0>         0.0212
     28 C22         7.2410    0.8761    1.1433 C.3       1 <0>        -0.2106
     29 C23         8.3675    1.0428    2.1650 C.3       1 <0>        -0.1682
     30 C24         8.6743    1.1230    0.6683 C.3       1 <0>        -0.1475
     31 O3         -1.1209    0.6142    2.1484 O.3       1 <0>        -0.3618
     32 C25        -1.8316    1.3163    3.1702 C.3       1 <0>         0.0249
     33 C26         0.1216   -0.9683   -1.2363 C.3       1 <0>        -0.0923
     34 C27         1.5655   -1.1278   -1.7166 C.3       1 <0>        -0.1503
     35 C28        -0.2410   -2.1344   -0.3145 C.3       1 <0>        -0.1511
     36 C29        -0.8193   -0.9603   -2.4428 C.3       1 <0>        -0.1409
     37 O4         -1.3846    0.5392   -0.0965 O.3       1 <0>        -0.5375
     38 H4          1.4583    1.3396   -1.6870 H         1 <0>         0.0768
     39 H5         -0.2192    1.5675   -2.2367 H         1 <0>         0.0727
     40 H6          0.3742    2.4411   -0.8040 H         1 <0>         0.0769
     41 H7          2.9945    0.0951    0.6157 H         1 <0>         0.0626
     42 H8          2.2663    1.1937   -0.5830 H         1 <0>         0.1156
     43 H9          1.6787    3.9934    1.7726 H         1 <0>         0.0852
     44 H10         1.5083    3.4547    0.0854 H         1 <0>         0.0824
     45 H11        -0.3688    3.1782    2.2417 H         1 <0>         0.0742
     46 H12        -0.5427    2.6480    0.5537 H         1 <0>         0.1053
     47 H13         3.5075    0.4765    4.2868 H         1 <0>         0.1160
     48 H14         3.3878   -0.3039    2.6958 H         1 <0>         0.0964
     49 H15         5.0916    2.1197    3.4126 H         1 <0>         0.1353
     50 H16         5.6736    0.4834    3.0253 H         1 <0>         0.1376
     51 H17         5.2547    3.5897    2.5508 H         1 <0>         0.1003
     52 H18         4.2922    4.7101    1.5830 H         1 <0>         0.1186
     53 H19         2.1577    5.9460    5.7194 H         1 <0>         0.1408
     54 H20         3.8735    5.8714    3.9904 H         1 <0>         0.1369
     55 H21         0.5111    3.8231    7.0472 H         1 <0>         0.3974
     56 H22         6.2190    2.3604   -0.0370 H         1 <0>         0.1355
     57 H23         6.5440    2.8524    1.6425 H         1 <0>         0.1310
     58 H24         6.8303   -0.1241    1.0052 H         1 <0>         0.1241
     59 H25         8.3965    1.9714    2.7352 H         1 <0>         0.1057
     60 H26         8.6981    0.1522    2.6995 H         1 <0>         0.1101
     61 H27         9.2067    0.2852    0.2180 H         1 <0>         0.1125
     62 H28         8.9051    2.1044    0.2537 H         1 <0>         0.1080
     63 H29        -2.8145    0.8648    3.3049 H         1 <0>         0.0882
     64 H30        -1.2743    1.2592    4.1052 H         1 <0>         0.0627
     65 H31        -1.9481    2.3605    2.8799 H         1 <0>         0.0458
     66 H32         2.1889   -1.4642   -0.8881 H         1 <0>         0.0512
     67 H33         1.6018   -1.8631   -2.5205 H         1 <0>         0.0620
     68 H34         1.9343   -0.1699   -2.0833 H         1 <0>         0.0601
     69 H35        -1.2697   -2.0207    0.0277 H         1 <0>         0.0606
     70 H36        -0.1410   -3.0730   -0.8595 H         1 <0>         0.0624
     71 H37         0.4292   -2.1401    0.5450 H         1 <0>         0.0560
     72 H38        -0.5609   -0.1296   -3.0995 H         1 <0>         0.0572
     73 H39        -0.7193   -1.8990   -2.9878 H         1 <0>         0.0552
     74 H40        -1.8479   -0.8467   -2.1006 H         1 <0>         0.0645
     75 H41        -1.7375   -0.1594    0.4713 H         1 <0>         0.3835
     76 H42         4.6485    0.7530    0.8497 H         1 <0>         0.4222
@<TRIPOS>BOND
     1    1    2 1
     2    1   38 1
     3    1   39 1
     4    1   40 1
     5    2    3 1
     6    2   33 1
     7    2   37 1
     8    3    4 1
     9    3    9 1
    10    3    5 1
    11    5    6 1
    12    5   41 1
    13    5   42 1
    14    6   12 1
    15    6   16 1
    16    6    7 1
    17    7    8 1
    18    7   43 1
    19    7   44 1
    20    8    9 1
    21    8   45 1
    22    8   46 1
    23    9   10 1
    24    9   31 1
    25   10   11 1
    26   10   26 1
    27   10   12 1
    28   12   20 1
    29   12   13 1
    30   13   14 1
    31   13   47 1
    32   13   48 1
    33   14   15 1
    34   14   49 1
    35   14   50 1
    36   15   16 1
    37   15   27 1
    38   15   76 1
    39   16   17 1
    40   16   18 1
    41   18   19 1
    42   18   51 1
    43   18   52 1
    44   19   24 ar
    45   19   20 ar
    46   20   21 ar
    47   21   22 ar
    48   21   26 1
    49   22   23 ar
    50   22   25 1
    51   23   24 ar
    52   23   53 1
    53   24   54 1
    54   25   55 1
    55   27   28 1
    56   27   56 1
    57   27   57 1
    58   28   30 1
    59   28   29 1
    60   28   58 1
    61   29   30 1
    62   29   59 1
    63   29   60 1
    64   30   61 1
    65   30   62 1
    66   31   32 1
    67   32   63 1
    68   32   64 1
    69   32   65 1
    70   33   34 1
    71   33   35 1
    72   33   36 1
    73   34   66 1
    74   34   67 1
    75   34   68 1
    76   35   69 1
    77   35   70 1
    78   35   71 1
    79   36   72 1
    80   36   73 1
    81   36   74 1
    82   37   75 1
@<TRIPOS>MOLECULE
ZINC53147203
   74    75     0     0     0
SMALL
USER_CHARGES

@<TRIPOS>ATOM
      1 C1         -0.0225    1.8097    0.0120 C.3       1 <0>        -0.1211
      2 S1          0.0021   -0.0041    0.0020 S.3       1 <0>        -0.2721
      3 C2         -1.7518   -0.4668    0.0163 C.3       1 <0>        -0.0758
      4 C3         -1.8771   -1.9917    0.0093 C.3       1 <0>        -0.0932
      5 C4         -3.3564   -2.3820    0.0213 C.3       1 <0>         0.0814
      6 H1         -3.8661   -1.9002   -0.8131 H         1 <0>         0.0862
      7 C5         -3.4823   -3.8780   -0.1094 C.2       1 <0>         0.4933
      8 O1         -3.8614   -4.5431    0.8396 O.co2     1 <0>        -0.6829
      9 O2         -3.2050   -4.4233   -1.1640 O.co2     1 <0>        -0.6914
     10 N1         -3.9655   -1.9489    1.2813 N.am      1 <0>        -0.6867
     11 C6         -5.2910   -1.7131    1.3430 C.2       1 <0>         0.5116
     12 O3         -5.9796   -1.8594    0.3554 O.2       1 <0>        -0.5408
     13 C7         -5.9176   -1.2675    2.6392 C.3       1 <0>         0.1412
     14 H2         -5.4677   -0.3265    2.9556 H         1 <0>         0.1113
     15 C8         -5.6812   -2.3321    3.7123 C.3       1 <0>        -0.0910
     16 C9         -6.1992   -1.8339    5.0369 C.ar      1 <0>        -0.0566
     17 C10        -5.3674   -1.1219    5.8808 C.ar      1 <0>        -0.1047
     18 C11        -5.8426   -0.6649    7.0957 C.ar      1 <0>        -0.1131
     19 C12        -7.1497   -0.9194    7.4667 C.ar      1 <0>        -0.1244
     20 C13        -7.9817   -1.6306    6.6224 C.ar      1 <0>        -0.1147
     21 C14        -7.5078   -2.0839    5.4055 C.ar      1 <0>        -0.1103
     22 N2         -7.3576   -1.0799    2.4463 N.am      1 <0>        -0.7022
     23 C15        -8.0409   -0.2388    3.2477 C.2       1 <0>         0.5105
     24 O4         -7.4636    0.3627    4.1285 O.2       1 <0>        -0.5219
     25 C16        -9.5222   -0.0457    3.0493 C.3       1 <0>         0.1012
     26 N3        -10.0269    0.9100    4.0383 N.am      1 <0>        -0.7065
     27 C17       -11.3339    1.2390    4.0517 C.2       1 <0>         0.5121
     28 O5        -12.0921    0.7438    3.2450 O.2       1 <0>        -0.5379
     29 C18       -11.8530    2.2221    5.0690 C.3       1 <0>         0.0991
     30 N4        -13.2931    2.4098    4.8762 N.am      1 <0>        -0.7135
     31 C19       -13.9763    3.2509    5.6775 C.2       1 <0>         0.4823
     32 O6        -13.3990    3.8524    6.5583 O.2       1 <0>        -0.5427
     33 C20       -15.4577    3.4439    5.4791 C.3       1 <0>         0.0845
     34 H3        -15.9216    2.4847    5.2494 H         1 <0>         0.1071
     35 C21       -15.6949    4.4155    4.3212 C.3       1 <0>        -0.0684
     36 C22       -17.1726    4.5139    4.0428 C.ar      1 <0>        -0.0781
     37 C23       -17.7642    3.6487    3.1411 C.ar      1 <0>        -0.1010
     38 C24       -19.1186    3.7372    2.8837 C.ar      1 <0>        -0.1459
     39 C25       -19.8853    4.6950    3.5313 C.ar      1 <0>         0.0996
     40 C26       -19.2895    5.5617    4.4360 C.ar      1 <0>        -0.1467
     41 C27       -17.9356    5.4657    4.6937 C.ar      1 <0>        -0.0735
     42 O7        -21.2178    4.7844    3.2795 O.3       1 <0>        -0.5022
     43 N5        -16.0489    3.9920    6.7072 N.3       1 <0>        -0.8134
     44 H4          1.0001    2.1870    0.0043 H         1 <0>         0.0982
     45 H5         -0.5497    2.1708   -0.8711 H         1 <0>         0.0736
     46 H6         -0.5327    2.1613    0.9088 H         1 <0>         0.0731
     47 H7         -2.2257   -0.0675    0.9130 H         1 <0>         0.0773
     48 H8         -2.2427   -0.0579   -0.8669 H         1 <0>         0.0796
     49 H9         -1.4032   -2.3910   -0.8874 H         1 <0>         0.0924
     50 H10        -1.3862   -2.4006    0.8924 H         1 <0>         0.0733
     51 H11        -3.4147   -1.8318    2.0712 H         1 <0>         0.3931
     52 H12        -6.2058   -3.2473    3.4380 H         1 <0>         0.0871
     53 H13        -4.6134   -2.5358    3.7932 H         1 <0>         0.0920
     54 H14        -4.3462   -0.9231    5.5910 H         1 <0>         0.1165
     55 H15        -5.1925   -0.1092    7.7554 H         1 <0>         0.1148
     56 H16        -7.5207   -0.5629    8.4162 H         1 <0>         0.1128
     57 H17        -9.0029   -1.8298    6.9124 H         1 <0>         0.1114
     58 H18        -8.1590   -2.6364    4.7443 H         1 <0>         0.1104
     59 H19        -7.8194   -1.5610    1.7419 H         1 <0>         0.4134
     60 H20        -9.7075    0.3377    2.0460 H         1 <0>         0.1019
     61 H21       -10.0329   -1.0007    3.1733 H         1 <0>         0.1012
     62 H22        -9.4205    1.3060    4.6835 H         1 <0>         0.4159
     63 H23       -11.6677    1.8386    6.0724 H         1 <0>         0.1016
     64 H24       -11.3423    3.1770    4.9450 H         1 <0>         0.1017
     65 H25       -13.7548    1.9287    4.1717 H         1 <0>         0.4137
     66 H26       -15.3090    5.3994    4.5877 H         1 <0>         0.0807
     67 H27       -15.1808    4.0524    3.4313 H         1 <0>         0.0840
     68 H28       -17.1669    2.9032    2.6372 H         1 <0>         0.1260
     69 H29       -19.5800    3.0616    2.1788 H         1 <0>         0.1266
     70 H30       -19.8842    6.3083    4.9413 H         1 <0>         0.1259
     71 H31       -17.4721    6.1373    5.4012 H         1 <0>         0.1259
     72 H32       -21.7653    4.2387    3.8604 H         1 <0>         0.3895
     73 H33       -15.9622    3.3401    7.4724 H         1 <0>         0.3470
     74 H34       -15.6352    4.8819    6.9417 H         1 <0>         0.3503
@<TRIPOS>BOND
     1    1    2 1
     2    1   44 1
     3    1   45 1
     4    1   46 1
     5    2    3 1
     6    3    4 1
     7    3   47 1
     8    3   48 1
     9    4    5 1
    10    4   49 1
    11    4   50 1
    12    5    6 1
    13    5    7 1
    14    5   10 1
    15    7    8 2
    16    7    9 1
    17   10   11 am
    18   10   51 1
    19   11   12 2
    20   11   13 1
    21   13   14 1
    22   13   15 1
    23   13   22 1
    24   15   16 1
    25   15   52 1
    26   15   53 1
    27   16   21 ar
    28   16   17 ar
    29   17   18 ar
    30   17   54 1
    31   18   19 ar
    32   18   55 1
    33   19   20 ar
    34   19   56 1
    35   20   21 ar
    36   20   57 1
    37   21   58 1
    38   22   23 am
    39   22   59 1
    40   23   24 2
    41   23   25 1
    42   25   26 1
    43   25   60 1
    44   25   61 1
    45   26   27 am
    46   26   62 1
    47   27   28 2
    48   27   29 1
    49   29   30 1
    50   29   63 1
    51   29   64 1
    52   30   31 am
    53   30   65 1
    54   31   32 2
    55   31   33 1
    56   33   34 1
    57   33   35 1
    58   33   43 1
    59   35   36 1
    60   35   66 1
    61   35   67 1
    62   36   41 ar
    63   36   37 ar
    64   37   38 ar
    65   37   68 1
    66   38   39 ar
    67   38   69 1
    68   39   40 ar
    69   39   42 1
    70   40   41 ar
    71   40   70 1
    72   41   71 1
    73   42   72 1
    74   43   73 1
    75   43   74 1
@<TRIPOS>MOLECULE
ZINC00001773
   49    54     0     0     0
SMALL
USER_CHARGES

@<TRIPOS>ATOM
      1 C1         -0.2443    1.2570    0.4660 C.ar      1 <0>        -0.1112
      2 C2          0.9083    2.0200    0.5623 C.ar      1 <0>        -0.0962
      3 C3          2.1900    1.4753    0.5348 C.ar      1 <0>         0.1149
      4 C4          2.2879    0.0876    0.3806 C.ar      1 <0>         0.0997
      5 C5          1.1121   -0.6326    0.2304 C.ar      1 <0>        -0.1886
      6 C6         -0.1602   -0.1156    0.3155 C.ar      1 <0>        -0.0596
      7 C7         -1.3282   -1.0478    0.3098 C.3       1 <0>        -0.0925
      8 C8         -0.9396   -2.5064    0.1383 C.3       1 <0>         0.0145
      9 H1         -1.6997   -3.1130    0.6306 H         1 <0>         0.1456
     10 C9          0.4167   -2.8747    0.7456 C.3       1 <0>         0.1448
     11 C10         1.4829   -2.0836    0.0450 C.3       1 <0>        -0.0304
     12 C11         1.4804   -2.4286   -1.4426 C.3       1 <0>        -0.1241
     13 C12         0.0910   -2.1126   -2.0094 C.3       1 <0>        -0.0096
     14 N1         -0.9309   -2.8716   -1.2830 N.4       1 <0>        -0.3739
     15 C13        -2.2494   -2.5851   -1.8638 C.3       1 <0>         0.0182
     16 C14        -2.3011   -3.1153   -3.2981 C.3       1 <0>        -0.2108
     17 C15        -2.4792   -2.0935   -4.4229 C.3       1 <0>        -0.1679
     18 C16        -3.6360   -3.0186   -4.0393 C.3       1 <0>        -0.1476
     19 C17         2.8868   -2.1036    0.6341 C.3       1 <0>         0.0644
     20 H2          3.5148   -2.8457    0.1412 H         1 <0>         0.1600
     21 O1          3.3506   -0.7456    0.3657 O.3       1 <0>        -0.2592
     22 C18         2.8706   -2.3034    2.1213 C.2       1 <0>         0.3361
     23 O2          3.8019   -1.8874    2.7678 O.2       1 <0>        -0.4120
     24 C19         1.7528   -2.9946    2.8421 C.3       1 <0>        -0.1575
     25 C20         0.4362   -2.5258    2.2328 C.3       1 <0>        -0.1426
     26 O3          0.6517   -4.2744    0.5791 O.3       1 <0>        -0.5414
     27 O4          3.2968    2.2569    0.6522 O.3       1 <0>        -0.4785
     28 H3         -1.2116    1.7350    0.5131 H         1 <0>         0.1418
     29 H4          0.8079    3.0906    0.6634 H         1 <0>         0.1458
     30 H5         -1.8664   -0.9385    1.2514 H         1 <0>         0.1279
     31 H6         -1.9954   -0.7663   -0.5049 H         1 <0>         0.1079
     32 H7          2.2322   -1.8319   -1.9592 H         1 <0>         0.1192
     33 H8          1.6983   -3.4885   -1.5741 H         1 <0>         0.1097
     34 H9         -0.1082   -1.0460   -1.9055 H         1 <0>         0.1319
     35 H10         0.0606   -2.3836   -3.0648 H         1 <0>         0.1393
     36 H11        -3.0221   -3.0716   -1.2686 H         1 <0>         0.1355
     37 H12        -2.4183   -1.5083   -1.8682 H         1 <0>         0.1323
     38 H13        -1.6744   -3.9837   -3.5011 H         1 <0>         0.1257
     39 H14        -2.5597   -1.0437   -4.1411 H         1 <0>         0.1059
     40 H15        -1.9696   -2.2896   -5.3663 H         1 <0>         0.1108
     41 H16        -3.8874   -3.8232   -4.7304 H         1 <0>         0.1129
     42 H17        -4.4775   -2.5773   -3.5052 H         1 <0>         0.1078
     43 H18         1.8718   -4.0736    2.7439 H         1 <0>         0.1208
     44 H19         1.7811   -2.7239    3.8976 H         1 <0>         0.1111
     45 H20         0.2965   -1.4521    2.3583 H         1 <0>         0.0987
     46 H21        -0.3620   -3.0631    2.7449 H         1 <0>         0.0955
     47 H22        -0.0114   -4.8375    1.0014 H         1 <0>         0.3955
     48 H23         3.5936    2.3840    1.5637 H         1 <0>         0.4013
     49 H24        -0.7373   -3.8580   -1.3711 H         1 <0>         0.4280
@<TRIPOS>BOND
     1    1    6 ar
     2    1    2 ar
     3    1   28 1
     4    2    3 ar
     5    2   29 1
     6    3    4 ar
     7    3   27 1
     8    4   21 1
     9    4    5 ar
    10    5   11 1
    11    5    6 ar
    12    6    7 1
    13    7    8 1
    14    7   30 1
    15    7   31 1
    16    8    9 1
    17    8   14 1
    18    8   10 1
    19   10   25 1
    20   10   11 1
    21   10   26 1
    22   11   12 1
    23   11   19 1
    24   12   13 1
    25   12   32 1
    26   12   33 1
    27   13   14 1
    28   13   34 1
    29   13   35 1
    30   14   15 1
    31   14   49 1
    32   15   16 1
    33   15   36 1
    34   15   37 1
    35   16   18 1
    36   16   17 1
    37   16   38 1
    38   17   18 1
    39   17   39 1
    40   17   40 1
    41   18   41 1
    42   18   42 1
    43   19   20 1
    44   19   21 1
    45   19   22 1
    46   22   23 2
    47   22   24 1
    48   24   25 1
    49   24   43 1
    50   24   44 1
    51   25   45 1
    52   25   46 1
    53   26   47 1
    54   27   48 1
@<TRIPOS>MOLECULE
ZINC58512951
   82    84     0     0     0
SMALL
USER_CHARGES

@<TRIPOS>ATOM
      1 C1          0.7162    1.8563   -0.5029 C.3       1 <0>        -0.1755
      2 C2          0.6586    0.3299   -0.5904 C.3       1 <0>        -0.0075
      3 C3          1.4848   -0.1438   -1.7878 C.3       1 <0>         0.1495
      4 H1          1.7800   -1.1823   -1.6375 H         1 <0>         0.1197
      5 C4          2.7165    0.7144   -1.9197 C.2       1 <0>         0.4918
      6 O1          2.9900    1.5356   -1.0701 O.2       1 <0>        -0.4668
      7 N1          3.5186    0.5520   -3.0116 N.am      1 <0>        -0.7176
      8 C5          4.7103    1.4268   -3.0696 C.3       1 <0>         0.0984
      9 C6          5.5806    1.1351   -1.8742 C.2       1 <0>         0.5169
     10 O2          5.9158   -0.0006   -1.6122 O.2       1 <0>        -0.5335
     11 N2          5.9848    2.1858   -1.0897 N.am      1 <0>        -0.6990
     12 C7          6.8316    1.7862    0.0640 C.3       1 <0>         0.1254
     13 H2          7.0627    0.7230   -0.0010 H         1 <0>         0.1132
     14 C8          6.0666    2.0628    1.3325 C.2       1 <0>         0.5126
     15 O3          6.2633    3.0807    1.9618 O.2       1 <0>        -0.4904
     16 N3          5.1483    1.1489    1.7611 N.am      1 <0>        -0.7099
     17 C9          4.4385    1.4896    3.0134 C.3       1 <0>         0.0916
     18 H3          5.0954    1.3143    3.8654 H         1 <0>         0.0677
     19 C10         3.1976    0.6022    3.1311 C.3       1 <0>        -0.0198
     20 S1          1.8931    1.2400    2.0439 S.3       1 <0>        -0.0694
     21 S2          1.3334   -0.3889    0.9323 S.3       1 <0>        -0.2221
     22 C11         2.7027    0.6068    4.5788 C.3       1 <0>        -0.1278
     23 C12         3.5521   -0.8276    2.7178 C.3       1 <0>        -0.1519
     24 C13         4.0263    2.9388    2.9827 C.2       1 <0>         0.5124
     25 O4          4.1287    3.5799    1.9507 O.co2     1 <0>        -0.6435
     26 O5          3.5906    3.4702    3.9898 O.co2     1 <0>        -0.7048
     27 C14         8.1291    2.5970    0.0565 C.3       1 <0>        -0.0791
     28 C15         8.9348    2.2443   -1.1673 C.ar      1 <0>        -0.0619
     29 C16         9.8481    1.2077   -1.1180 C.ar      1 <0>        -0.1013
     30 C17        10.5873    0.8837   -2.2400 C.ar      1 <0>        -0.1078
     31 C18        10.4131    1.5970   -3.4126 C.ar      1 <0>        -0.0409
     32 C19         9.4989    2.6343   -3.4613 C.ar      1 <0>        -0.1102
     33 C20         8.7562    2.9537   -2.3402 C.ar      1 <0>        -0.0979
     34 Cl1        11.3416    1.1910   -4.8221 Cl        1 <0>        -0.0805
     35 N4          0.6818   -0.0362   -3.0084 N.am      1 <0>        -0.7142
     36 C21         0.9583   -0.8214   -4.0683 C.2       1 <0>         0.5207
     37 O6          1.8718   -1.6171   -4.0117 O.2       1 <0>        -0.5197
     38 C22         0.1322   -0.7108   -5.3239 C.3       1 <0>         0.0849
     39 H4         -0.0882    0.3381   -5.5225 H         1 <0>         0.1056
     40 C23        -1.1769   -1.4816   -5.1427 C.3       1 <0>        -0.1126
     41 C24        -2.0554   -1.2702   -6.3487 C.ar      1 <0>        -0.0934
     42 C25        -2.9450   -0.2121   -6.3776 C.ar      1 <0>        -0.0956
     43 C26        -3.7518   -0.0163   -7.4818 C.ar      1 <0>        -0.1401
     44 C27        -3.6685   -0.8822   -8.5625 C.ar      1 <0>         0.1036
     45 C28        -2.7748   -1.9429   -8.5313 C.ar      1 <0>        -0.1400
     46 C29        -1.9665   -2.1312   -7.4269 C.ar      1 <0>        -0.1027
     47 O7         -4.4614   -0.6921   -9.6497 O.3       1 <0>        -0.5004
     48 N5          0.8811   -1.2763   -6.4541 N.3       1 <0>        -0.8244
     49 C30        -0.7944   -0.1164   -0.7648 C.3       1 <0>        -0.1228
     50 H5          1.6422    2.1575   -0.0131 H         1 <0>         0.1394
     51 H6          0.6820    2.2794   -1.5069 H         1 <0>         0.0573
     52 H7         -0.1345    2.2196    0.0736 H         1 <0>         0.0570
     53 H8          3.3202   -0.0961   -3.7055 H         1 <0>         0.4153
     54 H9          5.2670    1.2263   -3.9850 H         1 <0>         0.1074
     55 H10         4.3988    2.4711   -3.0492 H         1 <0>         0.0880
     56 H11         5.7401    3.1066   -1.2721 H         1 <0>         0.4158
     57 H12         4.9720    0.3280    1.2752 H         1 <0>         0.3912
     58 H13         2.4501    1.6255    4.8731 H         1 <0>         0.0900
     59 H14         1.8187   -0.0254    4.6626 H         1 <0>         0.0556
     60 H15         3.4866    0.2237    5.2320 H         1 <0>         0.0613
     61 H16         4.4196   -1.1653    3.2849 H         1 <0>         0.0714
     62 H17         2.7067   -1.4849    2.9214 H         1 <0>         0.0653
     63 H18         3.7826   -0.8514    1.6527 H         1 <0>         0.0688
     64 H19         7.8925    3.6609    0.0415 H         1 <0>         0.0918
     65 H20         8.7072    2.3659    0.9511 H         1 <0>         0.0890
     66 H21         9.9843    0.6512   -0.2025 H         1 <0>         0.1309
     67 H22        11.3011    0.0741   -2.2012 H         1 <0>         0.1301
     68 H23         9.3627    3.1917   -4.3762 H         1 <0>         0.1301
     69 H24         8.0391    3.7603   -2.3795 H         1 <0>         0.1307
     70 H25        -0.0489    0.6002   -3.0537 H         1 <0>         0.4056
     71 H26        -0.9606   -2.5442   -5.0326 H         1 <0>         0.0833
     72 H27        -1.6905   -1.1211   -4.2514 H         1 <0>         0.0860
     73 H28        -3.0095    0.4617   -5.5360 H         1 <0>         0.1293
     74 H29        -4.4470    0.8099   -7.5035 H         1 <0>         0.1301
     75 H30        -2.7081   -2.6183   -9.3713 H         1 <0>         0.1296
     76 H31        -1.2675   -2.9542   -7.4039 H         1 <0>         0.1260
     77 H32        -4.0700   -0.1241  -10.3274 H         1 <0>         0.3917
     78 H33         1.0977   -2.2487   -6.2940 H         1 <0>         0.3525
     79 H34         0.3756   -1.1560   -7.3191 H         1 <0>         0.3494
     80 H35        -1.1999    0.3155   -1.6797 H         1 <0>         0.0626
     81 H36        -0.8355   -1.2039   -0.8271 H         1 <0>         0.0639
     82 H37        -1.3830    0.2211    0.0883 H         1 <0>         0.0747
@<TRIPOS>BOND
     1    1    2 1
     2    1   50 1
     3    1   51 1
     4    1   52 1
     5    2   21 1
     6    2    3 1
     7    2   49 1
     8    3    4 1
     9    3    5 1
    10    3   35 1
    11    5    6 2
    12    5    7 am
    13    7    8 1
    14    7   53 1
    15    8    9 1
    16    8   54 1
    17    8   55 1
    18    9   10 2
    19    9   11 am
    20   11   12 1
    21   11   56 1
    22   12   13 1
    23   12   14 1
    24   12   27 1
    25   14   15 2
    26   14   16 am
    27   16   17 1
    28   16   57 1
    29   17   18 1
    30   17   19 1
    31   17   24 1
    32   19   20 1
    33   19   22 1
    34   19   23 1
    35   20   21 1
    36   22   58 1
    37   22   59 1
    38   22   60 1
    39   23   61 1
    40   23   62 1
    41   23   63 1
    42   24   25 2
    43   24   26 1
    44   27   28 1
    45   27   64 1
    46   27   65 1
    47   28   33 ar
    48   28   29 ar
    49   29   30 ar
    50   29   66 1
    51   30   31 ar
    52   30   67 1
    53   31   32 ar
    54   31   34 1
    55   32   33 ar
    56   32   68 1
    57   33   69 1
    58   35   36 am
    59   35   70 1
    60   36   37 2
    61   36   38 1
    62   38   39 1
    63   38   40 1
    64   38   48 1
    65   40   41 1
    66   40   71 1
    67   40   72 1
    68   41   46 ar
    69   41   42 ar
    70   42   43 ar
    71   42   73 1
    72   43   44 ar
    73   43   74 1
    74   44   45 ar
    75   44   47 1
    76   45   46 ar
    77   45   75 1
    78   46   76 1
    79   47   77 1
    80   48   78 1
    81   48   79 1
    82   49   80 1
    83   49   81 1
    84   49   82 1
@<TRIPOS>MOLECULE
ZINC53270986
   73    76     0     0     0
SMALL
USER_CHARGES

@<TRIPOS>ATOM
      1 C1         -0.0167    1.3781    0.0096 C.ar      1 <0>        -0.1170
      2 C2          1.1709    2.0855    0.0021 C.ar      1 <0>        -0.1095
      3 C3          2.3773    1.4107   -0.0130 C.ar      1 <0>        -0.1044
      4 C4          2.3960    0.0285   -0.0201 C.ar      1 <0>        -0.0636
      5 C5          1.2084   -0.6789   -0.0117 C.ar      1 <0>        -0.1084
      6 C6          0.0021   -0.0041    0.0020 C.ar      1 <0>        -0.1111
      7 C7          3.7112   -0.7071   -0.0376 C.3       1 <0>        -0.0935
      8 C8          4.1714   -0.9633    1.3989 C.3       1 <0>         0.1481
      9 H1          4.2087   -0.0191    1.9423 H         1 <0>         0.1134
     10 C9          5.5425   -1.5884    1.3832 C.2       1 <0>         0.5386
     11 O1          5.7154   -2.6833    1.8752 O.2       1 <0>        -0.5185
     12 N1          6.5766   -0.9306    0.8225 N.am      1 <0>        -0.5997
     13 C10         6.5092    0.4028    0.1973 C.3       1 <0>         0.0911
     14 C11         7.9537    0.9555    0.2854 C.3       1 <0>        -0.1318
     15 C12         8.7932   -0.3261    0.0403 C.3       1 <0>        -0.1244
     16 C13         7.9600   -1.4213    0.7386 C.3       1 <0>         0.1182
     17 H2          8.3498   -1.6043    1.7399 H         1 <0>         0.1049
     18 C14         8.0052   -2.6909   -0.0720 C.2       1 <0>         0.5103
     19 O2          6.9839   -3.1490   -0.5388 O.2       1 <0>        -0.5217
     20 N2          9.1806   -3.3172   -0.2783 N.am      1 <0>        -0.8543
     21 N3          3.2289   -1.8699    2.0593 N.am      1 <0>        -0.7165
     22 C15         2.1163   -1.3790    2.6404 C.2       1 <0>         0.5088
     23 O3          1.8954   -0.1867    2.6165 O.2       1 <0>        -0.4906
     24 C16         1.1468   -2.3115    3.3197 C.3       1 <0>         0.1242
     25 H3          1.6516   -2.8515    4.1208 H         1 <0>         0.0989
     26 C17         0.5733   -3.3111    2.2932 C.3       1 <0>        -0.1289
     27 C18        -0.9099   -3.4439    2.7289 C.3       1 <0>        -0.1305
     28 C19        -1.2235   -2.0045    3.2080 C.3       1 <0>         0.0959
     29 N4          0.0170   -1.5463    3.8670 N.am      1 <0>        -0.6001
     30 C20         0.1011   -0.5883    4.8112 C.2       1 <0>         0.5488
     31 O4          1.1792   -0.2945    5.2826 O.2       1 <0>        -0.5119
     32 C21        -1.1445    0.1179    5.2812 C.3       1 <0>         0.0929
     33 H4         -1.7959    0.3114    4.4289 H         1 <0>         0.1012
     34 C22        -1.8784   -0.7628    6.2944 C.3       1 <0>        -0.1132
     35 C23        -3.1845   -0.1127    6.6719 C.ar      1 <0>        -0.0941
     36 C24        -3.2353    0.7661    7.7382 C.ar      1 <0>        -0.1026
     37 C25        -4.4314    1.3630    8.0865 C.ar      1 <0>        -0.1389
     38 C26        -5.5823    1.0804    7.3651 C.ar      1 <0>         0.1050
     39 C27        -5.5286    0.1987    6.2954 C.ar      1 <0>        -0.1399
     40 C28        -4.3289   -0.3916    5.9479 C.ar      1 <0>        -0.0966
     41 O5         -6.7603    1.6660    7.7061 O.3       1 <0>        -0.4998
     42 N5         -0.7761    1.3908    5.9150 N.3       1 <0>        -0.8231
     43 H5         -0.9591    1.9053    0.0259 H         1 <0>         0.1144
     44 H6          1.1563    3.1654    0.0076 H         1 <0>         0.1162
     45 H7          3.3051    1.9634   -0.0196 H         1 <0>         0.1135
     46 H8          1.2231   -1.7588   -0.0176 H         1 <0>         0.1099
     47 H9         -0.9258   -0.5567    0.0082 H         1 <0>         0.1123
     48 H10         3.5884   -1.6586   -0.5549 H         1 <0>         0.0815
     49 H11         4.4573   -0.1052   -0.5563 H         1 <0>         0.0888
     50 H12         6.1983    0.3183   -0.8440 H         1 <0>         0.0787
     51 H13         5.8227    1.0458    0.7481 H         1 <0>         0.0863
     52 H14         8.1364    1.6970   -0.4923 H         1 <0>         0.0935
     53 H15         8.1536    1.3705    1.2733 H         1 <0>         0.0844
     54 H16         8.8856   -0.5283   -1.0268 H         1 <0>         0.0846
     55 H17         9.7758   -0.2380    0.5037 H         1 <0>         0.0953
     56 H18         9.9975   -2.9508    0.0950 H         1 <0>         0.4010
     57 H19         9.2097   -4.1344   -0.8001 H         1 <0>         0.4038
     58 H20         3.4056   -2.8234    2.0784 H         1 <0>         0.4070
     59 H21         0.6438   -2.9090    1.2825 H         1 <0>         0.0845
     60 H22         1.0834   -4.2717    2.3638 H         1 <0>         0.0933
     61 H23        -1.5417   -3.7211    1.8851 H         1 <0>         0.0904
     62 H24        -1.0149   -4.1588    3.5450 H         1 <0>         0.0820
     63 H25        -1.4613   -1.3651    2.3579 H         1 <0>         0.0733
     64 H26        -2.0487   -2.0129    3.9200 H         1 <0>         0.0802
     65 H27        -2.0733   -1.7400    5.8526 H         1 <0>         0.0835
     66 H28        -1.2617   -0.8832    7.1851 H         1 <0>         0.0811
     67 H29        -2.3391    0.9858    8.2994 H         1 <0>         0.1256
     68 H30        -4.4707    2.0488    8.9198 H         1 <0>         0.1306
     69 H31        -6.4231   -0.0229    5.7323 H         1 <0>         0.1305
     70 H32        -4.2858   -1.0747    5.1124 H         1 <0>         0.1271
     71 H33        -6.9247    2.5079    7.2597 H         1 <0>         0.3926
     72 H34        -1.5972    1.9133    6.1811 H         1 <0>         0.3482
     73 H35        -0.1718    1.2381    6.7085 H         1 <0>         0.3504
@<TRIPOS>BOND
     1    1    6 ar
     2    1    2 ar
     3    1   43 1
     4    2    3 ar
     5    2   44 1
     6    3    4 ar
     7    3   45 1
     8    4    5 ar
     9    4    7 1
    10    5    6 ar
    11    5   46 1
    12    6   47 1
    13    7    8 1
    14    7   48 1
    15    7   49 1
    16    8    9 1
    17    8   10 1
    18    8   21 1
    19   10   11 2
    20   10   12 am
    21   12   16 1
    22   12   13 1
    23   13   14 1
    24   13   50 1
    25   13   51 1
    26   14   15 1
    27   14   52 1
    28   14   53 1
    29   15   16 1
    30   15   54 1
    31   15   55 1
    32   16   17 1
    33   16   18 1
    34   18   19 2
    35   18   20 am
    36   20   56 1
    37   20   57 1
    38   21   22 am
    39   21   58 1
    40   22   23 2
    41   22   24 1
    42   24   25 1
    43   24   29 1
    44   24   26 1
    45   26   27 1
    46   26   59 1
    47   26   60 1
    48   27   28 1
    49   27   61 1
    50   27   62 1
    51   28   29 1
    52   28   63 1
    53   28   64 1
    54   29   30 am
    55   30   31 2
    56   30   32 1
    57   32   33 1
    58   32   34 1
    59   32   42 1
    60   34   35 1
    61   34   65 1
    62   34   66 1
    63   35   40 ar
    64   35   36 ar
    65   36   37 ar
    66   36   67 1
    67   37   38 ar
    68   37   68 1
    69   38   39 ar
    70   38   41 1
    71   39   40 ar
    72   39   69 1
    73   40   70 1
    74   41   71 1
    75   42   72 1
    76   42   73 1
@<TRIPOS>MOLECULE
ZINC53270991
   73    76     0     0     0
SMALL
USER_CHARGES

@<TRIPOS>ATOM
      1 C1         -0.0167    1.3781    0.0096 C.ar      1 <0>        -0.1164
      2 C2          1.1709    2.0855    0.0021 C.ar      1 <0>        -0.1093
      3 C3          2.3773    1.4107   -0.0130 C.ar      1 <0>        -0.1037
      4 C4          2.3960    0.0285   -0.0201 C.ar      1 <0>        -0.0647
      5 C5          1.2084   -0.6789   -0.0117 C.ar      1 <0>        -0.1084
      6 C6          0.0021   -0.0041    0.0020 C.ar      1 <0>        -0.1112
      7 C7          3.7112   -0.7071   -0.0376 C.3       1 <0>        -0.0952
      8 C8          4.1714   -0.9633    1.3989 C.3       1 <0>         0.1475
      9 H1          4.2087   -0.0191    1.9423 H         1 <0>         0.1142
     10 C9          5.5425   -1.5884    1.3832 C.2       1 <0>         0.5387
     11 O1          5.7154   -2.6833    1.8752 O.2       1 <0>        -0.5169
     12 N1          6.5766   -0.9306    0.8225 N.am      1 <0>        -0.6004
     13 C10         6.5092    0.4028    0.1973 C.3       1 <0>         0.0927
     14 C11         7.9537    0.9555    0.2854 C.3       1 <0>        -0.1350
     15 C12         8.7932   -0.3261    0.0403 C.3       1 <0>        -0.1245
     16 C13         7.9600   -1.4213    0.7386 C.3       1 <0>         0.1185
     17 H2          7.9927   -2.3396    0.1523 H         1 <0>         0.1052
     18 C14         8.4989   -1.6743    2.1230 C.2       1 <0>         0.5081
     19 O2          7.8006   -1.4671    3.0928 O.2       1 <0>        -0.5173
     20 N2          9.7568   -2.1308    2.2835 N.am      1 <0>        -0.8559
     21 N3          3.2289   -1.8699    2.0593 N.am      1 <0>        -0.7160
     22 C15         2.1163   -1.3790    2.6404 C.2       1 <0>         0.5092
     23 O3          1.8954   -0.1867    2.6165 O.2       1 <0>        -0.4901
     24 C16         1.1468   -2.3115    3.3197 C.3       1 <0>         0.1239
     25 H3          1.6516   -2.8515    4.1208 H         1 <0>         0.0990
     26 C17         0.5733   -3.3111    2.2932 C.3       1 <0>        -0.1282
     27 C18        -0.9099   -3.4439    2.7289 C.3       1 <0>        -0.1306
     28 C19        -1.2235   -2.0045    3.2080 C.3       1 <0>         0.0960
     29 N4          0.0170   -1.5463    3.8670 N.am      1 <0>        -0.6005
     30 C20         0.1011   -0.5883    4.8112 C.2       1 <0>         0.5479
     31 O4          1.1792   -0.2945    5.2826 O.2       1 <0>        -0.5100
     32 C21        -1.1445    0.1179    5.2812 C.3       1 <0>         0.0932
     33 H4         -1.7959    0.3114    4.4289 H         1 <0>         0.1011
     34 C22        -1.8784   -0.7628    6.2944 C.3       1 <0>        -0.1134
     35 C23        -3.1845   -0.1127    6.6719 C.ar      1 <0>        -0.0939
     36 C24        -3.2353    0.7661    7.7382 C.ar      1 <0>        -0.1026
     37 C25        -4.4314    1.3630    8.0865 C.ar      1 <0>        -0.1388
     38 C26        -5.5823    1.0804    7.3651 C.ar      1 <0>         0.1048
     39 C27        -5.5286    0.1987    6.2954 C.ar      1 <0>        -0.1400
     40 C28        -4.3289   -0.3916    5.9479 C.ar      1 <0>        -0.0967
     41 O5         -6.7603    1.6660    7.7061 O.3       1 <0>        -0.4998
     42 N5         -0.7761    1.3908    5.9150 N.3       1 <0>        -0.8232
     43 H5         -0.9591    1.9053    0.0259 H         1 <0>         0.1145
     44 H6          1.1563    3.1654    0.0076 H         1 <0>         0.1163
     45 H7          3.3051    1.9634   -0.0196 H         1 <0>         0.1138
     46 H8          1.2231   -1.7588   -0.0176 H         1 <0>         0.1100
     47 H9         -0.9258   -0.5567    0.0082 H         1 <0>         0.1125
     48 H10         3.5884   -1.6586   -0.5549 H         1 <0>         0.0797
     49 H11         4.4573   -0.1052   -0.5563 H         1 <0>         0.0898
     50 H12         6.1983    0.3183   -0.8440 H         1 <0>         0.0819
     51 H13         5.8227    1.0458    0.7481 H         1 <0>         0.0837
     52 H14         8.1364    1.6970   -0.4923 H         1 <0>         0.0945
     53 H15         8.1536    1.3705    1.2733 H         1 <0>         0.0804
     54 H16         8.8856   -0.5283   -1.0268 H         1 <0>         0.0938
     55 H17         9.7758   -0.2380    0.5037 H         1 <0>         0.0890
     56 H18        10.3153   -2.2965    1.5079 H         1 <0>         0.4004
     57 H19        10.1037   -2.2936    3.1746 H         1 <0>         0.4040
     58 H20         3.4056   -2.8234    2.0784 H         1 <0>         0.4060
     59 H21         0.6438   -2.9090    1.2825 H         1 <0>         0.0842
     60 H22         1.0834   -4.2717    2.3638 H         1 <0>         0.0930
     61 H23        -1.5417   -3.7211    1.8851 H         1 <0>         0.0903
     62 H24        -1.0149   -4.1588    3.5450 H         1 <0>         0.0820
     63 H25        -1.4613   -1.3651    2.3579 H         1 <0>         0.0731
     64 H26        -2.0487   -2.0129    3.9200 H         1 <0>         0.0800
     65 H27        -2.0733   -1.7400    5.8526 H         1 <0>         0.0835
     66 H28        -1.2617   -0.8832    7.1851 H         1 <0>         0.0811
     67 H29        -2.3391    0.9858    8.2994 H         1 <0>         0.1256
     68 H30        -4.4707    2.0488    8.9198 H         1 <0>         0.1306
     69 H31        -6.4231   -0.0229    5.7323 H         1 <0>         0.1304
     70 H32        -4.2858   -1.0747    5.1124 H         1 <0>         0.1271
     71 H33        -6.9247    2.5079    7.2597 H         1 <0>         0.3925
     72 H34        -1.5972    1.9133    6.1811 H         1 <0>         0.3481
     73 H35        -0.1718    1.2381    6.7085 H         1 <0>         0.3507
@<TRIPOS>BOND
     1    1    6 ar
     2    1    2 ar
     3    1   43 1
     4    2    3 ar
     5    2   44 1
     6    3    4 ar
     7    3   45 1
     8    4    5 ar
     9    4    7 1
    10    5    6 ar
    11    5   46 1
    12    6   47 1
    13    7    8 1
    14    7   48 1
    15    7   49 1
    16    8    9 1
    17    8   10 1
    18    8   21 1
    19   10   11 2
    20   10   12 am
    21   12   16 1
    22   12   13 1
    23   13   14 1
    24   13   50 1
    25   13   51 1
    26   14   15 1
    27   14   52 1
    28   14   53 1
    29   15   16 1
    30   15   54 1
    31   15   55 1
    32   16   17 1
    33   16   18 1
    34   18   19 2
    35   18   20 am
    36   20   56 1
    37   20   57 1
    38   21   22 am
    39   21   58 1
    40   22   23 2
    41   22   24 1
    42   24   25 1
    43   24   29 1
    44   24   26 1
    45   26   27 1
    46   26   59 1
    47   26   60 1
    48   27   28 1
    49   27   61 1
    50   27   62 1
    51   28   29 1
    52   28   63 1
    53   28   64 1
    54   29   30 am
    55   30   31 2
    56   30   32 1
    57   32   33 1
    58   32   34 1
    59   32   42 1
    60   34   35 1
    61   34   65 1
    62   34   66 1
    63   35   40 ar
    64   35   36 ar
    65   36   37 ar
    66   36   67 1
    67   37   38 ar
    68   37   68 1
    69   38   39 ar
    70   38   41 1
    71   39   40 ar
    72   39   69 1
    73   40   70 1
    74   41   71 1
    75   42   72 1
    76   42   73 1
@<TRIPOS>MOLECULE
ZINC03812984
   43    46     0     0     0
SMALL
USER_CHARGES
methylBLAHol
@<TRIPOS>ATOM
      1 C1         -2.7983    1.5746    2.5117 C.3       1 <0>        -0.0492
      2 C2         -2.8836    1.5590    0.0946 C.3       1 <0>        -0.0137
      3 C3         -2.1794    1.0201   -1.2058 C.3       1 <0>        -0.1260
      4 C4         -0.7576    1.5994   -1.2263 C.3       1 <0>        -0.0184
      5 C5         -0.0471    1.1494   -2.4971 C.3       1 <0>        -0.1096
      6 C6          1.3879    1.6819   -2.5009 C.3       1 <0>        -0.1248
      7 C7          2.1311    1.1511   -1.2732 C.3       1 <0>        -0.1197
      8 C8          1.4200    1.6218   -0.0028 C.3       1 <0>        -0.1140
      9 C9         -0.0127    1.0858    0.0080 C.3       1 <0>        -0.0868
     10 H1          0.0021   -0.0041    0.0020 H         1 <0>         0.1005
     11 C10        -0.7376    1.5857    1.2587 C.3       1 <0>         0.0368
     12 H2         -0.2470    1.1454    2.1268 H         1 <0>         0.1322
     13 C11        -0.6296    3.0942    1.3559 C.3       1 <0>        -0.0906
     14 C12        -0.8275    3.7825    0.0324 C.ar      1 <0>        -0.1118
     15 C13        -0.8645    3.1019   -1.1649 C.ar      1 <0>        -0.0525
     16 C14        -1.0059    3.7971   -2.3554 C.ar      1 <0>        -0.1389
     17 C15        -1.1227    5.1776   -2.3507 C.ar      1 <0>         0.1246
     18 C16        -1.1001    5.8624   -1.1445 C.ar      1 <0>        -0.1373
     19 C17        -0.9542    5.1667    0.0366 C.ar      1 <0>        -0.0934
     20 O1         -1.2582    5.8565   -3.5201 O.3       1 <0>        -0.4965
     21 H3         -2.7772    2.6625    2.5756 H         1 <0>         0.1254
     22 H4         -3.8328    1.2313    2.5006 H         1 <0>         0.1236
     23 H5         -2.2838    1.1498    3.3736 H         1 <0>         0.1231
     24 H6         -3.8977    1.1640    0.1553 H         1 <0>         0.1274
     25 H7         -2.9199    2.6475    0.0505 H         1 <0>         0.1324
     26 H8         -2.7194    1.3346   -2.0989 H         1 <0>         0.1139
     27 H9         -2.1344   -0.0682   -1.1643 H         1 <0>         0.0929
     28 H10        -0.5796    1.5352   -3.3664 H         1 <0>         0.0775
     29 H11        -0.0300    0.0602   -2.5361 H         1 <0>         0.0764
     30 H12         1.3713    2.7714   -2.4727 H         1 <0>         0.0675
     31 H13         1.8966    1.3495   -3.4057 H         1 <0>         0.0729
     32 H14         3.1542    1.5269   -1.2774 H         1 <0>         0.0739
     33 H15         2.1443    0.0615   -1.2996 H         1 <0>         0.0675
     34 H16         1.4005    2.7114    0.0201 H         1 <0>         0.0786
     35 H17         1.9539    1.2495    0.8716 H         1 <0>         0.0744
     36 H18         0.3629    3.3369    1.7355 H         1 <0>         0.1193
     37 H19        -1.3763    3.4612    2.0602 H         1 <0>         0.0962
     38 H20        -1.0247    3.2597   -3.2921 H         1 <0>         0.1368
     39 H21        -1.1963    6.9380   -1.1308 H         1 <0>         0.1364
     40 H22        -0.9386    5.7022    0.9743 H         1 <0>         0.1313
     41 H23        -0.4191    6.1273   -3.9172 H         1 <0>         0.4003
     42 N1         -2.1333    1.0997    1.2905 N.4       1 <0>        -0.3877
     43 H24        -2.1230    0.0730    1.2965 H         1 <0>         0.4294
@<TRIPOS>BOND
     1    1   21 1
     2    1   22 1
     3    1   23 1
     4    1   42 1
     5    2    3 1
     6    2   24 1
     7    2   25 1
     8    2   42 1
     9    3    4 1
    10    3   26 1
    11    3   27 1
    12    4    9 1
    13    4   15 1
    14    4    5 1
    15    5    6 1
    16    5   28 1
    17    5   29 1
    18    6    7 1
    19    6   30 1
    20    6   31 1
    21    7    8 1
    22    7   32 1
    23    7   33 1
    24    8    9 1
    25    8   34 1
    26    8   35 1
    27    9   10 1
    28    9   11 1
    29   11   12 1
    30   11   13 1
    31   11   42 1
    32   13   14 1
    33   13   36 1
    34   13   37 1
    35   14   19 ar
    36   14   15 ar
    37   15   16 ar
    38   16   17 ar
    39   16   38 1
    40   17   18 ar
    41   17   20 1
    42   18   19 ar
    43   18   39 1
    44   19   40 1
    45   20   41 1
    46   42   43 1
@<TRIPOS>MOLECULE
ZINC53092522
   73    76     0     0     0
SMALL
USER_CHARGES

@<TRIPOS>ATOM
      1 C1          5.1265    3.9091   -0.8486 C.ar      1 <0>        -0.1198
      2 C2          5.4226    2.7813   -1.5911 C.ar      1 <0>        -0.1181
      3 C3          4.7570    1.5956   -1.3422 C.ar      1 <0>        -0.1065
      4 C4          3.7957    1.5375   -0.3505 C.ar      1 <0>        -0.0835
      5 C5          3.5003    2.6651    0.3925 C.ar      1 <0>        -0.1015
      6 C6          4.1649    3.8512    0.1427 C.ar      1 <0>        -0.1199
      7 C7          3.0695    0.2451   -0.0799 C.3       1 <0>        -0.0887
      8 C8          3.8138   -0.5414    1.0010 C.3       1 <0>         0.1443
      9 H1          3.2805   -1.4694    1.2072 H         1 <0>         0.1117
     10 C9          5.2070   -0.8585    0.5219 C.2       1 <0>         0.5444
     11 O1          6.1403   -0.1673    0.8711 O.2       1 <0>        -0.5127
     12 N1          5.4157   -1.9103   -0.2946 N.am      1 <0>        -0.6022
     13 C10         4.3670   -2.7659   -0.8789 C.3       1 <0>         0.0897
     14 C11         5.0105   -3.3680   -2.1529 C.3       1 <0>        -0.1299
     15 C12         6.4726   -3.5949   -1.6857 C.3       1 <0>        -0.1248
     16 C13         6.7268   -2.3906   -0.7550 C.3       1 <0>         0.1199
     17 H2          7.2404   -1.5995   -1.3013 H         1 <0>         0.1045
     18 C14         7.5571   -2.8247    0.4253 C.2       1 <0>         0.5098
     19 O2          7.1045   -2.7439    1.5476 O.2       1 <0>        -0.5232
     20 N2          8.8026   -3.3026    0.2337 N.am      1 <0>        -0.8542
     21 N3          3.8888    0.2609    2.2244 N.am      1 <0>        -0.7061
     22 C15         2.8797    0.2246    3.1171 C.2       1 <0>         0.5182
     23 O3          1.9524   -0.5396    2.9532 O.2       1 <0>        -0.5238
     24 C16         2.9036    1.1337    4.3187 C.3       1 <0>         0.1237
     25 H3          3.3930    2.0734    4.0628 H         1 <0>         0.0971
     26 C17         3.6558    0.4495    5.4796 C.3       1 <0>        -0.1222
     27 C18         2.8301    0.8696    6.7242 C.3       1 <0>        -0.1302
     28 C19         1.3898    0.8772    6.1538 C.3       1 <0>         0.0960
     29 N4          1.5309    1.3934    4.7767 N.am      1 <0>        -0.6008
     30 C20         0.5651    2.0005    4.0590 C.2       1 <0>         0.5449
     31 O4          0.7685    2.3030    2.9023 O.2       1 <0>        -0.5166
     32 C21        -0.7676    2.3036    4.6939 C.3       1 <0>         0.0907
     33 H4         -1.0659    1.4691    5.3286 H         1 <0>         0.1030
     34 C22        -0.6523    3.5726    5.5408 C.3       1 <0>        -0.1114
     35 C23        -1.9486    3.8076    6.2727 C.ar      1 <0>        -0.0952
     36 C24        -2.9465    4.5620    5.6839 C.ar      1 <0>        -0.1024
     37 C25        -4.1355    4.7793    6.3529 C.ar      1 <0>        -0.1391
     38 C26        -4.3279    4.2394    7.6163 C.ar      1 <0>         0.1056
     39 C27        -3.3252    3.4824    8.2047 C.ar      1 <0>        -0.1399
     40 C28        -2.1400    3.2637    7.5293 C.ar      1 <0>        -0.0964
     41 O5         -5.4965    4.4521    8.2767 O.3       1 <0>        -0.4998
     42 N5         -1.7755    2.5052    3.6444 N.3       1 <0>        -0.8242
     43 H5          5.6497    4.8343   -1.0401 H         1 <0>         0.1186
     44 H6          6.1736    2.8266   -2.3659 H         1 <0>         0.1178
     45 H7          4.9878    0.7146   -1.9228 H         1 <0>         0.1118
     46 H8          2.7490    2.6199    1.1671 H         1 <0>         0.1268
     47 H9          3.9338    4.7323    0.7230 H         1 <0>         0.1186
     48 H10         2.0570    0.4618    0.2607 H         1 <0>         0.0949
     49 H11         3.0264   -0.3459   -0.9947 H         1 <0>         0.0838
     50 H12         4.0917   -3.5578   -0.1824 H         1 <0>         0.0757
     51 H13         3.4931   -2.1694   -1.1410 H         1 <0>         0.0860
     52 H14         4.5355   -4.3114   -2.4220 H         1 <0>         0.0930
     53 H15         4.9705   -2.6616   -2.9820 H         1 <0>         0.0839
     54 H16         6.5617   -4.5343   -1.1400 H         1 <0>         0.0839
     55 H17         7.1562   -3.5745   -2.5345 H         1 <0>         0.0949
     56 H18         9.1646   -3.3672   -0.6639 H         1 <0>         0.4010
     57 H19         9.3371   -3.5821    0.9935 H         1 <0>         0.4036
     58 H20         4.6648    0.8182    2.3921 H         1 <0>         0.4098
     59 H21         3.6476   -0.6338    5.3591 H         1 <0>         0.0842
     60 H22         4.6774    0.8229    5.5505 H         1 <0>         0.0945
     61 H23         2.9294    0.1365    7.5247 H         1 <0>         0.0921
     62 H24         3.1194    1.8627    7.0680 H         1 <0>         0.0826
     63 H25         0.9813   -0.1333    6.1415 H         1 <0>         0.0768
     64 H26         0.7525    1.5378    6.7417 H         1 <0>         0.0819
     65 H27         0.1563    3.4557    6.2623 H         1 <0>         0.0840
     66 H28        -0.4412    4.4236    4.8932 H         1 <0>         0.0816
     67 H29        -2.7963    4.9821    4.7004 H         1 <0>         0.1257
     68 H30        -4.9145    5.3693    5.8930 H         1 <0>         0.1307
     69 H31        -3.4725    3.0611    9.1881 H         1 <0>         0.1307
     70 H32        -1.3608    2.6708    7.9851 H         1 <0>         0.1275
     71 H33        -6.1731    3.7832    8.1041 H         1 <0>         0.3928
     72 H34        -2.6910    2.6462    4.0445 H         1 <0>         0.3496
     73 H35        -1.5217    3.2740    3.0422 H         1 <0>         0.3510
@<TRIPOS>BOND
     1    1    6 ar
     2    1    2 ar
     3    1   43 1
     4    2    3 ar
     5    2   44 1
     6    3    4 ar
     7    3   45 1
     8    4    5 ar
     9    4    7 1
    10    5    6 ar
    11    5   46 1
    12    6   47 1
    13    7    8 1
    14    7   48 1
    15    7   49 1
    16    8    9 1
    17    8   10 1
    18    8   21 1
    19   10   11 2
    20   10   12 am
    21   12   16 1
    22   12   13 1
    23   13   14 1
    24   13   50 1
    25   13   51 1
    26   14   15 1
    27   14   52 1
    28   14   53 1
    29   15   16 1
    30   15   54 1
    31   15   55 1
    32   16   17 1
    33   16   18 1
    34   18   19 2
    35   18   20 am
    36   20   56 1
    37   20   57 1
    38   21   22 am
    39   21   58 1
    40   22   23 2
    41   22   24 1
    42   24   25 1
    43   24   29 1
    44   24   26 1
    45   26   27 1
    46   26   59 1
    47   26   60 1
    48   27   28 1
    49   27   61 1
    50   27   62 1
    51   28   29 1
    52   28   63 1
    53   28   64 1
    54   29   30 am
    55   30   31 2
    56   30   32 1
    57   32   33 1
    58   32   34 1
    59   32   42 1
    60   34   35 1
    61   34   65 1
    62   34   66 1
    63   35   40 ar
    64   35   36 ar
    65   36   37 ar
    66   36   67 1
    67   37   38 ar
    68   37   68 1
    69   38   39 ar
    70   38   41 1
    71   39   40 ar
    72   39   69 1
    73   40   70 1
    74   41   71 1
    75   42   72 1
    76   42   73 1
@<TRIPOS>MOLECULE
ZINC53271207
   73    76     0     0     0
SMALL
USER_CHARGES

@<TRIPOS>ATOM
      1 C1          6.2390    3.4263   -0.7124 C.ar      1 <0>        -0.1207
      2 C2          6.4662    2.2847   -1.4581 C.ar      1 <0>        -0.1150
      3 C3          5.6942    1.1573   -1.2488 C.ar      1 <0>        -0.0809
      4 C4          4.6951    1.1714   -0.2935 C.ar      1 <0>        -0.0895
      5 C5          4.4684    2.3127    0.4528 C.ar      1 <0>        -0.1033
      6 C6          5.2396    3.4405    0.2426 C.ar      1 <0>        -0.1274
      7 C7          3.8527   -0.0573   -0.0661 C.3       1 <0>        -0.0852
      8 C8          4.3951   -0.8320    1.1367 C.3       1 <0>         0.1444
      9 H1          3.7499   -1.6869    1.3392 H         1 <0>         0.1096
     10 C9          5.7901   -1.3157    0.8351 C.2       1 <0>         0.5393
     11 O1          6.7487   -0.6810    1.2213 O.2       1 <0>        -0.5062
     12 N1          5.9725   -2.4536    0.1363 N.am      1 <0>        -0.6025
     13 C10         4.9062   -3.2627   -0.4815 C.3       1 <0>         0.0921
     14 C11         5.6078   -4.0364   -1.6256 C.3       1 <0>        -0.1327
     15 C12         6.9882   -4.3486   -0.9896 C.3       1 <0>        -0.1246
     16 C13         7.2683   -3.0901   -0.1416 C.3       1 <0>         0.1192
     17 H2          7.7494   -3.3754    0.7939 H         1 <0>         0.1013
     18 C14         8.1526   -2.1396   -0.9069 C.2       1 <0>         0.5068
     19 O2          7.7469   -1.0340   -1.1966 O.2       1 <0>        -0.5072
     20 N2          9.3942   -2.5182   -1.2694 N.am      1 <0>        -0.8578
     21 N3          4.4253    0.0455    2.3094 N.am      1 <0>        -0.7095
     22 C15         3.3199    0.1986    3.0652 C.2       1 <0>         0.5153
     23 O3          2.3283   -0.4586    2.8293 O.2       1 <0>        -0.5191
     24 C16         3.3162    1.1863    4.2034 C.3       1 <0>         0.1225
     25 H3          3.8030    2.1109    3.8932 H         1 <0>         0.0994
     26 C17         4.0531    0.5878    5.4201 C.3       1 <0>        -0.1229
     27 C18         3.2027    1.0832    6.6196 C.3       1 <0>        -0.1305
     28 C19         1.7726    1.0403    6.0258 C.3       1 <0>         0.0957
     29 N4          1.9338    1.4642    4.6197 N.am      1 <0>        -0.6019
     30 C20         0.9761    2.0136    3.8467 C.2       1 <0>         0.5454
     31 O4          1.2021    2.2530    2.6795 O.2       1 <0>        -0.5129
     32 C21        -0.3756    2.3304    4.4328 C.3       1 <0>         0.0912
     33 H4         -0.6761    1.5287    5.1073 H         1 <0>         0.1026
     34 C22        -0.2994    3.6473    5.2080 C.3       1 <0>        -0.1118
     35 C23        -1.6159    3.9024    5.8957 C.ar      1 <0>        -0.0950
     36 C24        -2.6110    4.6056    5.2422 C.ar      1 <0>        -0.1024
     37 C25        -3.8185    4.8411    5.8705 C.ar      1 <0>        -0.1389
     38 C26        -4.0325    4.3709    7.1581 C.ar      1 <0>         0.1054
     39 C27        -3.0326    3.6652    7.8114 C.ar      1 <0>        -0.1400
     40 C28        -1.8287    3.4278    7.1768 C.ar      1 <0>        -0.0965
     41 O5         -5.2194    4.6017    7.7785 O.3       1 <0>        -0.4998
     42 N5         -1.3614    2.4554    3.3509 N.3       1 <0>        -0.8241
     43 H5          6.8451    4.3056   -0.8728 H         1 <0>         0.1156
     44 H6          7.2468    2.2737   -2.2044 H         1 <0>         0.1148
     45 H7          5.8713    0.2657   -1.8319 H         1 <0>         0.1204
     46 H8          3.6876    2.3237    1.1989 H         1 <0>         0.1184
     47 H9          5.0622    4.3323    0.8254 H         1 <0>         0.1157
     48 H10         2.8220    0.2395    0.1277 H         1 <0>         0.0925
     49 H11         3.8878   -0.6911   -0.9522 H         1 <0>         0.0814
     50 H12         4.4880   -3.9583    0.2461 H         1 <0>         0.0782
     51 H13         4.1249   -2.6175   -0.8833 H         1 <0>         0.0831
     52 H14         5.0705   -4.9545   -1.8632 H         1 <0>         0.0932
     53 H15         5.7181   -3.4098   -2.5106 H         1 <0>         0.0799
     54 H16         6.9310   -5.2370   -0.3607 H         1 <0>         0.0919
     55 H17         7.7495   -4.4687   -1.7604 H         1 <0>         0.0883
     56 H18         9.7187   -3.4025   -1.0377 H         1 <0>         0.3990
     57 H19         9.9634   -1.9064   -1.7620 H         1 <0>         0.4030
     58 H20         5.2408    0.5163    2.5420 H         1 <0>         0.4099
     59 H21         4.0550   -0.5012    5.3724 H         1 <0>         0.0829
     60 H22         5.0705    0.9739    5.4830 H         1 <0>         0.0946
     61 H23         3.2936    0.4062    7.4690 H         1 <0>         0.0918
     62 H24         3.4787    2.0996    6.9008 H         1 <0>         0.0829
     63 H25         1.3719    0.0277    6.0744 H         1 <0>         0.0755
     64 H26         1.1203    1.7332    6.5571 H         1 <0>         0.0820
     65 H27         0.4936    3.5849    5.9532 H         1 <0>         0.0839
     66 H28        -0.0860    4.4634    4.5177 H         1 <0>         0.0817
     67 H29        -2.4440    4.9714    4.2399 H         1 <0>         0.1258
     68 H30        -4.5952    5.3911    5.3600 H         1 <0>         0.1308
     69 H31        -3.1967    3.2982    8.8138 H         1 <0>         0.1306
     70 H32        -1.0516    2.8747    7.6833 H         1 <0>         0.1274
     71 H33        -5.8816    3.9130    7.6293 H         1 <0>         0.3927
     72 H34        -2.2880    2.6040    3.7214 H         1 <0>         0.3494
     73 H35        -1.1051    3.1928    2.7116 H         1 <0>         0.3512
@<TRIPOS>BOND
     1    1    6 ar
     2    1    2 ar
     3    1   43 1
     4    2    3 ar
     5    2   44 1
     6    3    4 ar
     7    3   45 1
     8    4    5 ar
     9    4    7 1
    10    5    6 ar
    11    5   46 1
    12    6   47 1
    13    7    8 1
    14    7   48 1
    15    7   49 1
    16    8    9 1
    17    8   10 1
    18    8   21 1
    19   10   11 2
    20   10   12 am
    21   12   16 1
    22   12   13 1
    23   13   14 1
    24   13   50 1
    25   13   51 1
    26   14   15 1
    27   14   52 1
    28   14   53 1
    29   15   16 1
    30   15   54 1
    31   15   55 1
    32   16   17 1
    33   16   18 1
    34   18   19 2
    35   18   20 am
    36   20   56 1
    37   20   57 1
    38   21   22 am
    39   21   58 1
    40   22   23 2
    41   22   24 1
    42   24   25 1
    43   24   29 1
    44   24   26 1
    45   26   27 1
    46   26   59 1
    47   26   60 1
    48   27   28 1
    49   27   61 1
    50   27   62 1
    51   28   29 1
    52   28   63 1
    53   28   64 1
    54   29   30 am
    55   30   31 2
    56   30   32 1
    57   32   33 1
    58   32   34 1
    59   32   42 1
    60   34   35 1
    61   34   65 1
    62   34   66 1
    63   35   40 ar
    64   35   36 ar
    65   36   37 ar
    66   36   67 1
    67   37   38 ar
    68   37   68 1
    69   38   39 ar
    70   38   41 1
    71   39   40 ar
    72   39   69 1
    73   40   70 1
    74   41   71 1
    75   42   72 1
    76   42   73 1
@<TRIPOS>MOLECULE
ZINC03870315
   53    56     0     0     0
SMALL
USER_CHARGES
ethyl-[(1-hydroxycyclopropyl)methyl]-dimethyl-BLAHol
@<TRIPOS>ATOM
      1 C1         -2.5286    1.7344    2.0183 C.3       1 <0>        -0.1723
      2 C2         -1.1631    2.4222    2.0758 C.3       1 <0>        -0.1153
      3 C3         -0.2802    1.8987    0.9412 C.3       1 <0>        -0.0106
      4 C4         -0.2512    0.3599    0.9440 C.3       1 <0>        -0.1406
      5 C5          0.7262   -0.0909   -0.1473 C.3       1 <0>        -0.0045
      6 C6          0.1214    1.8433   -1.5047 C.3       1 <0>         0.0364
      7 H1         -0.3118    2.1017   -2.4710 H         1 <0>         0.1313
      8 C7         -0.8222    2.3559   -0.4171 C.3       1 <0>        -0.0554
      9 C8         -0.8799    3.8842   -0.4620 C.3       1 <0>        -0.1495
     10 C9         -2.2228    1.7799   -0.6354 C.3       1 <0>        -0.1819
     11 C10         1.4584    2.5573   -1.4081 C.3       1 <0>        -0.0883
     12 C11         1.9444    2.6561    0.0129 C.ar      1 <0>        -0.1115
     13 C12         1.1444    2.3768    1.0978 C.ar      1 <0>        -0.0571
     14 C13         1.6392    2.5288    2.3838 C.ar      1 <0>        -0.1401
     15 C14         2.9435    2.9492    2.5872 C.ar      1 <0>         0.1246
     16 C15         3.7549    3.2161    1.4942 C.ar      1 <0>        -0.1370
     17 C16         3.2561    3.0692    0.2175 C.ar      1 <0>        -0.0939
     18 O1          3.4250    3.0987    3.8493 O.3       1 <0>        -0.4948
     19 C17         1.1272   -0.0926   -2.5328 C.3       1 <0>         0.0496
     20 C18         1.0004   -1.6133   -2.6434 C.3       1 <0>         0.0205
     21 C19         2.1705   -2.4585   -2.1364 C.3       1 <0>        -0.2001
     22 C20         1.9159   -2.3280   -3.6394 C.3       1 <0>        -0.1787
     23 O2         -0.3176   -2.1363   -2.4660 O.3       1 <0>        -0.5374
     24 H2         -2.4089    0.7205    1.6367 H         1 <0>         0.0621
     25 H3         -2.9593    1.6976    3.0189 H         1 <0>         0.0620
     26 H4         -3.1904    2.2953    1.3583 H         1 <0>         0.0682
     27 H5         -0.6887    2.2085    3.0336 H         1 <0>         0.0772
     28 H6         -1.2938    3.4989    1.9673 H         1 <0>         0.0808
     29 H7         -1.2471   -0.0286    0.7313 H         1 <0>         0.1033
     30 H8          0.0873   -0.0013    1.9151 H         1 <0>         0.1131
     31 H9          0.7778   -1.1796   -0.1617 H         1 <0>         0.1266
     32 H10         1.7155    0.3170    0.0600 H         1 <0>         0.1313
     33 H11        -1.2449    4.2055   -1.4375 H         1 <0>         0.0691
     34 H12        -1.5537    4.2453    0.3150 H         1 <0>         0.0805
     35 H13         0.1177    4.2905   -0.2954 H         1 <0>         0.0721
     36 H14        -2.2816    0.7880   -0.1874 H         1 <0>         0.0722
     37 H15        -2.9609    2.4331   -0.1699 H         1 <0>         0.0959
     38 H16        -2.4237    1.7083   -1.7043 H         1 <0>         0.0647
     39 H17         2.1951    2.0112   -1.9974 H         1 <0>         0.0924
     40 H18         1.3539    3.5621   -1.8174 H         1 <0>         0.1230
     41 H19         1.0043    2.3185    3.2318 H         1 <0>         0.1380
     42 H20         4.7750    3.5379    1.6431 H         1 <0>         0.1363
     43 H21         3.8902    3.2767   -0.6317 H         1 <0>         0.1316
     44 H22         3.8359    2.3014    4.2105 H         1 <0>         0.3984
     45 H23         0.8252    0.3667   -3.4741 H         1 <0>         0.1381
     46 H24         2.1624    0.1708   -2.3157 H         1 <0>         0.1437
     47 H25         3.0308   -1.9313   -1.7240 H         1 <0>         0.1123
     48 H26         1.9352   -3.4138   -1.6672 H         1 <0>         0.1141
     49 H27         1.5130   -3.1974   -4.1590 H         1 <0>         0.1168
     50 H28         2.6083   -1.7147   -4.2161 H         1 <0>         0.1148
     51 H29        -0.3721   -3.0989   -2.5403 H         1 <0>         0.4105
     52 N1          0.2275    0.3689   -1.4661 N.4       1 <0>        -0.3792
     53 H30        -0.7047   -0.0320   -1.6222 H         1 <0>         0.4368
@<TRIPOS>BOND
     1    1    2 1
     2    1   24 1
     3    1   25 1
     4    1   26 1
     5    2    3 1
     6    2   27 1
     7    2   28 1
     8    3    8 1
     9    3   13 1
    10    3    4 1
    11    4    5 1
    12    4   29 1
    13    4   30 1
    14    5   31 1
    15    5   32 1
    16    5   52 1
    17    6    7 1
    18    6    8 1
    19    6   11 1
    20    6   52 1
    21    8    9 1
    22    8   10 1
    23    9   33 1
    24    9   34 1
    25    9   35 1
    26   10   36 1
    27   10   37 1
    28   10   38 1
    29   11   12 1
    30   11   39 1
    31   11   40 1
    32   12   17 ar
    33   12   13 ar
    34   13   14 ar
    35   14   15 ar
    36   14   41 1
    37   15   16 ar
    38   15   18 1
    39   16   17 ar
    40   16   42 1
    41   17   43 1
    42   18   44 1
    43   19   20 1
    44   19   45 1
    45   19   46 1
    46   19   52 1
    47   20   22 1
    48   20   21 1
    49   20   23 1
    50   21   22 1
    51   21   47 1
    52   21   48 1
    53   22   49 1
    54   22   50 1
    55   23   51 1
    56   52   53 1
@<TRIPOS>MOLECULE
ZINC04393014
   68    74     0     0     0
SMALL
USER_CHARGES
N-(cyclopropylmethyl-dihydroxy-BLAHyl)-3-(3-furyl)-N-methyl-prop-2-enamide
@<TRIPOS>ATOM
      1 C1         -0.5892    8.1423    0.0517 C.3       1 <0>         0.0715
      2 N1          0.8743    8.0763    0.0378 N.am      1 <0>        -0.6164
      3 C2          1.6632    9.3107    0.0374 C.3       1 <0>         0.1287
      4 H1          2.7173    9.0404   -0.0258 H         1 <0>         0.1096
      5 C3          1.4374   10.0178    1.3535 C.3       1 <0>        -0.1206
      6 C4          2.0624   11.4125    1.3535 C.3       1 <0>        -0.1384
      7 C5          1.3571   12.2422    0.2857 C.3       1 <0>         0.1460
      8 C6          1.9268   13.6584    0.2220 C.3       1 <0>         0.0189
      9 H2          1.7430   14.1243    1.1902 H         1 <0>         0.1387
     10 C7          3.4198   13.7238   -0.0524 C.3       1 <0>        -0.0861
     11 C8          3.8992   12.6425   -0.9660 C.ar      1 <0>        -0.0604
     12 C9          5.2034   12.5012   -1.4074 C.ar      1 <0>        -0.1158
     13 C10         5.5623   11.4137   -2.1864 C.ar      1 <0>        -0.0971
     14 C11         4.6693   10.4082   -2.5513 C.ar      1 <0>         0.1099
     15 C12         3.3464   10.5448   -2.1174 C.ar      1 <0>         0.1079
     16 C13         3.0130   11.6824   -1.3942 C.ar      1 <0>        -0.1873
     17 C14         1.5390   11.6002   -1.0776 C.3       1 <0>        -0.0285
     18 C15         1.3014   10.1053   -1.2011 C.3       1 <0>         0.0991
     19 H3          0.2782    9.8964   -1.5132 H         1 <0>         0.1341
     20 O1          2.2709    9.7357   -2.2339 O.3       1 <0>        -0.2766
     21 C16         0.7592   12.3987   -2.1242 C.3       1 <0>        -0.1235
     22 C17         1.3039   13.8328   -2.1296 C.3       1 <0>        -0.0022
     23 C18         1.6093   15.8309   -0.8002 C.3       1 <0>         0.0256
     24 C19         0.6577   16.6430   -1.6811 C.3       1 <0>        -0.2116
     25 C20         1.2412   17.2980   -2.9346 C.3       1 <0>        -0.1675
     26 C21         0.8592   18.1590   -1.7280 C.3       1 <0>        -0.1484
     27 O2          5.0661    9.3415   -3.2956 O.3       1 <0>        -0.4803
     28 O3         -0.0364   12.3066    0.5957 O.3       1 <0>        -0.5458
     29 C22         1.4948    6.8799    0.0255 C.2       1 <0>         0.5635
     30 O4          2.7109    6.8251    0.0140 O.2       1 <0>        -0.5430
     31 C23         0.7312    5.6852    0.0260 C.2       1 <0>        -0.2576
     32 C24         1.3533    4.4858    0.0137 C.2       1 <0>         0.0558
     33 C25         0.5623    3.2483    0.0141 C.2       1 <0>        -0.1938
     34 C26         1.0702    1.8678    0.0019 C.2       1 <0>        -0.1949
     35 C27        -0.0126    1.0758    0.0080 C.2       1 <0>        -0.0281
     36 O5         -1.1171    1.8384    0.0168 O.3       1 <0>        -0.1741
     37 C28        -0.8002    3.1379    0.0266 C.2       1 <0>         0.0116
     38 H4         -0.9427    8.1530    1.0827 H         1 <0>         0.0632
     39 H5         -0.9167    9.0506   -0.4542 H         1 <0>         0.0707
     40 H6         -0.9970    7.2724   -0.4632 H         1 <0>         0.0812
     41 H7          0.3656   10.1077    1.5303 H         1 <0>         0.0845
     42 H8          1.8815    9.4283    2.1555 H         1 <0>         0.0860
     43 H9          3.1251   11.3403    1.1222 H         1 <0>         0.0919
     44 H10         1.9284   11.8775    2.3302 H         1 <0>         0.0917
     45 H11         3.9536   13.6440    0.8947 H         1 <0>         0.1263
     46 H12         3.6493   14.6896   -0.5025 H         1 <0>         0.1040
     47 H13         5.9438   13.2419   -1.1438 H         1 <0>         0.1390
     48 H14         6.5844   11.3413   -2.5275 H         1 <0>         0.1429
     49 H15         0.8960   11.9490   -3.1077 H         1 <0>         0.1162
     50 H16        -0.2999   12.4078   -1.8667 H         1 <0>         0.1062
     51 H17         0.7347   14.4326   -2.8399 H         1 <0>         0.1338
     52 H18         2.3521   13.8176   -2.4282 H         1 <0>         0.1327
     53 H19         1.5865   16.2226    0.2167 H         1 <0>         0.1319
     54 H20         2.6224   15.9047   -1.1955 H         1 <0>         0.1324
     55 H21        -0.3646   16.2692   -1.7380 H         1 <0>         0.1247
     56 H22         2.3030   17.1503   -3.1318 H         1 <0>         0.1059
     57 H23         0.6027   17.3554   -3.8162 H         1 <0>         0.1103
     58 H24        -0.0305   18.7825   -1.8162 H         1 <0>         0.1123
     59 H25         1.6694   18.5777   -1.1311 H         1 <0>         0.1075
     60 H26         5.3772    8.5904   -2.7719 H         1 <0>         0.4007
     61 H27        -0.2302   12.7063    1.4547 H         1 <0>         0.3925
     62 H28        -0.3477    5.7339    0.0362 H         1 <0>         0.1275
     63 H29         2.4321    4.4371    0.0035 H         1 <0>         0.1388
     64 H30         2.1040    1.5555   -0.0092 H         1 <0>         0.1589
     65 H31         0.0021   -0.0041    0.0020 H         1 <0>         0.2096
     66 H32        -1.5010    3.9595    0.0380 H         1 <0>         0.2082
     67 N2          1.1521   14.4290   -0.7815 N.4       1 <0>        -0.3857
     68 H33         0.1594   14.4062   -0.5202 H         1 <0>         0.4311
@<TRIPOS>BOND
     1    1    2 1
     2    1   38 1
     3    1   39 1
     4    1   40 1
     5    2    3 1
     6    2   29 am
     7    3    4 1
     8    3   18 1
     9    3    5 1
    10    5    6 1
    11    5   41 1
    12    5   42 1
    13    6    7 1
    14    6   43 1
    15    6   44 1
    16    7   17 1
    17    7    8 1
    18    7   28 1
    19    8    9 1
    20    8   10 1
    21    8   67 1
    22   10   11 1
    23   10   45 1
    24   10   46 1
    25   11   16 ar
    26   11   12 ar
    27   12   13 ar
    28   12   47 1
    29   13   14 ar
    30   13   48 1
    31   14   15 ar
    32   14   27 1
    33   15   20 1
    34   15   16 ar
    35   16   17 1
    36   17   18 1
    37   17   21 1
    38   18   19 1
    39   18   20 1
    40   21   22 1
    41   21   49 1
    42   21   50 1
    43   22   51 1
    44   22   52 1
    45   22   67 1
    46   23   24 1
    47   23   53 1
    48   23   54 1
    49   23   67 1
    50   24   26 1
    51   24   25 1
    52   24   55 1
    53   25   26 1
    54   25   56 1
    55   25   57 1
    56   26   58 1
    57   26   59 1
    58   27   60 1
    59   28   61 1
    60   29   30 2
    61   29   31 1
    62   31   32 2
    63   31   62 1
    64   32   33 1
    65   32   63 1
    66   33   37 2
    67   33   34 1
    68   34   35 2
    69   34   64 1
    70   35   36 1
    71   35   65 1
    72   36   37 1
    73   37   66 1
    74   67   68 1
@<TRIPOS>MOLECULE
ZINC03982790
   53    57     0     0     0
SMALL
USER_CHARGES

@<TRIPOS>ATOM
      1 C1          0.1986    1.6622   -0.5094 C.ar      1 <0>        -0.1375
      2 C2          1.4169    2.2968   -0.3935 C.ar      1 <0>        -0.0938
      3 C3          2.5906    1.5612   -0.2788 C.ar      1 <0>        -0.1132
      4 C4          2.5300    0.1847   -0.2721 C.ar      1 <0>        -0.0517
      5 C5          1.3090   -0.4582   -0.3998 C.ar      1 <0>        -0.1391
      6 C6          0.1400    0.2762   -0.5169 C.ar      1 <0>         0.1246
      7 O1         -1.0562   -0.3571   -0.6387 O.3       1 <0>        -0.4965
      8 C7          3.7662   -0.6615   -0.1029 C.3       1 <0>        -0.0200
      9 C8          3.6321   -1.9631   -0.8827 C.3       1 <0>        -0.1091
     10 C9          3.4978   -1.6555   -2.3764 C.3       1 <0>        -0.1245
     11 C10         4.7327   -0.8872   -2.8514 C.3       1 <0>        -0.1196
     12 C11         4.8509    0.4246   -2.0725 C.3       1 <0>        -0.1142
     13 C12         4.9930    0.1195   -0.5802 C.3       1 <0>        -0.0850
     14 H1          5.8939   -0.4698   -0.4093 H         1 <0>         0.1023
     15 C13         5.0497    1.4273    0.2098 C.3       1 <0>         0.0287
     16 H2          5.9691    1.9420   -0.0693 H         1 <0>         0.1352
     17 C14         3.8858    2.3206   -0.1787 C.3       1 <0>        -0.0939
     18 N1          5.0969    1.1839    1.6446 N.4       1 <0>        -0.3688
     19 C15         3.9465    0.4061    2.1109 C.3       1 <0>        -0.0194
     20 C16         3.9387   -0.9522    1.3951 C.3       1 <0>        -0.1338
     21 C17         5.1166    2.4740    2.3468 C.3       1 <0>        -0.0071
     22 C18         5.3354    2.2373    3.8424 C.3       1 <0>        -0.1435
     23 C19         4.0334    1.9990    4.6253 C.3       1 <0>        -0.1476
     24 C20         4.6402    2.8628    5.7436 C.3       1 <0>        -0.1419
     25 C21         5.4940    3.5336    4.6545 C.3       1 <0>        -0.1253
     26 H3         -0.7086    2.2427   -0.5897 H         1 <0>         0.1361
     27 H4          1.4598    3.3759   -0.3921 H         1 <0>         0.1310
     28 H5          1.2685   -1.5374   -0.4084 H         1 <0>         0.1370
     29 H6         -1.3134   -0.5394   -1.5529 H         1 <0>         0.4003
     30 H7          4.5165   -2.5783   -0.7169 H         1 <0>         0.0759
     31 H8          2.7474   -2.5008   -0.5419 H         1 <0>         0.0770
     32 H9          3.4139   -2.5886   -2.9334 H         1 <0>         0.0725
     33 H10         2.6067   -1.0506   -2.5441 H         1 <0>         0.0674
     34 H11         5.6238   -1.4916   -2.6820 H         1 <0>         0.0673
     35 H12         4.6383   -0.6703   -3.9155 H         1 <0>         0.0734
     36 H13         5.7274    0.9737   -2.4163 H         1 <0>         0.0743
     37 H14         3.9572    1.0266   -2.2369 H         1 <0>         0.0788
     38 H15         4.1005    2.7813   -1.1429 H         1 <0>         0.1198
     39 H16         3.7779    3.1057    0.5697 H         1 <0>         0.0954
     40 H17         4.0353    0.2352    3.1838 H         1 <0>         0.1334
     41 H18         3.0290    0.9582    1.9071 H         1 <0>         0.1340
     42 H19         3.0970   -1.5428    1.7569 H         1 <0>         0.1121
     43 H20         4.8703   -1.4928    1.5624 H         1 <0>         0.0976
     44 H21         5.9263    3.0891    1.9540 H         1 <0>         0.1321
     45 H22         4.1658    2.9849    2.1950 H         1 <0>         0.1314
     46 H23         6.1099    1.4976    4.0451 H         1 <0>         0.1117
     47 H24         3.1551    2.4441    4.1578 H         1 <0>         0.0910
     48 H25         3.8803    0.9585    4.9117 H         1 <0>         0.0789
     49 H26         3.9232    3.5364    6.2129 H         1 <0>         0.0808
     50 H27         5.2239    2.2935    6.4671 H         1 <0>         0.0897
     51 H28         6.5200    3.7319    4.9645 H         1 <0>         0.0829
     52 H29         5.0150    4.3981    4.1950 H         1 <0>         0.0917
     53 H30         5.9433    0.6804    1.8638 H         1 <0>         0.4210
@<TRIPOS>BOND
     1    1    6 ar
     2    1    2 ar
     3    1   26 1
     4    2    3 ar
     5    2   27 1
     6    3   17 1
     7    3    4 ar
     8    4    5 ar
     9    4    8 1
    10    5    6 ar
    11    5   28 1
    12    6    7 1
    13    7   29 1
    14    8   13 1
    15    8   20 1
    16    8    9 1
    17    9   10 1
    18    9   30 1
    19    9   31 1
    20   10   11 1
    21   10   32 1
    22   10   33 1
    23   11   12 1
    24   11   34 1
    25   11   35 1
    26   12   13 1
    27   12   36 1
    28   12   37 1
    29   13   14 1
    30   13   15 1
    31   15   16 1
    32   15   17 1
    33   15   18 1
    34   17   38 1
    35   17   39 1
    36   18   19 1
    37   18   21 1
    38   18   53 1
    39   19   20 1
    40   19   40 1
    41   19   41 1
    42   20   42 1
    43   20   43 1
    44   21   22 1
    45   21   44 1
    46   21   45 1
    47   22   25 1
    48   22   23 1
    49   22   46 1
    50   23   24 1
    51   23   47 1
    52   23   48 1
    53   24   25 1
    54   24   49 1
    55   24   50 1
    56   25   51 1
    57   25   52 1
@<TRIPOS>MOLECULE
ZINC14951658
   83    87     0     0     0
SMALL
USER_CHARGES

@<TRIPOS>ATOM
      1 C1          1.6752   -1.6535    0.3359 C.ar      1 <0>        -0.1173
      2 C2          2.1139   -0.3499    0.1977 C.ar      1 <0>        -0.1140
      3 C3          3.4637   -0.0627    0.2779 C.ar      1 <0>        -0.1104
      4 C4          4.3747   -1.0790    0.4967 C.ar      1 <0>        -0.0873
      5 C5          3.9360   -2.3825    0.6357 C.ar      1 <0>        -0.1137
      6 C6          2.5863   -2.6699    0.5541 C.ar      1 <0>        -0.1156
      7 C7          5.8464   -0.7661    0.5831 C.3       1 <0>        -0.0835
      8 C8          6.2194   -0.4657    2.0362 C.3       1 <0>         0.1354
      9 H1          5.9143   -1.2988    2.6693 H         1 <0>         0.1172
     10 C9          7.7103   -0.2735    2.1426 C.2       1 <0>         0.5069
     11 O1          8.1589    0.7794    2.5439 O.2       1 <0>        -0.5273
     12 N1          8.5452   -1.2717    1.7918 N.am      1 <0>        -0.8534
     13 N2          5.5373    0.7550    2.4731 N.am      1 <0>        -0.7042
     14 C10         5.2878    0.9557    3.7823 C.2       1 <0>         0.5150
     15 O2          5.6281    0.1258    4.5987 O.2       1 <0>        -0.5262
     16 C11         4.5861    2.2114    4.2318 C.3       1 <0>         0.1403
     17 H2          3.6025    2.2648    3.7651 H         1 <0>         0.1164
     18 C12         5.4123    3.4320    3.8215 C.3       1 <0>        -0.0435
     19 C13         4.6730    4.6894    4.2004 C.2       1 <0>        -0.1735
     20 C14         3.8376    5.3909    3.4182 C.2       1 <0>         0.0636
     21 N3          3.3546    6.4724    4.1033 N.pl3     1 <0>        -0.5922
     22 H3          2.7339    7.1266    3.7460 H         1 <0>         0.4161
     23 C15         3.8809    6.4938    5.3755 C.ar      1 <0>         0.0998
     24 C16         4.7249    5.3743    5.4943 C.ar      1 <0>        -0.0875
     25 C17         5.3983    5.1338    6.6932 C.ar      1 <0>        -0.0774
     26 C18         5.2311    5.9864    7.7481 C.ar      1 <0>        -0.1413
     27 C19         4.3965    7.0897    7.6373 C.ar      1 <0>        -0.0991
     28 C20         3.7295    7.3511    6.4602 C.ar      1 <0>        -0.1246
     29 N4          4.4349    2.1914    5.6888 N.am      1 <0>        -0.6967
     30 C21         3.3398    1.6364    6.2451 C.2       1 <0>         0.5273
     31 O3          2.4384    1.2355    5.5398 O.2       1 <0>        -0.5279
     32 C22         3.2356    1.5142    7.7435 C.3       1 <0>         0.1207
     33 H4          3.7088    2.3732    8.2192 H         1 <0>         0.0930
     34 C23         3.9185    0.2122    8.2126 C.3       1 <0>        -0.1188
     35 C24         2.9823   -0.2820    9.3470 C.3       1 <0>        -0.1311
     36 C25         1.5922    0.1396    8.8089 C.3       1 <0>         0.0966
     37 N5          1.8224    1.4377    8.1418 N.am      1 <0>        -0.5962
     38 C26         0.8946    2.3925    7.9325 C.2       1 <0>         0.5002
     39 O4          1.1797    3.3867    7.2991 O.2       1 <0>        -0.5277
     40 C27        -0.4972    2.2249    8.4857 C.3       1 <0>         0.0897
     41 H5         -0.4415    1.7920    9.4845 H         1 <0>         0.1028
     42 C28        -1.3009    1.2974    7.5719 C.3       1 <0>        -0.0650
     43 C29        -2.6504    1.0315    8.1877 C.ar      1 <0>        -0.0765
     44 C30        -2.8184   -0.0393    9.0461 C.ar      1 <0>        -0.1025
     45 C31        -4.0546   -0.2855    9.6115 C.ar      1 <0>        -0.1457
     46 C32        -5.1278    0.5430    9.3176 C.ar      1 <0>         0.1001
     47 C33        -4.9565    1.6170    8.4563 C.ar      1 <0>        -0.1453
     48 C34        -3.7171    1.8620    7.8976 C.ar      1 <0>        -0.0734
     49 O5         -6.3450    0.3026    9.8722 O.3       1 <0>        -0.5017
     50 N6         -1.1573    3.5353    8.5560 N.3       1 <0>        -0.8129
     51 H6          0.6202   -1.8773    0.2777 H         1 <0>         0.1218
     52 H7          1.4020    0.4441    0.0268 H         1 <0>         0.1223
     53 H8          3.8064    0.9557    0.1692 H         1 <0>         0.1185
     54 H9          4.6478   -3.1766    0.8063 H         1 <0>         0.1221
     55 H10         2.2436   -3.6883    0.6624 H         1 <0>         0.1228
     56 H11         6.4212   -1.6222    0.2299 H         1 <0>         0.0946
     57 H12         6.0701    0.1024   -0.0365 H         1 <0>         0.0874
     58 H13         8.1864   -2.1138    1.4708 H         1 <0>         0.4011
     59 H14         9.5048   -1.1480    1.8603 H         1 <0>         0.4041
     60 H15         5.2651    1.4187    1.8202 H         1 <0>         0.4027
     61 H16         6.3745    3.4081    4.3331 H         1 <0>         0.0845
     62 H17         5.5734    3.4161    2.7436 H         1 <0>         0.0893
     63 H18         3.5844    5.1391    2.3990 H         1 <0>         0.1685
     64 H19         6.0488    4.2768    6.7868 H         1 <0>         0.1136
     65 H20         5.7523    5.7999    8.6754 H         1 <0>         0.1206
     66 H21         4.2740    7.7540    8.4800 H         1 <0>         0.1233
     67 H22         3.0813    8.2117    6.3844 H         1 <0>         0.1177
     68 H23         5.1228    2.5775    6.2532 H         1 <0>         0.4010
     69 H24         3.9595   -0.5154    7.4021 H         1 <0>         0.0861
     70 H25         4.9169    0.4178    8.5987 H         1 <0>         0.0922
     71 H26         3.0451   -1.3641    9.4618 H         1 <0>         0.0915
     72 H27         3.2070    0.2227   10.2866 H         1 <0>         0.0817
     73 H28         1.2233   -0.5956    8.0937 H         1 <0>         0.0759
     74 H29         0.8867    0.2572    9.6314 H         1 <0>         0.0827
     75 H30        -1.4323    1.7706    6.5989 H         1 <0>         0.0787
     76 H31        -0.7658    0.3558    7.4487 H         1 <0>         0.0817
     77 H32        -1.9826   -0.6840    9.2746 H         1 <0>         0.1233
     78 H33        -4.1855   -1.1225   10.2814 H         1 <0>         0.1265
     79 H34        -5.7905    2.2634    8.2260 H         1 <0>         0.1262
     80 H35        -3.5821    2.7005    7.2305 H         1 <0>         0.1249
     81 H36        -6.4868    0.7489   10.7183 H         1 <0>         0.3898
     82 H37        -0.6817    4.1455    9.2037 H         1 <0>         0.3456
     83 H38        -1.2212    3.9576    7.6419 H         1 <0>         0.3497
@<TRIPOS>BOND
     1    1    6 ar
     2    1    2 ar
     3    1   51 1
     4    2    3 ar
     5    2   52 1
     6    3    4 ar
     7    3   53 1
     8    4    5 ar
     9    4    7 1
    10    5    6 ar
    11    5   54 1
    12    6   55 1
    13    7    8 1
    14    7   56 1
    15    7   57 1
    16    8    9 1
    17    8   10 1
    18    8   13 1
    19   10   11 2
    20   10   12 am
    21   12   58 1
    22   12   59 1
    23   13   14 am
    24   13   60 1
    25   14   15 2
    26   14   16 1
    27   16   17 1
    28   16   18 1
    29   16   29 1
    30   18   19 1
    31   18   61 1
    32   18   62 1
    33   19   24 1
    34   19   20 2
    35   20   21 1
    36   20   63 1
    37   21   22 1
    38   21   23 1
    39   23   28 ar
    40   23   24 ar
    41   24   25 ar
    42   25   26 ar
    43   25   64 1
    44   26   27 ar
    45   26   65 1
    46   27   28 ar
    47   27   66 1
    48   28   67 1
    49   29   30 am
    50   29   68 1
    51   30   31 2
    52   30   32 1
    53   32   33 1
    54   32   37 1
    55   32   34 1
    56   34   35 1
    57   34   69 1
    58   34   70 1
    59   35   36 1
    60   35   71 1
    61   35   72 1
    62   36   37 1
    63   36   73 1
    64   36   74 1
    65   37   38 am
    66   38   39 2
    67   38   40 1
    68   40   41 1
    69   40   42 1
    70   40   50 1
    71   42   43 1
    72   42   75 1
    73   42   76 1
    74   43   48 ar
    75   43   44 ar
    76   44   45 ar
    77   44   77 1
    78   45   46 ar
    79   45   78 1
    80   46   47 ar
    81   46   49 1
    82   47   48 ar
    83   47   79 1
    84   48   80 1
    85   49   81 1
    86   50   82 1
    87   50   83 1
@<TRIPOS>MOLECULE
ZINC14951634
   79    82     0     0     0
SMALL
USER_CHARGES

@<TRIPOS>ATOM
      1 C1          1.9517   -1.5464   -0.2337 C.ar      1 <0>        -0.1169
      2 C2          2.3865   -0.2352   -0.2842 C.ar      1 <0>        -0.1137
      3 C3          3.7298    0.0539   -0.1328 C.ar      1 <0>        -0.1108
      4 C4          4.6382   -0.9682    0.0695 C.ar      1 <0>        -0.0879
      5 C5          4.2033   -2.2793    0.1209 C.ar      1 <0>        -0.1137
      6 C6          2.8602   -2.5685   -0.0319 C.ar      1 <0>        -0.1154
      7 C7          6.1028   -0.6531    0.2336 C.3       1 <0>        -0.0836
      8 C8          6.4134   -0.4287    1.7148 C.3       1 <0>         0.1354
      9 H1          6.0883   -1.2959    2.2896 H         1 <0>         0.1175
     10 C9          7.8972   -0.2352    1.8932 C.2       1 <0>         0.5074
     11 O1          8.3214    0.7970    2.3681 O.2       1 <0>        -0.5284
     12 N1          8.7529   -1.2093    1.5251 N.am      1 <0>        -0.8529
     13 N2          5.7052    0.7636    2.1871 N.am      1 <0>        -0.7039
     14 C10         5.4004    0.8931    3.4935 C.2       1 <0>         0.5162
     15 O2          5.7125    0.0226    4.2782 O.2       1 <0>        -0.5249
     16 C11         4.6719    2.1196    3.9794 C.3       1 <0>         0.1415
     17 H2          3.7081    2.1931    3.4756 H         1 <0>         0.1171
     18 C12         5.5057    3.3644    3.6691 C.3       1 <0>        -0.0819
     19 C13         4.7418    4.5963    4.0814 C.ar      1 <0>        -0.0827
     20 C14         3.8040    5.1461    3.2276 C.ar      1 <0>        -0.1123
     21 C15         3.1033    6.2760    3.6058 C.ar      1 <0>        -0.1140
     22 C16         3.3401    6.8560    4.8381 C.ar      1 <0>        -0.1172
     23 C17         4.2773    6.3057    5.6923 C.ar      1 <0>        -0.1138
     24 C18         4.9750    5.1732    5.3158 C.ar      1 <0>        -0.1107
     25 N3          4.4608    2.0213    5.4257 N.am      1 <0>        -0.7019
     26 C19         3.3749    1.3840    5.9064 C.2       1 <0>         0.5262
     27 O3          2.5258    0.9733    5.1440 O.2       1 <0>        -0.5234
     28 C20         3.2157    1.1818    7.3913 C.3       1 <0>         0.1205
     29 H3          3.6102    2.0451    7.9272 H         1 <0>         0.0932
     30 C21         3.9632   -0.0950    7.8302 C.3       1 <0>        -0.1185
     31 C22         3.0148   -0.7036    8.8968 C.3       1 <0>        -0.1312
     32 C23         1.6238   -0.3464    8.3162 C.3       1 <0>         0.0966
     33 N4          1.7951    0.9949    7.7210 N.am      1 <0>        -0.5969
     34 C24         0.8155    1.8972    7.5142 C.2       1 <0>         0.5010
     35 O4          1.0615    2.9397    6.9455 O.2       1 <0>        -0.5303
     36 C25        -0.5855    1.6105    7.9897 C.3       1 <0>         0.0897
     37 H4         -0.5463    1.1302    8.9674 H         1 <0>         0.1032
     38 C26        -1.2824    0.6822    6.9930 C.3       1 <0>        -0.0652
     39 C27        -2.6375    0.2971    7.5281 C.ar      1 <0>        -0.0769
     40 C28        -2.7719   -0.8261    8.3232 C.ar      1 <0>        -0.1026
     41 C29        -4.0131   -1.1815    8.8146 C.ar      1 <0>        -0.1458
     42 C30        -5.1252   -0.4102    8.5100 C.ar      1 <0>         0.1003
     43 C31        -4.9877    0.7165    7.7124 C.ar      1 <0>        -0.1452
     44 C32        -3.7435    1.0706    7.2278 C.ar      1 <0>        -0.0732
     45 O5         -6.3474   -0.7580    8.9919 O.3       1 <0>        -0.5017
     46 N5         -1.3350    2.8698    8.0926 N.3       1 <0>        -0.8131
     47 H5          0.9017   -1.7719   -0.3475 H         1 <0>         0.1222
     48 H6          1.6768    0.5634   -0.4423 H         1 <0>         0.1228
     49 H7          4.0696    1.0783   -0.1730 H         1 <0>         0.1183
     50 H8          4.9131   -3.0779    0.2787 H         1 <0>         0.1220
     51 H9          2.5205   -3.5929    0.0079 H         1 <0>         0.1230
     52 H10         6.6978   -1.4864   -0.1402 H         1 <0>         0.0950
     53 H11         6.3458    0.2481   -0.3292 H         1 <0>         0.0875
     54 H12         8.4136   -2.0348    1.1453 H         1 <0>         0.4014
     55 H13         9.7080   -1.0847    1.6399 H         1 <0>         0.4043
     56 H14         5.4555    1.4598    1.5595 H         1 <0>         0.4029
     57 H15         6.4456    3.3186    4.2193 H         1 <0>         0.0879
     58 H16         5.7124    3.4060    2.5997 H         1 <0>         0.0933
     59 H17         3.6190    4.6930    2.2649 H         1 <0>         0.1200
     60 H18         2.3711    6.7060    2.9384 H         1 <0>         0.1215
     61 H19         2.7932    7.7392    5.1333 H         1 <0>         0.1205
     62 H20         4.4626    6.7589    6.6549 H         1 <0>         0.1207
     63 H21         5.7045    4.7411    5.9847 H         1 <0>         0.1176
     64 H22         5.1025    2.4149    6.0374 H         1 <0>         0.4024
     65 H23         4.0868   -0.7777    6.9896 H         1 <0>         0.0868
     66 H24         4.9285    0.1553    8.2703 H         1 <0>         0.0923
     67 H25         3.1445   -1.7837    8.9641 H         1 <0>         0.0919
     68 H26         3.1655   -0.2323    9.8680 H         1 <0>         0.0818
     69 H27         1.3352   -1.0679    7.5517 H         1 <0>         0.0763
     70 H28         0.8779   -0.3151    9.1104 H         1 <0>         0.0835
     71 H29        -1.4011    1.1965    6.0393 H         1 <0>         0.0795
     72 H30        -0.6801   -0.2148    6.8495 H         1 <0>         0.0816
     73 H31        -1.9057   -1.4262    8.5600 H         1 <0>         0.1232
     74 H32        -4.1176   -2.0594    9.4350 H         1 <0>         0.1264
     75 H33        -5.8521    1.3186    7.4739 H         1 <0>         0.1265
     76 H34        -3.6352    1.9502    6.6104 H         1 <0>         0.1254
     77 H35        -6.5573   -0.3671    9.8511 H         1 <0>         0.3899
     78 H36        -0.9315    3.4746    8.7922 H         1 <0>         0.3457
     79 H37        -1.3855    3.3345    7.1984 H         1 <0>         0.3507
@<TRIPOS>BOND
     1    1    6 ar
     2    1    2 ar
     3    1   47 1
     4    2    3 ar
     5    2   48 1
     6    3    4 ar
     7    3   49 1
     8    4    5 ar
     9    4    7 1
    10    5    6 ar
    11    5   50 1
    12    6   51 1
    13    7    8 1
    14    7   52 1
    15    7   53 1
    16    8    9 1
    17    8   10 1
    18    8   13 1
    19   10   11 2
    20   10   12 am
    21   12   54 1
    22   12   55 1
    23   13   14 am
    24   13   56 1
    25   14   15 2
    26   14   16 1
    27   16   17 1
    28   16   18 1
    29   16   25 1
    30   18   19 1
    31   18   57 1
    32   18   58 1
    33   19   24 ar
    34   19   20 ar
    35   20   21 ar
    36   20   59 1
    37   21   22 ar
    38   21   60 1
    39   22   23 ar
    40   22   61 1
    41   23   24 ar
    42   23   62 1
    43   24   63 1
    44   25   26 am
    45   25   64 1
    46   26   27 2
    47   26   28 1
    48   28   29 1
    49   28   33 1
    50   28   30 1
    51   30   31 1
    52   30   65 1
    53   30   66 1
    54   31   32 1
    55   31   67 1
    56   31   68 1
    57   32   33 1
    58   32   69 1
    59   32   70 1
    60   33   34 am
    61   34   35 2
    62   34   36 1
    63   36   37 1
    64   36   38 1
    65   36   46 1
    66   38   39 1
    67   38   71 1
    68   38   72 1
    69   39   44 ar
    70   39   40 ar
    71   40   41 ar
    72   40   73 1
    73   41   42 ar
    74   41   74 1
    75   42   43 ar
    76   42   45 1
    77   43   44 ar
    78   43   75 1
    79   44   76 1
    80   45   77 1
    81   46   78 1
    82   46   79 1
@<TRIPOS>MOLECULE
ZINC53050410
   73    76     0     0     0
SMALL
USER_CHARGES

@<TRIPOS>ATOM
      1 C1          5.1169    3.9023   -0.8242 C.ar      1 <0>        -0.1192
      2 C2          5.4047    2.7741   -1.5694 C.ar      1 <0>        -0.1176
      3 C3          4.7343    1.5913   -1.3198 C.ar      1 <0>        -0.1063
      4 C4          3.7764    1.5365   -0.3246 C.ar      1 <0>        -0.0843
      5 C5          3.4893    2.6644    0.4212 C.ar      1 <0>        -0.1021
      6 C6          4.1587    3.8476    0.1706 C.ar      1 <0>        -0.1198
      7 C7          3.0448    0.2472   -0.0531 C.3       1 <0>        -0.0879
      8 C8          3.7889   -0.5442    1.0244 C.3       1 <0>         0.1440
      9 H1          3.2523   -1.4703    1.2306 H         1 <0>         0.1118
     10 C9          5.1794   -0.8663    0.5410 C.2       1 <0>         0.5442
     11 O1          6.1166   -0.1798    0.8891 O.2       1 <0>        -0.5125
     12 N1          5.3814   -1.9172   -0.2783 N.am      1 <0>        -0.6021
     13 C10         4.3274   -2.7670   -0.8616 C.3       1 <0>         0.0898
     14 C11         4.9650   -3.3692   -2.1385 C.3       1 <0>        -0.1299
     15 C12         6.4273   -3.6034   -1.6758 C.3       1 <0>        -0.1248
     16 C13         6.6892   -2.4021   -0.7433 C.3       1 <0>         0.1198
     17 H2          7.2047   -1.6121   -1.2893 H         1 <0>         0.1046
     18 C14         7.5208   -2.8423    0.4339 C.2       1 <0>         0.5099
     19 O2          7.0716   -2.7620    1.5575 O.2       1 <0>        -0.5235
     20 N2          8.7637   -3.3252    0.2379 N.am      1 <0>        -0.8540
     21 N3          3.8707    0.2559    2.2490 N.am      1 <0>        -0.7054
     22 C15         2.8642    0.2218    3.1447 C.2       1 <0>         0.5198
     23 O3          1.9337   -0.5389    2.9826 O.2       1 <0>        -0.5268
     24 C16         2.8952    1.1288    4.3478 C.3       1 <0>         0.1198
     25 H3          3.3898    2.0660    4.0926 H         1 <0>         0.0963
     26 C17         3.6449    0.4383    5.5065 C.3       1 <0>        -0.1224
     27 C18         2.8234    0.8614    6.7529 C.3       1 <0>        -0.1305
     28 C19         1.3824    0.8784    6.1845 C.3       1 <0>         0.0962
     29 N4          1.5247    1.3959    4.8080 N.am      1 <0>        -0.5961
     30 C20         0.5614    2.0098    4.0926 C.2       1 <0>         0.5022
     31 O4          0.7656    2.3142    2.9365 O.2       1 <0>        -0.5332
     32 C21        -0.7693    2.3180    4.7293 C.3       1 <0>         0.0898
     33 H4         -0.6122    2.6590    5.7526 H         1 <0>         0.1037
     34 C22        -1.6343    1.0561    4.7393 C.3       1 <0>        -0.0656
     35 C23        -2.9151    1.3309    5.4844 C.ar      1 <0>        -0.0776
     36 C24        -2.9802    1.1140    6.8484 C.ar      1 <0>        -0.1025
     37 C25        -4.1532    1.3648    7.5336 C.ar      1 <0>        -0.1460
     38 C26        -5.2663    1.8351    6.8520 C.ar      1 <0>         0.1006
     39 C27        -5.1983    2.0523    5.4835 C.ar      1 <0>        -0.1453
     40 C28        -4.0214    1.8050    4.8038 C.ar      1 <0>        -0.0730
     41 O5         -6.4216    2.0821    7.5238 O.3       1 <0>        -0.5018
     42 N5         -1.4475    3.3706    3.9611 N.3       1 <0>        -0.8130
     43 H5          5.6438    4.8252   -1.0163 H         1 <0>         0.1191
     44 H6          6.1530    2.8169   -2.3469 H         1 <0>         0.1184
     45 H7          4.9586    0.7101   -1.9025 H         1 <0>         0.1121
     46 H8          2.7406    2.6217    1.1985 H         1 <0>         0.1256
     47 H9          3.9341    4.7289    0.7530 H         1 <0>         0.1186
     48 H10         2.0345    0.4683    0.2911 H         1 <0>         0.0932
     49 H11         2.9960   -0.3425   -0.9684 H         1 <0>         0.0842
     50 H12         4.0506   -3.5592   -0.1660 H         1 <0>         0.0757
     51 H13         3.4555   -2.1662   -1.1201 H         1 <0>         0.0855
     52 H14         4.4851   -4.3100   -2.4084 H         1 <0>         0.0933
     53 H15         4.9257   -2.6609   -2.9661 H         1 <0>         0.0839
     54 H16         6.5138   -4.5443   -1.1323 H         1 <0>         0.0841
     55 H17         7.1087   -3.5841   -2.5264 H         1 <0>         0.0951
     56 H18         9.1230   -3.3894   -0.6608 H         1 <0>         0.4011
     57 H19         9.2990   -3.6085    0.9956 H         1 <0>         0.4038
     58 H20         4.6492    0.8101    2.4151 H         1 <0>         0.4101
     59 H21         3.6301   -0.6447    5.3843 H         1 <0>         0.0842
     60 H22         4.6687    0.8056    5.5766 H         1 <0>         0.0942
     61 H23         2.9195    0.1264    7.5521 H         1 <0>         0.0928
     62 H24         3.1190    1.8522    7.0978 H         1 <0>         0.0827
     63 H25         0.9679   -0.1296    6.1712 H         1 <0>         0.0779
     64 H26         0.7498    1.5418    6.7743 H         1 <0>         0.0843
     65 H27        -1.8653    0.7658    3.7144 H         1 <0>         0.0800
     66 H28        -1.0932    0.2486    5.2325 H         1 <0>         0.0820
     67 H29        -2.1134    0.7479    7.3785 H         1 <0>         0.1233
     68 H30        -4.2038    1.1945    8.5989 H         1 <0>         0.1264
     69 H31        -6.0635    2.4183    4.9507 H         1 <0>         0.1265
     70 H32        -3.9665    1.9781    3.7392 H         1 <0>         0.1256
     71 H33        -6.4938    2.9846    7.8635 H         1 <0>         0.3900
     72 H34        -0.9269    4.2343    3.9934 H         1 <0>         0.3460
     73 H35        -1.6047    3.0785    3.0082 H         1 <0>         0.3509
@<TRIPOS>BOND
     1    1    6 ar
     2    1    2 ar
     3    1   43 1
     4    2    3 ar
     5    2   44 1
     6    3    4 ar
     7    3   45 1
     8    4    5 ar
     9    4    7 1
    10    5    6 ar
    11    5   46 1
    12    6   47 1
    13    7    8 1
    14    7   48 1
    15    7   49 1
    16    8    9 1
    17    8   10 1
    18    8   21 1
    19   10   11 2
    20   10   12 am
    21   12   16 1
    22   12   13 1
    23   13   14 1
    24   13   50 1
    25   13   51 1
    26   14   15 1
    27   14   52 1
    28   14   53 1
    29   15   16 1
    30   15   54 1
    31   15   55 1
    32   16   17 1
    33   16   18 1
    34   18   19 2
    35   18   20 am
    36   20   56 1
    37   20   57 1
    38   21   22 am
    39   21   58 1
    40   22   23 2
    41   22   24 1
    42   24   25 1
    43   24   29 1
    44   24   26 1
    45   26   27 1
    46   26   59 1
    47   26   60 1
    48   27   28 1
    49   27   61 1
    50   27   62 1
    51   28   29 1
    52   28   63 1
    53   28   64 1
    54   29   30 am
    55   30   31 2
    56   30   32 1
    57   32   33 1
    58   32   34 1
    59   32   42 1
    60   34   35 1
    61   34   65 1
    62   34   66 1
    63   35   40 ar
    64   35   36 ar
    65   36   37 ar
    66   36   67 1
    67   37   38 ar
    68   37   68 1
    69   38   39 ar
    70   38   41 1
    71   39   40 ar
    72   39   69 1
    73   40   70 1
    74   41   71 1
    75   42   72 1
    76   42   73 1
@<TRIPOS>MOLECULE
ZINC03874473
   61    66     0     0     0
SMALL
USER_CHARGES
N-(allyl-dihydroxy-BLAHylidene)aminobenzamide
@<TRIPOS>ATOM
      1 C1          7.6295   13.1139   -2.4643 C.2       1 <0>        -0.1035
      2 C2          6.7173   12.6014   -1.6762 C.2       1 <0>        -0.2364
      3 C3          5.7296   11.6003   -2.2179 C.3       1 <0>         0.0280
      4 C4          7.0851    9.7195   -1.5245 C.3       1 <0>        -0.0016
      5 C5          7.1485    8.5125   -0.5807 C.3       1 <0>        -0.1242
      6 C6          5.9986    7.5660   -0.9181 C.3       1 <0>        -0.0285
      7 C7          6.0945    7.1560   -2.3667 C.ar      1 <0>        -0.1894
      8 C8          5.5777    7.8323   -3.4483 C.ar      1 <0>        -0.0603
      9 C9          5.8200    7.2650   -4.6867 C.ar      1 <0>        -0.1154
     10 C10         6.4859    6.0537   -4.7810 C.ar      1 <0>        -0.0977
     11 C11         6.9277    5.3373   -3.6711 C.ar      1 <0>         0.1121
     12 C12         6.7023    5.9098   -2.4138 C.ar      1 <0>         0.1096
     13 O1          6.9613    5.4684   -1.1643 O.3       1 <0>        -0.2580
     14 C13         6.1447    6.2195   -0.2290 C.3       1 <0>         0.1762
     15 H1          6.6258    6.3216    0.7438 H         1 <0>         0.1519
     16 C14         4.8344    5.4983   -0.1143 C.2       1 <0>         0.0499
     17 N1          4.8473    4.2214   -0.0243 N.2       1 <0>        -0.1787
     18 N2          3.6572    3.5245    0.2221 N.am      1 <0>        -0.5837
     19 C15         3.6503    2.1769    0.2089 C.2       1 <0>         0.5780
     20 O2          4.6769    1.5659   -0.0169 O.2       1 <0>        -0.4859
     21 C16         2.3948    1.4417    0.4688 C.ar      1 <0>        -0.1401
     22 C17         1.2142    2.1401    0.7284 C.ar      1 <0>        -0.0895
     23 C18         0.0456    1.4477    0.9693 C.ar      1 <0>        -0.1246
     24 C19         0.0420    0.0642    0.9546 C.ar      1 <0>        -0.0840
     25 C20         1.2087   -0.6342    0.6989 C.ar      1 <0>        -0.1213
     26 C21         2.3842    0.0458    0.4559 C.ar      1 <0>        -0.0523
     27 C22         3.5109    6.2020   -0.0941 C.3       1 <0>        -0.1129
     28 C23         3.5142    7.3472   -1.1088 C.3       1 <0>        -0.1345
     29 C24         4.6695    8.2904   -0.7782 C.3       1 <0>         0.1482
     30 C25         4.6733    9.4727   -1.7514 C.3       1 <0>         0.0183
     31 H2          3.7407   10.0204   -1.6161 H         1 <0>         0.1411
     32 C26         4.7733    9.0751   -3.2146 C.3       1 <0>        -0.0886
     33 O3          4.5258    8.7723    0.5594 O.3       1 <0>        -0.5415
     34 O4          7.5506    4.1357   -3.8032 O.3       1 <0>        -0.4783
     35 H3          7.6738   12.8191   -3.5024 H         1 <0>         0.1114
     36 H4          8.3373   13.8314   -2.0761 H         1 <0>         0.1239
     37 H5          6.6731   12.8963   -0.6381 H         1 <0>         0.1352
     38 H6          5.9832   11.3622   -3.2509 H         1 <0>         0.1326
     39 H7          4.7255   12.0226   -2.1783 H         1 <0>         0.1350
     40 H8          7.2309    9.3843   -2.5514 H         1 <0>         0.1332
     41 H9          7.8710   10.4267   -1.2595 H         1 <0>         0.1351
     42 H10         8.0992    7.9953   -0.7107 H         1 <0>         0.1203
     43 H11         7.0529    8.8492    0.4516 H         1 <0>         0.1091
     44 H12         5.4883    7.7678   -5.5831 H         1 <0>         0.1392
     45 H13         6.6718    5.6450   -5.7633 H         1 <0>         0.1433
     46 H14         2.8381    4.0120    0.4023 H         1 <0>         0.3880
     47 H15         1.2157    3.2200    0.7399 H         1 <0>         0.1189
     48 H16        -0.8694    1.9869    1.1655 H         1 <0>         0.1330
     49 H17        -0.8756   -0.4730    1.1438 H         1 <0>         0.1337
     50 H18         1.1991   -1.7141    0.6891 H         1 <0>         0.1372
     51 H19         3.2940   -0.5005    0.2557 H         1 <0>         0.1407
     52 H20         2.7212    5.4951   -0.3485 H         1 <0>         0.0848
     53 H21         3.3291    6.6025    0.9032 H         1 <0>         0.1050
     54 H22         3.6463    6.9453   -2.1133 H         1 <0>         0.0947
     55 H23         2.5697    7.8883   -1.0526 H         1 <0>         0.0949
     56 H24         3.7689    8.8916   -3.5962 H         1 <0>         0.1241
     57 H25         5.2101    9.9033   -3.7725 H         1 <0>         0.1060
     58 H26         3.7060    9.2608    0.7156 H         1 <0>         0.3931
     59 H27         6.9497    3.3781   -3.7947 H         1 <0>         0.4005
     60 N3          5.7734   10.3907   -1.3743 N.4       1 <0>        -0.3873
     61 H28         5.6529   10.6652   -0.3923 H         1 <0>         0.4322
@<TRIPOS>BOND
     1    1    2 2
     2    1   35 1
     3    1   36 1
     4    2    3 1
     5    2   37 1
     6    3   38 1
     7    3   39 1
     8    3   60 1
     9    4    5 1
    10    4   40 1
    11    4   41 1
    12    4   60 1
    13    5    6 1
    14    5   42 1
    15    5   43 1
    16    6   14 1
    17    6   29 1
    18    6    7 1
    19    7   12 ar
    20    7    8 ar
    21    8   32 1
    22    8    9 ar
    23    9   10 ar
    24    9   44 1
    25   10   11 ar
    26   10   45 1
    27   11   12 ar
    28   11   34 1
    29   12   13 1
    30   13   14 1
    31   14   15 1
    32   14   16 1
    33   16   17 2
    34   16   27 1
    35   17   18 1
    36   18   19 am
    37   18   46 1
    38   19   20 2
    39   19   21 1
    40   21   26 ar
    41   21   22 ar
    42   22   23 ar
    43   22   47 1
    44   23   24 ar
    45   23   48 1
    46   24   25 ar
    47   24   49 1
    48   25   26 ar
    49   25   50 1
    50   26   51 1
    51   27   28 1
    52   27   52 1
    53   27   53 1
    54   28   29 1
    55   28   54 1
    56   28   55 1
    57   29   30 1
    58   29   33 1
    59   30   31 1
    60   30   32 1
    61   30   60 1
    62   32   56 1
    63   32   57 1
    64   33   58 1
    65   34   59 1
    66   60   61 1
@<TRIPOS>MOLECULE
ZINC00607289
   51    53     0     0     0
SMALL
USER_CHARGES

@<TRIPOS>ATOM
      1 C1         -0.5664    1.5629    0.4635 C.3       1 <0>         0.0474
      2 N1         -0.1670    0.1850    0.1670 N.am      1 <0>        -0.6317
      3 C2          0.1346   -0.7418    1.2608 C.3       1 <0>         0.1670
      4 H1          0.3080   -1.7385    0.8551 H         1 <0>         0.1306
      5 C3         -1.0461   -0.7851    2.2328 C.3       1 <0>        -0.0144
      6 N2         -2.2724   -1.1246    1.4987 N.4       1 <0>        -0.3941
      7 C4         -2.2123   -2.5306    1.0236 C.3       1 <0>        -0.0119
      8 C5         -3.7022   -2.8948    0.8044 C.3       1 <0>        -0.1435
      9 C6         -4.4102   -2.1731    1.9740 C.3       1 <0>        -0.1441
     10 C7         -3.4428   -1.0534    2.4003 C.3       1 <0>        -0.0096
     11 C8          1.3682   -0.2744    1.9894 C.ar      1 <0>        -0.1208
     12 C9          2.4253   -1.1431    2.1866 C.ar      1 <0>        -0.0945
     13 C10         3.5568   -0.7144    2.8549 C.ar      1 <0>        -0.1121
     14 C11         3.6315    0.5831    3.3257 C.ar      1 <0>        -0.0981
     15 C12         2.5748    1.4521    3.1278 C.ar      1 <0>        -0.1150
     16 C13         1.4450    1.0247    2.4556 C.ar      1 <0>        -0.1155
     17 C14        -0.0770   -0.2301   -1.1121 C.2       1 <0>         0.5159
     18 O1          0.2537   -1.3709   -1.3576 O.2       1 <0>        -0.5053
     19 C15        -0.3872    0.7232   -2.2373 C.3       1 <0>        -0.0992
     20 C16        -0.2122    0.0167   -3.5569 C.ar      1 <0>        -0.0669
     21 C17         1.0177    0.0272   -4.1884 C.ar      1 <0>        -0.0850
     22 C18         1.1794   -0.6199   -5.3989 C.ar      1 <0>        -0.0926
     23 C19         0.1104   -1.2790   -5.9791 C.ar      1 <0>        -0.0255
     24 C20        -1.1210   -1.2899   -5.3465 C.ar      1 <0>        -0.0302
     25 C21        -1.2798   -0.6460   -4.1324 C.ar      1 <0>        -0.0867
     26 Cl1        -2.4636   -2.1160   -6.0736 Cl        1 <0>        -0.0403
     27 Cl2         0.3128   -2.0915   -7.4998 Cl        1 <0>        -0.0362
     28 H2          0.3232    2.1757    0.6094 H         1 <0>         0.0828
     29 H3         -1.1484    1.9595   -0.3684 H         1 <0>         0.0929
     30 H4         -1.1712    1.5788    1.3702 H         1 <0>         0.0716
     31 H5         -0.8598   -1.5392    2.9974 H         1 <0>         0.1466
     32 H6         -1.1637    0.1902    2.7052 H         1 <0>         0.1350
     33 H7         -1.6583   -2.5969    0.0872 H         1 <0>         0.1371
     34 H8         -1.7665   -3.1742    1.7819 H         1 <0>         0.1363
     35 H9         -4.0553   -2.5142   -0.1540 H         1 <0>         0.0971
     36 H10        -3.8495   -3.9728    0.8705 H         1 <0>         0.1186
     37 H11        -5.3565   -1.7483    1.6391 H         1 <0>         0.1058
     38 H12        -4.5762   -2.8645    2.8001 H         1 <0>         0.1055
     39 H13        -3.1268   -1.2085    3.4319 H         1 <0>         0.1328
     40 H14        -3.9301   -0.0836    2.3002 H         1 <0>         0.1316
     41 H15         2.3669   -2.1569    1.8188 H         1 <0>         0.1266
     42 H16         4.3823   -1.3934    3.0096 H         1 <0>         0.1316
     43 H17         4.5152    0.9179    3.8485 H         1 <0>         0.1308
     44 H18         2.6330    2.4658    3.4959 H         1 <0>         0.1300
     45 H19         0.6210    1.7047    2.2977 H         1 <0>         0.1272
     46 H20        -1.4160    1.0714   -2.1452 H         1 <0>         0.1115
     47 H21         0.2905    1.5754   -2.1887 H         1 <0>         0.1174
     48 H22         1.8525    0.5417   -3.7357 H         1 <0>         0.1373
     49 H23         2.1402   -0.6107   -5.8920 H         1 <0>         0.1475
     50 H24        -2.2391   -0.6575   -3.6364 H         1 <0>         0.1369
     51 H25        -2.3960   -0.4975    0.7180 H         1 <0>         0.4215
@<TRIPOS>BOND
     1    1    2 1
     2    1   28 1
     3    1   29 1
     4    1   30 1
     5    2    3 1
     6    2   17 am
     7    3    4 1
     8    3    5 1
     9    3   11 1
    10    5    6 1
    11    5   31 1
    12    5   32 1
    13    6   10 1
    14    6    7 1
    15    6   51 1
    16    7    8 1
    17    7   33 1
    18    7   34 1
    19    8    9 1
    20    8   35 1
    21    8   36 1
    22    9   10 1
    23    9   37 1
    24    9   38 1
    25   10   39 1
    26   10   40 1
    27   11   16 ar
    28   11   12 ar
    29   12   13 ar
    30   12   41 1
    31   13   14 ar
    32   13   42 1
    33   14   15 ar
    34   14   43 1
    35   15   16 ar
    36   15   44 1
    37   16   45 1
    38   17   18 2
    39   17   19 1
    40   19   20 1
    41   19   46 1
    42   19   47 1
    43   20   25 ar
    44   20   21 ar
    45   21   22 ar
    46   21   48 1
    47   22   23 ar
    48   22   49 1
    49   23   24 ar
    50   23   27 1
    51   24   25 ar
    52   24   26 1
    53   25   50 1
@<TRIPOS>MOLECULE
ZINC02517042
   59    62     0     0     0
SMALL
USER_CHARGES

@<TRIPOS>ATOM
      1 C1          0.2448    1.1223   -0.1423 C.3       1 <0>         0.0578
      2 N1          0.0632   -0.3228    0.0153 N.am      1 <0>        -0.6354
      3 C2          0.0106   -0.9126    1.3553 C.3       1 <0>         0.1233
      4 H1         -0.1318   -1.9901    1.2725 H         1 <0>         0.1267
      5 C3          1.3219   -0.6268    2.0899 C.3       1 <0>        -0.1215
      6 C4          1.2690   -1.2477    3.4876 C.3       1 <0>        -0.1292
      7 C5          0.0981   -0.6496    4.2664 C.3       1 <0>         0.1192
      8 C6          0.2992    0.8733    4.4050 C.3       1 <0>        -0.1537
      9 C7         -0.1962    1.1392    5.8531 C.3       1 <0>        -0.1581
     10 C8          0.2428   -0.1685    6.5593 C.3       1 <0>         0.0465
     11 O1          0.0492   -1.2054    5.5834 O.3       1 <0>        -0.3611
     12 C9         -1.2143   -0.9235    3.5328 C.3       1 <0>        -0.1428
     13 C10        -1.1559   -0.3028    2.1351 C.3       1 <0>         0.0163
     14 H2         -1.0118    0.7742    2.2213 H         1 <0>         0.1419
     15 N2         -2.4137   -0.5737    1.4263 N.4       1 <0>        -0.3874
     16 C11        -2.6982   -2.0315    1.4268 C.3       1 <0>        -0.0229
     17 C12        -4.2274   -2.0943    1.1852 C.3       1 <0>        -0.1411
     18 C13        -4.7546   -0.8847    1.9907 C.3       1 <0>        -0.1423
     19 C14        -3.5461    0.0584    2.1373 C.3       1 <0>        -0.0168
     20 C15        -0.0554   -1.1097   -1.0724 C.2       1 <0>         0.5138
     21 O2         -0.2057   -2.3061   -0.9419 O.2       1 <0>        -0.5097
     22 C16        -0.0013   -0.5030   -2.4509 C.3       1 <0>        -0.0979
     23 C17        -0.1571   -1.5889   -3.4841 C.ar      1 <0>        -0.0834
     24 C18         0.9584   -2.2422   -3.9738 C.ar      1 <0>        -0.1025
     25 C19         0.8155   -3.2383   -4.9216 C.ar      1 <0>        -0.1141
     26 C20        -0.4429   -3.5814   -5.3794 C.ar      1 <0>        -0.1106
     27 C21        -1.5585   -2.9288   -4.8890 C.ar      1 <0>        -0.1172
     28 C22        -1.4159   -1.9356   -3.9380 C.ar      1 <0>        -0.1080
     29 H3          1.3091    1.3508   -0.1986 H         1 <0>         0.0767
     30 H4         -0.2466    1.4525   -1.0575 H         1 <0>         0.0880
     31 H5         -0.1931    1.6388    0.7118 H         1 <0>         0.0720
     32 H6          2.1526   -1.0584    1.5317 H         1 <0>         0.0943
     33 H7          1.4627    0.4507    2.1760 H         1 <0>         0.0811
     34 H8          1.1351   -2.3260    3.4014 H         1 <0>         0.0821
     35 H9          2.2003   -1.0381    4.0138 H         1 <0>         0.0902
     36 H10         1.3517    1.1369    4.3003 H         1 <0>         0.0915
     37 H11        -0.3110    1.4129    3.6808 H         1 <0>         0.0768
     38 H12         0.3030    2.0061    6.2861 H         1 <0>         0.0923
     39 H13        -1.2794    1.2568    5.8823 H         1 <0>         0.0788
     40 H14         1.2928   -0.1097    6.8456 H         1 <0>         0.0705
     41 H15        -0.3793   -0.3525    7.4353 H         1 <0>         0.0943
     42 H16        -1.3648   -1.9996    3.4468 H         1 <0>         0.1017
     43 H17        -2.0411   -0.4844    4.0911 H         1 <0>         0.0986
     44 H18        -2.1605   -2.5287    0.6195 H         1 <0>         0.1406
     45 H19        -2.4425   -2.4730    2.3900 H         1 <0>         0.1402
     46 H20        -4.4554   -1.9809    0.1254 H         1 <0>         0.0967
     47 H21        -4.6411   -3.0254    1.5724 H         1 <0>         0.1181
     48 H22        -5.5578   -0.3885    1.4459 H         1 <0>         0.1057
     49 H23        -5.1044   -1.2067    2.9715 H         1 <0>         0.1050
     50 H24        -3.2990    0.1842    3.1915 H         1 <0>         0.1331
     51 H25        -3.7731    1.0254    1.6885 H         1 <0>         0.1313
     52 H26        -0.8081    0.2216   -2.5608 H         1 <0>         0.1056
     53 H27         0.9574   -0.0034   -2.5905 H         1 <0>         0.1108
     54 H28         1.9416   -1.9741   -3.6162 H         1 <0>         0.1196
     55 H29         1.6871   -3.7482   -5.3048 H         1 <0>         0.1262
     56 H30        -0.5545   -4.3591   -6.1204 H         1 <0>         0.1260
     57 H31        -2.5416   -3.1966   -5.2468 H         1 <0>         0.1246
     58 H32        -2.2877   -1.4283   -3.5521 H         1 <0>         0.1151
     59 H33        -2.3612   -0.2288    0.4795 H         1 <0>         0.4223
@<TRIPOS>BOND
     1    1    2 1
     2    1   29 1
     3    1   30 1
     4    1   31 1
     5    2    3 1
     6    2   20 am
     7    3    4 1
     8    3   13 1
     9    3    5 1
    10    5    6 1
    11    5   32 1
    12    5   33 1
    13    6    7 1
    14    6   34 1
    15    6   35 1
    16    7   11 1
    17    7    8 1
    18    7   12 1
    19    8    9 1
    20    8   36 1
    21    8   37 1
    22    9   10 1
    23    9   38 1
    24    9   39 1
    25   10   11 1
    26   10   40 1
    27   10   41 1
    28   12   13 1
    29   12   42 1
    30   12   43 1
    31   13   14 1
    32   13   15 1
    33   15   19 1
    34   15   16 1
    35   15   59 1
    36   16   17 1
    37   16   44 1
    38   16   45 1
    39   17   18 1
    40   17   46 1
    41   17   47 1
    42   18   19 1
    43   18   48 1
    44   18   49 1
    45   19   50 1
    46   19   51 1
    47   20   21 2
    48   20   22 1
    49   22   23 1
    50   22   52 1
    51   22   53 1
    52   23   28 ar
    53   23   24 ar
    54   24   25 ar
    55   24   54 1
    56   25   26 ar
    57   25   55 1
    58   26   27 ar
    59   26   56 1
    60   27   28 ar
    61   27   57 1
    62   28   58 1
@<TRIPOS>MOLECULE
ZINC00643032
   51    53     0     0     0
SMALL
USER_CHARGES

@<TRIPOS>ATOM
      1 C1          0.1306    1.7085    0.1467 C.3       1 <0>         0.0574
      2 N1          0.0612    0.2513    0.0119 N.am      1 <0>        -0.6347
      3 C2          0.1236   -0.5984    1.2037 C.3       1 <0>         0.1238
      4 H1          0.1481   -1.6456    0.9024 H         1 <0>         0.1243
      5 C3         -1.1091   -0.3469    2.0745 C.3       1 <0>        -0.1255
      6 C4         -1.0439   -1.2343    3.3191 C.3       1 <0>        -0.1279
      7 C5          0.2196   -0.9032    4.1159 C.3       1 <0>        -0.1185
      8 C6          1.4522   -1.1547    3.2452 C.3       1 <0>        -0.1397
      9 C7          1.3870   -0.2673    2.0005 C.3       1 <0>         0.0187
     10 H2          1.3626    0.7800    2.3018 H         1 <0>         0.1398
     11 N2          2.5705   -0.5087    1.1645 N.4       1 <0>        -0.3894
     12 C8          3.8089   -0.2489    1.9425 C.3       1 <0>        -0.0140
     13 C9          4.8859   -1.0554    1.1743 C.3       1 <0>        -0.1435
     14 C10         4.1220   -2.3279    0.7419 C.3       1 <0>        -0.1414
     15 C11         2.6339   -1.9326    0.7693 C.3       1 <0>        -0.0209
     16 C12        -0.0601   -0.3075   -1.2085 C.2       1 <0>         0.5142
     17 O1         -0.1176   -1.5138   -1.3201 O.2       1 <0>        -0.5086
     18 C13        -0.1243    0.5666   -2.4345 C.3       1 <0>        -0.0996
     19 C14        -0.2585   -0.2981   -3.6614 C.ar      1 <0>        -0.0664
     20 C15         0.8729   -0.7471   -4.3173 C.ar      1 <0>        -0.0908
     21 C16         0.7513   -1.5398   -5.4429 C.ar      1 <0>        -0.0952
     22 C17        -0.5030   -1.8848   -5.9137 C.ar      1 <0>        -0.0261
     23 C18        -1.6358   -1.4355   -5.2567 C.ar      1 <0>        -0.0280
     24 C19        -1.5122   -0.6464   -4.1271 C.ar      1 <0>        -0.0826
     25 Cl1        -3.2105   -1.8671   -5.8466 Cl        1 <0>        -0.0367
     26 Cl2        -0.6564   -2.8799   -7.3279 Cl        1 <0>        -0.0364
     27 H3          1.1744    2.0216    0.1725 H         1 <0>         0.0581
     28 H4         -0.3681    2.1761   -0.7022 H         1 <0>         0.0929
     29 H5         -0.3627    2.0118    1.0702 H         1 <0>         0.0851
     30 H6         -1.1336    0.7003    2.3758 H         1 <0>         0.0783
     31 H7         -2.0092   -0.5828    1.5068 H         1 <0>         0.0881
     32 H8         -1.9221   -1.0551    3.9395 H         1 <0>         0.0857
     33 H9         -1.0194   -2.2815    3.0178 H         1 <0>         0.0734
     34 H10         0.1951    0.1440    4.4172 H         1 <0>         0.0767
     35 H11         0.2660   -1.5354    5.0027 H         1 <0>         0.0893
     36 H12         2.3523   -0.9188    3.8129 H         1 <0>         0.0948
     37 H13         1.4767   -2.2019    2.9439 H         1 <0>         0.0913
     38 H14         4.0492    0.8143    1.9393 H         1 <0>         0.1348
     39 H15         3.7067   -0.6182    2.9629 H         1 <0>         0.1394
     40 H16         5.2351   -0.5006    0.3035 H         1 <0>         0.0970
     41 H17         5.7185   -1.3095    1.8304 H         1 <0>         0.1179
     42 H18         4.4168   -2.6223   -0.2653 H         1 <0>         0.1047
     43 H19         4.3108   -3.1396    1.4446 H         1 <0>         0.1045
     44 H20         2.1006   -2.5440    1.4971 H         1 <0>         0.1344
     45 H21         2.1968   -2.0630   -0.2207 H         1 <0>         0.1322
     46 H22        -0.9854    1.2310   -2.3623 H         1 <0>         0.1159
     47 H23         0.7873    1.1598   -2.5059 H         1 <0>         0.1122
     48 H24         1.8522   -0.4780   -3.9500 H         1 <0>         0.1333
     49 H25         1.6354   -1.8896   -5.9551 H         1 <0>         0.1461
     50 H26        -2.3954   -0.2990   -3.6118 H         1 <0>         0.1406
     51 H27         2.5438    0.0790    0.3448 H         1 <0>         0.4210
@<TRIPOS>BOND
     1    1    2 1
     2    1   27 1
     3    1   28 1
     4    1   29 1
     5    2    3 1
     6    2   16 am
     7    3    4 1
     8    3    9 1
     9    3    5 1
    10    5    6 1
    11    5   30 1
    12    5   31 1
    13    6    7 1
    14    6   32 1
    15    6   33 1
    16    7    8 1
    17    7   34 1
    18    7   35 1
    19    8    9 1
    20    8   36 1
    21    8   37 1
    22    9   10 1
    23    9   11 1
    24   11   15 1
    25   11   12 1
    26   11   51 1
    27   12   13 1
    28   12   38 1
    29   12   39 1
    30   13   14 1
    31   13   40 1
    32   13   41 1
    33   14   15 1
    34   14   42 1
    35   14   43 1
    36   15   44 1
    37   15   45 1
    38   16   17 2
    39   16   18 1
    40   18   19 1
    41   18   46 1
    42   18   47 1
    43   19   24 ar
    44   19   20 ar
    45   20   21 ar
    46   20   48 1
    47   21   22 ar
    48   21   49 1
    49   22   23 ar
    50   22   26 1
    51   23   24 ar
    52   23   25 1
    53   24   50 1
@<TRIPOS>MOLECULE
ZINC01999400
   45    48     0     0     0
SMALL
USER_CHARGES
cyclopropylmethyl-hydroxy-dimethyl-BLAHone
@<TRIPOS>ATOM
      1 C1         -3.3096    0.8170    2.4176 C.3       1 <0>        -0.1625
      2 C2         -2.4131    0.5658    1.2035 C.3       1 <0>        -0.0916
      3 H1         -2.2710   -0.5066    1.0704 H         1 <0>         0.1158
      4 C3         -3.0690    1.1560   -0.0496 C.3       1 <0>         0.0072
      5 H2         -3.9427    0.6986   -0.2153 H         1 <0>         0.1382
      6 C4         -3.3126    2.6240    0.2093 C.2       1 <0>         0.3964
      7 O1         -4.3197    3.1670   -0.1933 O.2       1 <0>        -0.3997
      8 C5         -2.3114    3.3900    0.9517 C.ar      1 <0>        -0.2033
      9 C6         -2.4440    4.7785    1.0740 C.ar      1 <0>        -0.0260
     10 C7         -1.5239    5.4908    1.7897 C.ar      1 <0>        -0.1554
     11 C8         -0.4555    4.8394    2.3967 C.ar      1 <0>         0.1732
     12 C9         -0.3131    3.4620    2.2755 C.ar      1 <0>        -0.1555
     13 C10        -1.2333    2.7337    1.5514 C.ar      1 <0>        -0.0106
     14 C11        -1.0557    1.2422    1.4198 C.3       1 <0>        -0.0284
     15 C12        -0.1872    0.9762    0.1794 C.3       1 <0>        -0.1331
     16 C13        -0.8862    1.5938   -1.0359 C.3       1 <0>        -0.0141
     17 C14        -2.8547    1.4612   -2.4361 C.3       1 <0>         0.0239
     18 C15        -2.0592    0.9969   -3.6578 C.3       1 <0>        -0.2115
     19 C16        -1.4228    2.0747   -4.5377 C.3       1 <0>        -0.1677
     20 C17        -2.6438    1.3007   -5.0386 C.3       1 <0>        -0.1474
     21 C18        -0.3772    0.6706    2.6664 C.3       1 <0>        -0.1487
     22 O2          0.4518    5.5517    3.1109 O.3       1 <0>        -0.4914
     23 H3         -4.2783    0.3434    2.2582 H         1 <0>         0.0747
     24 H4         -2.8418    0.3967    3.3079 H         1 <0>         0.0910
     25 H5         -3.4475    1.8899    2.5517 H         1 <0>         0.0685
     26 H6         -3.2729    5.2859    0.6030 H         1 <0>         0.1453
     27 H7         -1.6261    6.5619    1.8839 H         1 <0>         0.1467
     28 H8          0.5187    2.9617    2.7491 H         1 <0>         0.1483
     29 H9         -0.0749   -0.0980    0.0325 H         1 <0>         0.1022
     30 H10         0.7932    1.4337    0.3117 H         1 <0>         0.1204
     31 H11        -1.0081    2.6655   -0.8787 H         1 <0>         0.1316
     32 H12        -0.2823    1.4240   -1.9272 H         1 <0>         0.1393
     33 H13        -3.8685    1.0647   -2.4906 H         1 <0>         0.1357
     34 H14        -2.8910    2.5504   -2.4186 H         1 <0>         0.1294
     35 H15        -1.5154    0.0600   -3.5365 H         1 <0>         0.1274
     36 H16        -1.5709    3.1146   -4.2462 H         1 <0>         0.1052
     37 H17        -0.4601    1.8471   -4.9954 H         1 <0>         0.1115
     38 H18        -2.4844    0.5639   -5.8259 H         1 <0>         0.1139
     39 H19        -3.5954    1.8310   -5.0767 H         1 <0>         0.1081
     40 H20         0.5948    1.1451    2.8009 H         1 <0>         0.0756
     41 H21        -0.9999    0.8640    3.5399 H         1 <0>         0.0768
     42 H22        -0.2433   -0.4045    2.5465 H         1 <0>         0.0756
     43 H23         1.1995    5.8725    2.5883 H         1 <0>         0.4070
     44 N1         -2.2008    0.9358   -1.2258 N.4       1 <0>        -0.3759
     45 H24        -2.0508   -0.0734   -1.3406 H         1 <0>         0.4339
@<TRIPOS>BOND
     1    1    2 1
     2    1   23 1
     3    1   24 1
     4    1   25 1
     5    2    3 1
     6    2   14 1
     7    2    4 1
     8    4    5 1
     9    4    6 1
    10    4   44 1
    11    6    7 2
    12    6    8 1
    13    8   13 ar
    14    8    9 ar
    15    9   10 ar
    16    9   26 1
    17   10   11 ar
    18   10   27 1
    19   11   12 ar
    20   11   22 1
    21   12   13 ar
    22   12   28 1
    23   13   14 1
    24   14   15 1
    25   14   21 1
    26   15   16 1
    27   15   29 1
    28   15   30 1
    29   16   31 1
    30   16   32 1
    31   16   44 1
    32   17   18 1
    33   17   33 1
    34   17   34 1
    35   17   44 1
    36   18   20 1
    37   18   19 1
    38   18   35 1
    39   19   20 1
    40   19   36 1
    41   19   37 1
    42   20   38 1
    43   20   39 1
    44   21   40 1
    45   21   41 1
    46   21   42 1
    47   22   43 1
    48   44   45 1
@<TRIPOS>MOLECULE
ZINC04102216
   48    51     0     0     0
SMALL
USER_CHARGES
cyclopropylmethyl-ethyl-hydroxy-methyl-BLAHone
@<TRIPOS>ATOM
      1 C1          1.3069    1.6986   -2.6142 C.3       1 <0>        -0.1635
      2 C2         -0.0946    1.0948   -2.5038 C.3       1 <0>        -0.1147
      3 C3         -0.6653    1.3814   -1.1134 C.3       1 <0>        -0.0251
      4 C4          0.1635    0.6518   -0.0435 C.3       1 <0>        -0.1352
      5 C5         -0.4644    0.9374    1.3244 C.3       1 <0>        -0.0166
      6 C6         -1.1804    3.1414    0.5750 C.3       1 <0>         0.0070
      7 H1         -1.1123    4.1159    0.7886 H         1 <0>         0.1373
      8 C7         -0.6028    2.8828   -0.8209 C.3       1 <0>        -0.0933
      9 H2          0.4334    3.2189   -0.8569 H         1 <0>         0.1181
     10 C8         -1.4245    3.6427   -1.8642 C.3       1 <0>        -0.1618
     11 C9         -2.6363    2.7397    0.5589 C.2       1 <0>         0.3979
     12 O1         -3.4667    3.3887    1.1593 O.2       1 <0>        -0.3992
     13 C10        -3.0229    1.5410   -0.2039 C.ar      1 <0>        -0.2011
     14 C11        -2.0877    0.8902   -1.0134 C.ar      1 <0>        -0.0108
     15 C12        -2.4632   -0.2151   -1.7283 C.ar      1 <0>        -0.1540
     16 C13        -3.7647   -0.6957   -1.6461 C.ar      1 <0>         0.1720
     17 C14        -4.6985   -0.0587   -0.8359 C.ar      1 <0>        -0.1557
     18 C15        -4.3337    1.0568   -0.1162 C.ar      1 <0>        -0.0259
     19 O2         -4.1258   -1.7917   -2.3594 O.3       1 <0>        -0.4914
     20 C16        -0.9376    2.6808    2.9334 C.3       1 <0>         0.0217
     21 C17        -0.3252    1.6953    3.9308 C.3       1 <0>        -0.2111
     22 C18        -1.2781    0.7512    4.6667 C.3       1 <0>        -0.1674
     23 C19        -0.6246    1.9147    5.4151 C.3       1 <0>        -0.1475
     24 H3          1.7533    1.4092   -3.5656 H         1 <0>         0.0698
     25 H4          1.2397    2.7852   -2.5601 H         1 <0>         0.0607
     26 H5          1.9261    1.3317   -1.7957 H         1 <0>         0.0591
     27 H6         -0.0392    0.0173   -2.6587 H         1 <0>         0.0814
     28 H7         -0.7418    1.5380   -3.2606 H         1 <0>         0.0827
     29 H8          0.1518   -0.4209   -0.2371 H         1 <0>         0.1202
     30 H9          1.1902    1.0174   -0.0607 H         1 <0>         0.1032
     31 H10        -1.4950    0.5825    1.3320 H         1 <0>         0.1323
     32 H11         0.1026    0.4212    2.0991 H         1 <0>         0.1407
     33 H12        -2.4611    3.3084   -1.8241 H         1 <0>         0.0687
     34 H13        -1.3790    4.7114   -1.6545 H         1 <0>         0.0744
     35 H14        -1.0186    3.4497   -2.8572 H         1 <0>         0.0908
     36 H15        -1.7442   -0.7165   -2.3592 H         1 <0>         0.1469
     37 H16        -5.7078   -0.4378   -0.7721 H         1 <0>         0.1472
     38 H17        -5.0551    1.5555    0.5141 H         1 <0>         0.1457
     39 H18        -3.9967   -2.6269   -1.8894 H         1 <0>         0.4067
     40 H19        -0.6541    3.6973    3.2064 H         1 <0>         0.1360
     41 H20        -2.0236    2.5891    2.9521 H         1 <0>         0.1294
     42 H21         0.6604    1.3115    3.6675 H         1 <0>         0.1282
     43 H22        -2.3413    0.8322    4.4403 H         1 <0>         0.1046
     44 H23        -0.9196   -0.2541    4.8876 H         1 <0>         0.1115
     45 H24         0.1639    1.6748    6.1284 H         1 <0>         0.1140
     46 H25        -1.2578    2.7611    5.6811 H         1 <0>         0.1079
     47 N1         -0.4068    2.3936    1.5904 N.4       1 <0>        -0.3759
     48 H26         0.5730    2.6975    1.5485 H         1 <0>         0.4340
@<TRIPOS>BOND
     1    1    2 1
     2    1   24 1
     3    1   25 1
     4    1   26 1
     5    2    3 1
     6    2   27 1
     7    2   28 1
     8    3    8 1
     9    3   14 1
    10    3    4 1
    11    4    5 1
    12    4   29 1
    13    4   30 1
    14    5   31 1
    15    5   32 1
    16    5   47 1
    17    6    7 1
    18    6    8 1
    19    6   11 1
    20    6   47 1
    21    8    9 1
    22    8   10 1
    23   10   33 1
    24   10   34 1
    25   10   35 1
    26   11   12 2
    27   11   13 1
    28   13   18 ar
    29   13   14 ar
    30   14   15 ar
    31   15   16 ar
    32   15   36 1
    33   16   17 ar
    34   16   19 1
    35   17   18 ar
    36   17   37 1
    37   18   38 1
    38   19   39 1
    39   20   21 1
    40   20   40 1
    41   20   41 1
    42   20   47 1
    43   21   23 1
    44   21   22 1
    45   21   42 1
    46   22   23 1
    47   22   43 1
    48   22   44 1
    49   23   45 1
    50   23   46 1
    51   47   48 1
@<TRIPOS>MOLECULE
ZINC03830613
   46    49     0     0     0
SMALL
USER_CHARGES

@<TRIPOS>ATOM
      1 C1         -0.3045    1.4999   -0.1559 C.3       1 <0>        -0.1545
      2 C2         -0.1403   -0.0193   -0.0800 C.3       1 <0>        -0.0889
      3 H1         -1.1203   -0.4924   -0.0160 H         1 <0>         0.1013
      4 C3          0.5943   -0.5212   -1.3221 C.3       1 <0>         0.0286
      5 H2         -0.0471   -0.3336   -2.1832 H         1 <0>         0.1368
      6 C4          1.8757    0.2680   -1.5223 C.3       1 <0>        -0.0946
      7 C5          2.6291    0.4612   -0.2339 C.ar      1 <0>        -0.1122
      8 C6          3.9306    0.9446   -0.3149 C.ar      1 <0>        -0.0943
      9 C7          4.6722    1.1594    0.8266 C.ar      1 <0>        -0.1367
     10 C8          4.1174    0.8937    2.0704 C.ar      1 <0>         0.1249
     11 C9          2.8234    0.4066    2.1516 C.ar      1 <0>        -0.1399
     12 C10         2.0851    0.1837    0.9993 C.ar      1 <0>        -0.0588
     13 C11         0.6938   -0.3887    1.1516 C.3       1 <0>        -0.0221
     14 C12         0.8320   -1.9218    1.1810 C.3       1 <0>        -0.1320
     15 C13         1.5913   -2.3444   -0.0815 C.3       1 <0>        -0.0206
     16 N1          0.8425   -1.9546   -1.2597 N.4       1 <0>        -0.3638
     17 C14         1.5793   -2.3654   -2.4623 C.3       1 <0>         0.0196
     18 C15         1.7041   -3.8901   -2.4880 C.3       1 <0>        -0.2098
     19 C16         3.1111   -4.4853   -2.4046 C.3       1 <0>        -0.1679
     20 C17         2.3402   -4.5260   -3.7256 C.3       1 <0>        -0.1485
     21 C18         0.0309    0.1321    2.4285 C.3       1 <0>        -0.1463
     22 O1          4.8391    1.1098    3.2015 O.3       1 <0>        -0.4966
     23 H3          0.6775    1.9687   -0.2197 H         1 <0>         0.0719
     24 H4         -0.8887    1.7587   -1.0389 H         1 <0>         0.0687
     25 H5         -0.8191    1.8548    0.7371 H         1 <0>         0.0800
     26 H6          2.5128   -0.2644   -2.2285 H         1 <0>         0.0953
     27 H7          1.6285    1.2449   -1.9378 H         1 <0>         0.1211
     28 H8          4.3644    1.1534   -1.2817 H         1 <0>         0.1314
     29 H9          5.6828    1.5332    0.7533 H         1 <0>         0.1366
     30 H10         2.3872    0.1992    3.1176 H         1 <0>         0.1377
     31 H11         1.3897   -2.2257    2.0668 H         1 <0>         0.1134
     32 H12        -0.1561   -2.3819    1.1895 H         1 <0>         0.0943
     33 H13         2.5640   -1.8529   -0.1017 H         1 <0>         0.1304
     34 H14         1.7315   -3.4254   -0.0760 H         1 <0>         0.1339
     35 H15         1.0426   -2.0297   -3.3496 H         1 <0>         0.1343
     36 H16         2.5740   -1.9196   -2.4489 H         1 <0>         0.1310
     37 H17         0.8965   -4.4361   -2.0003 H         1 <0>         0.1248
     38 H18         3.9479   -3.7907   -2.3314 H         1 <0>         0.1051
     39 H19         3.2294   -5.4231   -1.8618 H         1 <0>         0.1100
     40 H20         1.9515   -5.4907   -4.0519 H         1 <0>         0.1124
     41 H21         2.6699   -3.8582   -4.5215 H         1 <0>         0.1073
     42 H22        -0.9608   -0.3092    2.5289 H         1 <0>         0.0701
     43 H23         0.6390   -0.1408    3.2909 H         1 <0>         0.0713
     44 H24        -0.0579    1.2171    2.3752 H         1 <0>         0.0737
     45 H25         4.7394    1.9991    3.5678 H         1 <0>         0.4007
     46 H26        -0.0415   -2.4404   -1.2356 H         1 <0>         0.4206
@<TRIPOS>BOND
     1    1    2 1
     2    1   23 1
     3    1   24 1
     4    1   25 1
     5    2    3 1
     6    2   13 1
     7    2    4 1
     8    4    5 1
     9    4   16 1
    10    4    6 1
    11    6    7 1
    12    6   26 1
    13    6   27 1
    14    7   12 ar
    15    7    8 ar
    16    8    9 ar
    17    8   28 1
    18    9   10 ar
    19    9   29 1
    20   10   11 ar
    21   10   22 1
    22   11   12 ar
    23   11   30 1
    24   12   13 1
    25   13   14 1
    26   13   21 1
    27   14   15 1
    28   14   31 1
    29   14   32 1
    30   15   16 1
    31   15   33 1
    32   15   34 1
    33   16   17 1
    34   16   46 1
    35   17   18 1
    36   17   35 1
    37   17   36 1
    38   18   20 1
    39   18   19 1
    40   18   37 1
    41   19   20 1
    42   19   38 1
    43   19   39 1
    44   20   40 1
    45   20   41 1
    46   21   42 1
    47   21   43 1
    48   21   44 1
    49   22   45 1
@<TRIPOS>MOLECULE
ZINC03874479
   58    65     0     0     0
SMALL
USER_CHARGES
cyclopropylmethylBLAHdiol
@<TRIPOS>ATOM
      1 C1          2.9104    3.8420   -0.0057 C.ar      1 <0>        -0.1324
      2 C2          3.3419    2.5263   -0.0286 C.ar      1 <0>        -0.0968
      3 C3          2.4593    1.4607   -0.0259 C.ar      1 <0>        -0.1183
      4 C4          1.1008    1.7658    0.0010 C.ar      1 <0>         0.0897
      5 C5          0.6593    3.1181    0.0309 C.ar      1 <0>        -0.0740
      6 C6          1.5800    4.1739    0.0245 C.ar      1 <0>        -0.0773
      7 C7         -0.7700    3.0646    0.0598 C.2       1 <0>        -0.1678
      8 C8         -1.1262    1.7230    0.0162 C.2       1 <0>         0.0837
      9 N1         -0.0111    0.9658    0.0074 N.pl3     1 <0>        -0.5457
     10 H1          0.0021   -0.0041    0.0020 H         1 <0>         0.4221
     11 C9         -2.5816    1.5112   -0.0422 C.3       1 <0>         0.1626
     12 H2         -2.9244    2.0520   -0.9243 H         1 <0>         0.0952
     13 C10        -3.2046    2.2676    1.1373 C.3       1 <0>        -0.0563
     14 C11        -3.1720    1.6846    2.5425 C.3       1 <0>        -0.0910
     15 C12        -4.2373    2.5141    3.2967 C.3       1 <0>         0.0044
     16 C13        -3.9101    4.5273    1.8149 C.3       1 <0>         0.0571
     17 H3         -3.6274    5.5791    1.8584 H         1 <0>         0.1526
     18 C14        -2.7672    3.7006    1.2598 C.3       1 <0>         0.1355
     19 C15        -1.8510    4.1372    0.1494 C.3       1 <0>        -0.0443
     20 O1         -1.8811    3.6185    2.3779 O.3       1 <0>        -0.5614
     21 C16        -5.2504    4.4002    1.1160 C.3       1 <0>        -0.0933
     22 C17        -5.6062    3.0317    0.6566 C.ar      1 <0>        -0.0633
     23 C18        -4.6108    2.0940    0.6387 C.ar      1 <0>        -0.1732
     24 C19        -4.6380    0.8223    0.0560 C.ar      1 <0>         0.0717
     25 C20        -5.8678    0.3938   -0.4305 C.ar      1 <0>         0.1324
     26 C21        -6.9291    1.2962   -0.3389 C.ar      1 <0>        -0.1100
     27 C22        -6.8205    2.5836    0.1710 C.ar      1 <0>        -0.0947
     28 O2         -6.0291   -0.8442   -0.9698 O.3       1 <0>        -0.4801
     29 O3         -3.3534    0.3148    0.0205 O.3       1 <0>        -0.2585
     30 C23        -5.1376    4.6559    3.9286 C.3       1 <0>         0.0229
     31 C24        -5.1135    4.2203    5.3951 C.3       1 <0>        -0.2112
     32 C25        -6.3404    3.4811    5.9328 C.3       1 <0>        -0.1672
     33 C26        -6.0703    4.9267    6.3577 C.3       1 <0>        -0.1500
     34 H4          3.6459    4.6329   -0.0115 H         1 <0>         0.1235
     35 H5          4.4028    2.3253   -0.0496 H         1 <0>         0.1274
     36 H6          2.8081    0.4388   -0.0442 H         1 <0>         0.1326
     37 H7          1.2564    5.2041    0.0422 H         1 <0>         0.1293
     38 H8         -3.4418    0.6286    2.5279 H         1 <0>         0.1075
     39 H9         -2.1901    1.8240    2.9948 H         1 <0>         0.1214
     40 H10        -4.2192    2.2407    4.3517 H         1 <0>         0.1228
     41 H11        -5.2110    2.2438    2.8880 H         1 <0>         0.1230
     42 H12        -1.4044    5.1025    0.3877 H         1 <0>         0.1001
     43 H13        -2.4004    4.1970   -0.7902 H         1 <0>         0.0913
     44 H14        -1.4455    4.4537    2.5967 H         1 <0>         0.3794
     45 H15        -5.2463    5.0605    0.2487 H         1 <0>         0.1291
     46 H16        -6.0293    4.7446    1.7963 H         1 <0>         0.1068
     47 H17        -7.8984    0.9720   -0.6879 H         1 <0>         0.1444
     48 H18        -7.6832    3.2331    0.1888 H         1 <0>         0.1420
     49 H19        -6.2794   -1.5231   -0.3283 H         1 <0>         0.4014
     50 H20        -4.9723    5.7314    3.8662 H         1 <0>         0.1285
     51 H21        -6.1063    4.4113    3.4928 H         1 <0>         0.1331
     52 H22        -4.1382    3.9245    5.7816 H         1 <0>         0.1236
     53 H23        -7.1648    3.3051    5.2418 H         1 <0>         0.1050
     54 H24        -6.1724    2.6992    6.6734 H         1 <0>         0.1089
     55 H25        -5.7246    5.0952    7.3776 H         1 <0>         0.1113
     56 H26        -6.7166    5.7020    5.9462 H         1 <0>         0.1072
     57 N2         -4.0325    3.9897    3.2451 N.4       1 <0>        -0.3911
     58 H27        -3.1604    4.2067    3.7417 H         1 <0>         0.4282
@<TRIPOS>BOND
     1    1    6 ar
     2    1    2 ar
     3    1   34 1
     4    2    3 ar
     5    2   35 1
     6    3    4 ar
     7    3   36 1
     8    4    9 1
     9    4    5 ar
    10    5    6 ar
    11    5    7 1
    12    6   37 1
    13    7   19 1
    14    7    8 2
    15    8    9 1
    16    8   11 1
    17    9   10 1
    18   11   12 1
    19   11   29 1
    20   11   13 1
    21   13   18 1
    22   13   23 1
    23   13   14 1
    24   14   15 1
    25   14   38 1
    26   14   39 1
    27   15   40 1
    28   15   41 1
    29   15   57 1
    30   16   17 1
    31   16   18 1
    32   16   21 1
    33   16   57 1
    34   18   19 1
    35   18   20 1
    36   19   42 1
    37   19   43 1
    38   20   44 1
    39   21   22 1
    40   21   45 1
    41   21   46 1
    42   22   27 ar
    43   22   23 ar
    44   23   24 ar
    45   24   25 ar
    46   24   29 1
    47   25   26 ar
    48   25   28 1
    49   26   27 ar
    50   26   47 1
    51   27   48 1
    52   28   49 1
    53   30   31 1
    54   30   50 1
    55   30   51 1
    56   30   57 1
    57   31   33 1
    58   31   32 1
    59   31   52 1
    60   32   33 1
    61   32   53 1
    62   32   54 1
    63   33   55 1
    64   33   56 1
    65   57   58 1
@<TRIPOS>MOLECULE
ZINC03995590
   94   106     0     0     0
SMALL
USER_CHARGES
bis(cyclopropylmethyl)BLAHtetrol
@<TRIPOS>ATOM
      1 C1         -4.2408    4.0532   -3.2394 C.ar      1 <0>        -0.1134
      2 C2         -3.9584    2.9337   -4.0047 C.ar      1 <0>        -0.0957
      3 C3         -3.4900    1.7383   -3.4645 C.ar      1 <0>         0.1094
      4 C4         -3.3426    1.6840   -2.0731 C.ar      1 <0>         0.1114
      5 C5         -3.7142    2.7988   -1.3374 C.ar      1 <0>        -0.1823
      6 C6         -4.0855    4.0158   -1.8650 C.ar      1 <0>        -0.0582
      7 C7         -4.2780    5.1826   -0.9520 C.3       1 <0>        -0.0880
      8 C8         -4.0391    4.8548    0.5130 C.3       1 <0>         0.0115
      9 H1         -3.6893    5.7683    0.9939 H         1 <0>         0.1392
     10 C9         -2.9780    3.7683    0.7399 C.3       1 <0>         0.1527
     11 C10        -3.5100    2.4821    0.1226 C.3       1 <0>        -0.0219
     12 C11        -4.8355    2.0867    0.7671 C.3       1 <0>        -0.1286
     13 C12        -5.8408    3.2279    0.5811 C.3       1 <0>        -0.0020
     14 C13        -6.2781    5.5492    1.1099 C.3       1 <0>         0.0260
     15 C14        -7.4603    5.2115    2.0206 C.3       1 <0>        -0.2142
     16 C15        -8.8285    5.0242    1.3619 C.3       1 <0>        -0.1670
     17 C16        -8.5446    6.2768    2.1948 C.3       1 <0>        -0.1470
     18 C17        -2.5614    1.2894    0.0418 C.3       1 <0>         0.1736
     19 H2         -2.7499    0.5782    0.8460 H         1 <0>         0.1394
     20 O1         -2.8749    0.7162   -1.2570 O.3       1 <0>        -0.2785
     21 C18        -1.1278    1.7451    0.0163 C.2       1 <0>         0.0152
     22 C19        -0.7352    3.0399    0.0193 C.2       1 <0>        -0.1254
     23 C20         0.6630    3.0595    0.0048 C.2       1 <0>        -0.1242
     24 C21         1.0842    1.7753    0.0012 C.2       1 <0>         0.0123
     25 N1         -0.0111    0.9658    0.0074 N.pl3     1 <0>        -0.5109
     26 H3          0.0021   -0.0041    0.0020 H         1 <0>         0.4259
     27 C22         2.5295    1.3513   -0.0087 C.3       1 <0>         0.1722
     28 H4          2.7638    0.7176   -0.8640 H         1 <0>         0.1455
     29 C23         3.4428    2.5749    0.0709 C.3       1 <0>        -0.0234
     30 C24         4.8494    2.2442   -0.4175 C.3       1 <0>        -0.1282
     31 C25         5.7854    3.4013   -0.0504 C.3       1 <0>        -0.0016
     32 C26         3.9344    4.9735   -0.1492 C.3       1 <0>         0.0088
     33 H5          3.6143    5.8881   -0.6483 H         1 <0>         0.1384
     34 C27         2.9439    3.8686   -0.5553 C.3       1 <0>         0.1542
     35 C28         1.5707    4.2581    0.0037 C.3       1 <0>        -0.0683
     36 O2          2.8992    3.7431   -1.9781 O.3       1 <0>        -0.5369
     37 C29         3.9583    5.2454    1.3465 C.3       1 <0>        -0.0866
     38 C30         3.6963    4.0323    2.1788 C.ar      1 <0>        -0.0592
     39 C31         3.4539    2.8277    1.5575 C.ar      1 <0>        -0.1765
     40 C32         3.0679    1.6548    2.1891 C.ar      1 <0>         0.1085
     41 C33         3.0234    1.6495    3.5874 C.ar      1 <0>         0.1115
     42 C34         3.3380    2.8428    4.2339 C.ar      1 <0>        -0.0980
     43 C35         3.6585    4.0111    3.5616 C.ar      1 <0>        -0.1114
     44 O3          2.6878    0.5306    4.2839 O.3       1 <0>        -0.4777
     45 O4          2.7993    0.6991    1.2704 O.3       1 <0>        -0.2801
     46 C36         6.2059    5.7573   -0.4118 C.3       1 <0>         0.0258
     47 C37         7.5054    5.4992   -1.1771 C.3       1 <0>        -0.2144
     48 C38         8.7843    5.3184   -0.3570 C.3       1 <0>        -0.1670
     49 C39         8.5655    6.6022   -1.1614 C.3       1 <0>        -0.1470
     50 C40        -1.6879    4.2064    0.0330 C.3       1 <0>        -0.0685
     51 O5         -2.7343    3.5798    2.1353 O.3       1 <0>        -0.5353
     52 O6         -3.1890    0.6720   -4.2531 O.3       1 <0>        -0.4775
     53 H6         -4.5841    4.9588   -3.7174 H         1 <0>         0.1408
     54 H7         -4.1084    2.9906   -5.0728 H         1 <0>         0.1447
     55 H8         -5.2981    5.5495   -1.0653 H         1 <0>         0.1062
     56 H9         -3.5889    5.9731   -1.2493 H         1 <0>         0.1253
     57 H10        -5.2172    1.1832    0.2915 H         1 <0>         0.1198
     58 H11        -4.6833    1.9025    1.8306 H         1 <0>         0.1075
     59 H12        -6.0270    3.3786   -0.4823 H         1 <0>         0.1343
     60 H13        -6.7754    2.9741    1.0813 H         1 <0>         0.1389
     61 H14        -5.8132    6.4758    1.4465 H         1 <0>         0.1326
     62 H15        -6.6315    5.6711    0.0860 H         1 <0>         0.1327
     63 H16        -7.2265    4.5858    2.8819 H         1 <0>         0.1250
     64 H17        -8.8864    5.1415    0.2798 H         1 <0>         0.1064
     65 H18        -9.4950    4.2755    1.7902 H         1 <0>         0.1115
     66 H19        -9.0245    6.3516    3.1706 H         1 <0>         0.1136
     67 H20        -8.4156    7.2183    1.6609 H         1 <0>         0.1081
     68 H21         5.1962    1.3281    0.0607 H         1 <0>         0.1205
     69 H22         4.8383    2.1099   -1.4992 H         1 <0>         0.1079
     70 H23         5.8294    3.5037    1.0339 H         1 <0>         0.1339
     71 H24         6.7840    3.1984   -0.4375 H         1 <0>         0.1386
     72 H25         1.6857    4.6264    1.0231 H         1 <0>         0.0973
     73 H26         1.1352    5.0407   -0.6175 H         1 <0>         0.0881
     74 H27         2.5883    4.5376   -2.4334 H         1 <0>         0.3928
     75 H28         4.9364    5.6462    1.6125 H         1 <0>         0.1059
     76 H29         3.2008    5.9945    1.5770 H         1 <0>         0.1246
     77 H30         3.3314    2.8581    5.3137 H         1 <0>         0.1437
     78 H31         3.8802    4.9090    4.1195 H         1 <0>         0.1402
     79 H32         1.7406    0.4455    4.4588 H         1 <0>         0.3963
     80 H33         5.7558    6.6859   -0.7628 H         1 <0>         0.1325
     81 H34         6.4217    5.8381    0.6536 H         1 <0>         0.1325
     82 H35         7.4049    4.9107   -2.0891 H         1 <0>         0.1252
     83 H36         8.6999    5.3833    0.7278 H         1 <0>         0.1062
     84 H37         9.5253    4.6112   -0.7296 H         1 <0>         0.1114
     85 H38         9.1628    6.7392   -2.0628 H         1 <0>         0.1136
     86 H39         8.3371    7.5119   -0.6061 H         1 <0>         0.1080
     87 H40        -1.2390    5.0408    0.5719 H         1 <0>         0.0875
     88 H41        -1.9132    4.5085   -0.9897 H         1 <0>         0.0978
     89 H42        -2.4218    4.3736    2.5907 H         1 <0>         0.3912
     90 H43        -2.2713    0.6546   -4.5575 H         1 <0>         0.3970
     91 N2         -5.2894    4.4569    1.1948 N.4       1 <0>        -0.3861
     92 H44        -5.0834    4.2703    2.1832 H         1 <0>         0.4321
     93 N3          5.2765    4.6435   -0.6752 N.4       1 <0>        -0.3850
     94 H45         5.2085    4.4998   -1.6896 H         1 <0>         0.4327
@<TRIPOS>BOND
     1    1    6 ar
     2    1    2 ar
     3    1   53 1
     4    2    3 ar
     5    2   54 1
     6    3    4 ar
     7    3   52 1
     8    4   20 1
     9    4    5 ar
    10    5   11 1
    11    5    6 ar
    12    6    7 1
    13    7    8 1
    14    7   55 1
    15    7   56 1
    16    8    9 1
    17    8   10 1
    18    8   91 1
    19   10   50 1
    20   10   11 1
    21   10   51 1
    22   11   12 1
    23   11   18 1
    24   12   13 1
    25   12   57 1
    26   12   58 1
    27   13   59 1
    28   13   60 1
    29   13   91 1
    30   14   15 1
    31   14   61 1
    32   14   62 1
    33   14   91 1
    34   15   17 1
    35   15   16 1
    36   15   63 1
    37   16   17 1
    38   16   64 1
    39   16   65 1
    40   17   66 1
    41   17   67 1
    42   18   19 1
    43   18   20 1
    44   18   21 1
    45   21   25 1
    46   21   22 2
    47   22   23 1
    48   22   50 1
    49   23   35 1
    50   23   24 2
    51   24   25 1
    52   24   27 1
    53   25   26 1
    54   27   28 1
    55   27   45 1
    56   27   29 1
    57   29   34 1
    58   29   39 1
    59   29   30 1
    60   30   31 1
    61   30   68 1
    62   30   69 1
    63   31   70 1
    64   31   71 1
    65   31   93 1
    66   32   33 1
    67   32   34 1
    68   32   37 1
    69   32   93 1
    70   34   35 1
    71   34   36 1
    72   35   72 1
    73   35   73 1
    74   36   74 1
    75   37   38 1
    76   37   75 1
    77   37   76 1
    78   38   43 ar
    79   38   39 ar
    80   39   40 ar
    81   40   41 ar
    82   40   45 1
    83   41   42 ar
    84   41   44 1
    85   42   43 ar
    86   42   77 1
    87   43   78 1
    88   44   79 1
    89   46   47 1
    90   46   80 1
    91   46   81 1
    92   46   93 1
    93   47   49 1
    94   47   48 1
    95   47   82 1
    96   48   49 1
    97   48   83 1
    98   48   84 1
    99   49   85 1
   100   49   86 1
   101   50   87 1
   102   50   88 1
   103   51   89 1
   104   52   90 1
   105   91   92 1
   106   93   94 1
@<TRIPOS>MOLECULE
ZINC02015833
   49    51     0     0     0
SMALL
USER_CHARGES
dimethyl-(3-methylbut-2-enyl)BLAHol
@<TRIPOS>ATOM
      1 C1          0.7871    0.1681   -2.3664 C.3       1 <0>        -0.1543
      2 C2          1.0290   -0.5044   -1.0136 C.3       1 <0>        -0.0895
      3 H1          0.9448   -1.5859   -1.1195 H         1 <0>         0.1004
      4 C3          0.0021   -0.0041    0.0020 C.3       1 <0>         0.0336
      5 H2         -0.9756   -0.3489   -0.3348 H         1 <0>         0.1315
      6 C4         -0.0185    1.5145    0.0104 C.3       1 <0>        -0.0878
      7 C5          1.3688    2.0979    0.0003 C.ar      1 <0>        -0.1107
      8 C6          1.4961    3.4605    0.2480 C.ar      1 <0>        -0.0947
      9 C7          2.7354    4.0629    0.2406 C.ar      1 <0>        -0.1368
     10 C8          3.8693    3.3057   -0.0171 C.ar      1 <0>         0.1241
     11 C9          3.7439    1.9476   -0.2579 C.ar      1 <0>        -0.1402
     12 C10         2.4949    1.3454   -0.2437 C.ar      1 <0>        -0.0591
     13 C11         2.4261   -0.1424   -0.4986 C.3       1 <0>        -0.0216
     14 C12         2.6280   -0.8493    0.8536 C.3       1 <0>        -0.1333
     15 C13         1.5895   -0.2893    1.8323 C.3       1 <0>        -0.0057
     16 C14        -0.7814   -0.1176    2.2799 C.3       1 <0>         0.0302
     17 C15        -0.6498   -0.9004    3.5609 C.2       1 <0>        -0.2601
     18 C16        -0.5056   -0.2716    4.7010 C.2       1 <0>        -0.0349
     19 C17        -0.4712    1.2347    4.7315 C.3       1 <0>        -0.1490
     20 C18        -0.3740   -1.0544    5.9819 C.3       1 <0>        -0.1387
     21 C19         3.5063   -0.5678   -1.4950 C.3       1 <0>        -0.1465
     22 O1          5.0948    3.8930   -0.0336 O.3       1 <0>        -0.4968
     23 H3          0.8836    1.2483   -2.2576 H         1 <0>         0.0720
     24 H4          1.5214   -0.1915   -3.0873 H         1 <0>         0.0794
     25 H5         -0.2159   -0.0736   -2.7181 H         1 <0>         0.0685
     26 H6         -0.5573    1.8664   -0.8694 H         1 <0>         0.1214
     27 H7         -0.5404    1.8569    0.9040 H         1 <0>         0.0930
     28 H8          0.6150    4.0523    0.4477 H         1 <0>         0.1314
     29 H9          2.8240    5.1215    0.4351 H         1 <0>         0.1363
     30 H10         4.6239    1.3543   -0.4581 H         1 <0>         0.1374
     31 H11         3.6325   -0.6513    1.2276 H         1 <0>         0.1128
     32 H12         2.4822   -1.9229    0.7346 H         1 <0>         0.0938
     33 H13         1.7273    0.7874    1.9314 H         1 <0>         0.1312
     34 H14         1.7154   -0.7629    2.8059 H         1 <0>         0.1266
     35 H15        -0.6455    0.9439    2.4872 H         1 <0>         0.1326
     36 H16        -1.7715   -0.2808    1.8543 H         1 <0>         0.1321
     37 H17        -0.6745   -1.9799    3.5390 H         1 <0>         0.1342
     38 H18        -1.4054    1.6277    4.3304 H         1 <0>         0.0808
     39 H19        -0.3457    1.5745    5.7596 H         1 <0>         0.0815
     40 H20         0.3625    1.5915    4.1267 H         1 <0>         0.0749
     41 H21         0.6784   -1.2641    6.1732 H         1 <0>         0.0847
     42 H22        -0.7844   -0.4724    6.8072 H         1 <0>         0.0790
     43 H23        -0.9210   -1.9929    5.8920 H         1 <0>         0.0755
     44 H24         3.4546   -1.6456   -1.6488 H         1 <0>         0.0698
     45 H25         3.3461   -0.0572   -2.4446 H         1 <0>         0.0731
     46 H26         4.4879   -0.3036   -1.1015 H         1 <0>         0.0712
     47 H27         5.3605    4.2244   -0.9024 H         1 <0>         0.4006
     48 N1          0.2298   -0.6075    1.3328 N.4       1 <0>        -0.3809
     49 H28         0.1410   -1.6271    1.2509 H         1 <0>         0.4267
@<TRIPOS>BOND
     1    1    2 1
     2    1   23 1
     3    1   24 1
     4    1   25 1
     5    2    3 1
     6    2   13 1
     7    2    4 1
     8    4    5 1
     9    4    6 1
    10    4   48 1
    11    6    7 1
    12    6   26 1
    13    6   27 1
    14    7   12 ar
    15    7    8 ar
    16    8    9 ar
    17    8   28 1
    18    9   10 ar
    19    9   29 1
    20   10   11 ar
    21   10   22 1
    22   11   12 ar
    23   11   30 1
    24   12   13 1
    25   13   14 1
    26   13   21 1
    27   14   15 1
    28   14   31 1
    29   14   32 1
    30   15   33 1
    31   15   34 1
    32   15   48 1
    33   16   17 1
    34   16   35 1
    35   16   36 1
    36   16   48 1
    37   17   18 2
    38   17   37 1
    39   18   19 1
    40   18   20 1
    41   19   38 1
    42   19   39 1
    43   19   40 1
    44   20   41 1
    45   20   42 1
    46   20   43 1
    47   21   44 1
    48   21   45 1
    49   21   46 1
    50   22   47 1
    51   48   49 1
@<TRIPOS>MOLECULE
ZINC03812983
   41    45     0     0     0
SMALL
USER_CHARGES
methylBLAHdiol
@<TRIPOS>ATOM
      1 C1          2.5532   -4.0281   -1.2929 C.3       1 <0>        -0.0484
      2 C2          3.5947   -1.8745   -0.9415 C.3       1 <0>        -0.0043
      3 C3          3.6019   -0.5992   -0.0995 C.3       1 <0>        -0.1260
      4 C4          2.2189    0.0434   -0.2379 C.3       1 <0>        -0.0574
      5 C5          1.9436    0.2694   -1.7033 C.ar      1 <0>        -0.1864
      6 C6          1.3321   -0.5987   -2.5755 C.ar      1 <0>        -0.0564
      7 C7          1.2190   -0.1564   -3.8812 C.ar      1 <0>        -0.1265
      8 C8          1.6669    1.1083   -4.2290 C.ar      1 <0>        -0.1009
      9 C9          2.2257    2.0020   -3.3175 C.ar      1 <0>         0.1075
     10 C10         2.3451    1.5675   -1.9939 C.ar      1 <0>         0.1517
     11 O1          2.7949    2.1721   -0.8702 O.3       1 <0>        -0.2745
     12 C11         2.1727    1.4792    0.2740 C.3       1 <0>         0.1100
     13 H1          2.6983    1.6223    1.2181 H         1 <0>         0.1502
     14 C12         0.7367    2.0155    0.2661 C.3       1 <0>         0.1097
     15 H2          0.6482    2.7733    1.0446 H         1 <0>         0.0803
     16 C13        -0.3150    0.9908    0.4879 C.2       1 <0>        -0.1525
     17 C14        -0.1527   -0.2942    0.4717 C.2       1 <0>        -0.1355
     18 C15         1.1799   -0.9197    0.2862 C.3       1 <0>        -0.0479
     19 H3          1.5192   -1.2471    1.2689 H         1 <0>         0.1004
     20 C16         1.1821   -2.1468   -0.6151 C.3       1 <0>         0.0590
     21 H4          0.4619   -2.8606   -0.2153 H         1 <0>         0.1363
     22 C17         0.8134   -1.9003   -2.0558 C.3       1 <0>        -0.0882
     23 O2          0.4964    2.6425   -0.9953 O.3       1 <0>        -0.5359
     24 O3          2.6371    3.2410   -3.6984 O.3       1 <0>        -0.4796
     25 H5          2.4612   -3.8104   -2.3570 H         1 <0>         0.1267
     26 H6          3.4994   -4.5361   -1.1065 H         1 <0>         0.1256
     27 H7          1.7289   -4.6694   -0.9807 H         1 <0>         0.1244
     28 H8          4.5493   -2.3884   -0.8287 H         1 <0>         0.1314
     29 H9          3.4563   -1.6019   -1.9877 H         1 <0>         0.1340
     30 H10         4.3670    0.0825   -0.4709 H         1 <0>         0.1194
     31 H11         3.7955   -0.8428    0.9451 H         1 <0>         0.0984
     32 H12         0.7809   -0.7981   -4.6314 H         1 <0>         0.1324
     33 H13         1.5779    1.4173   -5.2600 H         1 <0>         0.1363
     34 H14        -1.3148    1.3526    0.6772 H         1 <0>         0.1225
     35 H15        -1.0158   -0.9312    0.5970 H         1 <0>         0.1292
     36 H16        -0.2725   -1.9066   -2.1492 H         1 <0>         0.1227
     37 H17         1.2210   -2.7075   -2.6645 H         1 <0>         0.1017
     38 H18        -0.3623    3.0826   -1.0586 H         1 <0>         0.3865
     39 H19         3.5594    3.2780   -3.9865 H         1 <0>         0.3923
     40 N1          2.5173   -2.7921   -0.4927 N.4       1 <0>        -0.3970
     41 H20         2.6774   -3.0298    0.4933 H         1 <0>         0.4294
@<TRIPOS>BOND
     1    1   25 1
     2    1   26 1
     3    1   27 1
     4    1   40 1
     5    2    3 1
     6    2   28 1
     7    2   29 1
     8    2   40 1
     9    3    4 1
    10    3   30 1
    11    3   31 1
    12    4   12 1
    13    4   18 1
    14    4    5 1
    15    5   10 ar
    16    5    6 ar
    17    6   22 1
    18    6    7 ar
    19    7    8 ar
    20    7   32 1
    21    8    9 ar
    22    8   33 1
    23    9   10 ar
    24    9   24 1
    25   10   11 1
    26   11   12 1
    27   12   13 1
    28   12   14 1
    29   14   15 1
    30   14   16 1
    31   14   23 1
    32   16   17 2
    33   16   34 1
    34   17   18 1
    35   17   35 1
    36   18   19 1
    37   18   20 1
    38   20   21 1
    39   20   22 1
    40   20   40 1
    41   22   36 1
    42   22   37 1
    43   23   38 1
    44   24   39 1
    45   40   41 1
@<TRIPOS>MOLECULE
ZINC00389747
   46    50     0     0     0
SMALL
USER_CHARGES

@<TRIPOS>ATOM
      1 C1         -0.2153    1.4141   -0.0745 C.2       1 <0>        -0.0995
      2 C2         -0.0782    0.1114   -0.0902 C.2       1 <0>        -0.2383
      3 C3         -1.2926   -0.7753    0.0102 C.3       1 <0>         0.0219
      4 N1         -1.3177   -1.7022   -1.1291 N.4       1 <0>        -0.3732
      5 C4         -0.1699   -2.6098   -1.0369 C.3       1 <0>        -0.0115
      6 C5         -0.1579   -3.5650   -2.2369 C.3       1 <0>        -0.1224
      7 C6         -1.4766   -4.3355   -2.2476 C.3       1 <0>        -0.0302
      8 C7         -1.6481   -5.0614   -0.9360 C.ar      1 <0>        -0.1900
      9 C8         -2.2077   -4.5563    0.2155 C.ar      1 <0>        -0.0588
     10 C9         -2.2401   -5.4171    1.2982 C.ar      1 <0>        -0.1120
     11 C10        -1.7820   -6.7182    1.1690 C.ar      1 <0>        -0.0958
     12 C11        -1.2916   -7.2400   -0.0258 C.ar      1 <0>         0.1139
     13 C12        -1.2444   -6.3749   -1.1253 C.ar      1 <0>         0.0999
     14 O1         -0.8978   -6.5770   -2.4147 O.3       1 <0>        -0.2605
     15 C13        -1.4528   -5.4998   -3.2278 C.3       1 <0>         0.0635
     16 H1         -0.8189   -5.2819   -4.0873 H         1 <0>         0.1602
     17 C14        -2.8321   -5.9204   -3.6420 C.2       1 <0>         0.3396
     18 O2         -2.9993   -7.0571   -4.0139 O.2       1 <0>        -0.4106
     19 C15        -4.0126   -4.9969   -3.6157 C.3       1 <0>        -0.1600
     20 C16        -3.9662   -4.1258   -2.3586 C.3       1 <0>        -0.1396
     21 C17        -2.6424   -3.3641   -2.3407 C.3       1 <0>         0.1455
     22 C18        -2.5801   -2.4492   -1.1149 C.3       1 <0>         0.0114
     23 H2         -3.3918   -1.7267   -1.1991 H         1 <0>         0.1436
     24 C19        -2.7615   -3.1683    0.2110 C.3       1 <0>        -0.0929
     25 O3         -2.5223   -2.5856   -3.5330 O.3       1 <0>        -0.5416
     26 O4         -0.8769   -8.5317   -0.1197 O.3       1 <0>        -0.4784
     27 H3          0.6551    2.0496   -0.1465 H         1 <0>         0.1244
     28 H4         -1.1989    1.8527    0.0058 H         1 <0>         0.1121
     29 H5          0.9051   -0.3271   -0.1750 H         1 <0>         0.1345
     30 H6         -1.2521   -1.3431    0.9398 H         1 <0>         0.1373
     31 H7         -2.1930   -0.1610   -0.0013 H         1 <0>         0.1333
     32 H8          0.7517   -2.0277   -1.0288 H         1 <0>         0.1386
     33 H9         -0.2388   -3.1877   -0.1153 H         1 <0>         0.1323
     34 H10        -0.0581   -2.9942   -3.1601 H         1 <0>         0.1101
     35 H11         0.6746   -4.2623   -2.1434 H         1 <0>         0.1196
     36 H12        -2.6236   -5.0734    2.2475 H         1 <0>         0.1419
     37 H13        -1.8059   -7.3595    2.0377 H         1 <0>         0.1457
     38 H14        -3.9926   -4.3588   -4.4992 H         1 <0>         0.1182
     39 H15        -4.9312   -5.5837   -3.6157 H         1 <0>         0.1110
     40 H16        -4.7952   -3.4182   -2.3732 H         1 <0>         0.0998
     41 H17        -4.0368   -4.7574   -1.4731 H         1 <0>         0.0957
     42 H18        -3.8263   -3.2164    0.4393 H         1 <0>         0.1278
     43 H19        -2.2654   -2.5918    0.9917 H         1 <0>         0.1086
     44 H20        -3.2345   -1.9433   -3.6567 H         1 <0>         0.3954
     45 H21        -1.5743   -9.1511   -0.3750 H         1 <0>         0.4012
     46 H22        -1.2543   -1.1748   -1.9869 H         1 <0>         0.4286
@<TRIPOS>BOND
     1    1    2 2
     2    1   27 1
     3    1   28 1
     4    2    3 1
     5    2   29 1
     6    3    4 1
     7    3   30 1
     8    3   31 1
     9    4   22 1
    10    4    5 1
    11    4   46 1
    12    5    6 1
    13    5   32 1
    14    5   33 1
    15    6    7 1
    16    6   34 1
    17    6   35 1
    18    7   15 1
    19    7   21 1
    20    7    8 1
    21    8   13 ar
    22    8    9 ar
    23    9   24 1
    24    9   10 ar
    25   10   11 ar
    26   10   36 1
    27   11   12 ar
    28   11   37 1
    29   12   13 ar
    30   12   26 1
    31   13   14 1
    32   14   15 1
    33   15   16 1
    34   15   17 1
    35   17   18 2
    36   17   19 1
    37   19   20 1
    38   19   38 1
    39   19   39 1
    40   20   21 1
    41   20   40 1
    42   20   41 1
    43   21   22 1
    44   21   25 1
    45   22   23 1
    46   22   24 1
    47   24   42 1
    48   24   43 1
    49   25   44 1
    50   26   45 1
@<TRIPOS>MOLECULE
ZINC00005739
   51    53     0     0     0
SMALL
USER_CHARGES

@<TRIPOS>ATOM
      1 C1         -0.5664    1.5629    0.4635 C.3       1 <0>         0.0487
      2 N1         -0.1670    0.1850    0.1670 N.am      1 <0>        -0.6331
      3 C2          0.1346   -0.7418    1.2608 C.3       1 <0>         0.1666
      4 H1          0.3080   -1.7385    0.8551 H         1 <0>         0.1299
      5 C3         -1.0461   -0.7851    2.2328 C.3       1 <0>        -0.0141
      6 N2         -2.2724   -1.1246    1.4987 N.4       1 <0>        -0.3939
      7 C4         -2.2123   -2.5306    1.0236 C.3       1 <0>        -0.0116
      8 C5         -3.7022   -2.8948    0.8044 C.3       1 <0>        -0.1433
      9 C6         -4.4102   -2.1731    1.9740 C.3       1 <0>        -0.1440
     10 C7         -3.4428   -1.0534    2.4003 C.3       1 <0>        -0.0096
     11 C8          1.3682   -0.2744    1.9894 C.ar      1 <0>        -0.1201
     12 C9          2.4253   -1.1431    2.1866 C.ar      1 <0>        -0.0948
     13 C10         3.5568   -0.7144    2.8549 C.ar      1 <0>        -0.1123
     14 C11         3.6315    0.5831    3.3257 C.ar      1 <0>        -0.0986
     15 C12         2.5748    1.4521    3.1278 C.ar      1 <0>        -0.1151
     16 C13         1.4450    1.0247    2.4556 C.ar      1 <0>        -0.1155
     17 C14        -0.0770   -0.2301   -1.1121 C.2       1 <0>         0.5162
     18 O1          0.2537   -1.3709   -1.3576 O.2       1 <0>        -0.5061
     19 C15        -0.3872    0.7232   -2.2373 C.3       1 <0>        -0.0978
     20 C16        -0.2122    0.0167   -3.5569 C.ar      1 <0>        -0.0835
     21 C17         1.0173    0.0270   -4.1886 C.ar      1 <0>        -0.1024
     22 C18         1.1778   -0.6210   -5.3991 C.ar      1 <0>        -0.1142
     23 C19         0.1089   -1.2797   -5.9776 C.ar      1 <0>        -0.1105
     24 C20        -1.1203   -1.2907   -5.3454 C.ar      1 <0>        -0.1173
     25 C21        -1.2798   -0.6463   -4.1329 C.ar      1 <0>        -0.1074
     26 H2          0.3232    2.1757    0.6094 H         1 <0>         0.0816
     27 H3         -1.1484    1.9595   -0.3684 H         1 <0>         0.0925
     28 H4         -1.1712    1.5788    1.3702 H         1 <0>         0.0704
     29 H5         -0.8598   -1.5392    2.9974 H         1 <0>         0.1461
     30 H6         -1.1637    0.1902    2.7052 H         1 <0>         0.1346
     31 H7         -1.6583   -2.5969    0.0872 H         1 <0>         0.1372
     32 H8         -1.7665   -3.1742    1.7819 H         1 <0>         0.1360
     33 H9         -4.0553   -2.5142   -0.1540 H         1 <0>         0.0968
     34 H10        -3.8495   -3.9728    0.8705 H         1 <0>         0.1183
     35 H11        -5.3565   -1.7483    1.6391 H         1 <0>         0.1056
     36 H12        -4.5762   -2.8645    2.8001 H         1 <0>         0.1054
     37 H13        -3.1268   -1.2085    3.4319 H         1 <0>         0.1326
     38 H14        -3.9301   -0.0836    2.3002 H         1 <0>         0.1314
     39 H15         2.3669   -2.1569    1.8188 H         1 <0>         0.1264
     40 H16         4.3823   -1.3934    3.0096 H         1 <0>         0.1314
     41 H17         4.5152    0.9179    3.8485 H         1 <0>         0.1307
     42 H18         2.6330    2.4658    3.4959 H         1 <0>         0.1298
     43 H19         0.6210    1.7047    2.2977 H         1 <0>         0.1272
     44 H20        -1.4160    1.0714   -2.1452 H         1 <0>         0.1057
     45 H21         0.2905    1.5754   -2.1887 H         1 <0>         0.1104
     46 H22         1.8523    0.5415   -3.7367 H         1 <0>         0.1193
     47 H23         2.1382   -0.6125   -5.8930 H         1 <0>         0.1261
     48 H24         0.2342   -1.7853   -6.9236 H         1 <0>         0.1261
     49 H25        -1.9555   -1.8049   -5.7975 H         1 <0>         0.1247
     50 H26        -2.2392   -0.6580   -3.6371 H         1 <0>         0.1156
     51 H27        -2.3960   -0.4975    0.7180 H         1 <0>         0.4219
@<TRIPOS>BOND
     1    1    2 1
     2    1   26 1
     3    1   27 1
     4    1   28 1
     5    2    3 1
     6    2   17 am
     7    3    4 1
     8    3    5 1
     9    3   11 1
    10    5    6 1
    11    5   29 1
    12    5   30 1
    13    6   10 1
    14    6    7 1
    15    6   51 1
    16    7    8 1
    17    7   31 1
    18    7   32 1
    19    8    9 1
    20    8   33 1
    21    8   34 1
    22    9   10 1
    23    9   35 1
    24    9   36 1
    25   10   37 1
    26   10   38 1
    27   11   16 ar
    28   11   12 ar
    29   12   13 ar
    30   12   39 1
    31   13   14 ar
    32   13   40 1
    33   14   15 ar
    34   14   41 1
    35   15   16 ar
    36   15   42 1
    37   16   43 1
    38   17   18 2
    39   17   19 1
    40   19   20 1
    41   19   44 1
    42   19   45 1
    43   20   25 ar
    44   20   21 ar
    45   21   22 ar
    46   21   46 1
    47   22   23 ar
    48   22   47 1
    49   23   24 ar
    50   23   48 1
    51   24   25 ar
    52   24   49 1
    53   25   50 1
