@<TRIPOS>MOLECULE
ZINC01608615
   37    38     0     0     0
SMALL
USER_CHARGES

@<TRIPOS>ATOM
      1 C1         -0.0187    1.5258    0.0104 C.3       1 <0>        -0.1562
      2 C2          0.0021   -0.0041    0.0020 C.3       1 <0>         0.0589
      3 O1          0.6709   -0.4649   -1.1737 O.3       1 <0>        -0.3398
      4 C3          0.7755   -1.7935   -1.3341 C.2       1 <0>         0.4675
      5 O2          0.3143   -2.5404   -0.5039 O.2       1 <0>        -0.4978
      6 C4          1.4679   -2.3535   -2.5498 C.3       1 <0>        -0.0092
      7 C5          0.7357   -1.8933   -3.8137 C.3       1 <0>        -0.1358
      8 C6         -0.6869   -2.4568   -3.8061 C.3       1 <0>        -0.0122
      9 N1         -0.6359   -3.9234   -3.7749 N.4       1 <0>        -0.5044
     10 C7          0.0010   -4.3734   -2.5314 C.3       1 <0>        -0.0208
     11 C8          1.4501   -3.8836   -2.4900 C.3       1 <0>        -0.1305
     12 C9          2.8939   -1.8671   -2.5863 C.ar      1 <0>        -0.1084
     13 C10         3.9349   -2.7763   -2.5660 C.ar      1 <0>        -0.1099
     14 C11         5.2429   -2.3302   -2.5995 C.ar      1 <0>        -0.1149
     15 C12         5.5098   -0.9750   -2.6537 C.ar      1 <0>        -0.0999
     16 C13         4.4687   -0.0658   -2.6748 C.ar      1 <0>        -0.1133
     17 C14         3.1607   -0.5121   -2.6457 C.ar      1 <0>        -0.0966
     18 H1          1.0039    1.9031    0.0027 H         1 <0>         0.0710
     19 H2         -0.5459    1.8868   -0.8726 H         1 <0>         0.0688
     20 H3         -0.5289    1.8773    0.9072 H         1 <0>         0.0872
     21 H4          0.5293   -0.3651    0.8851 H         1 <0>         0.0742
     22 H5         -1.0205   -0.3814    0.0098 H         1 <0>         0.0711
     23 H6          0.6957   -0.8043   -3.8350 H         1 <0>         0.1275
     24 H7          1.2662   -2.2560   -4.6941 H         1 <0>         0.1117
     25 H8         -1.2165   -2.0933   -2.9255 H         1 <0>         0.1250
     26 H9         -1.2111   -2.1310   -4.7045 H         1 <0>         0.1457
     27 H10        -1.5737   -4.2927   -3.8240 H         1 <0>         0.4348
     28 H11        -0.5433   -3.9690   -1.6780 H         1 <0>         0.1468
     29 H12        -0.0153   -5.4624   -2.4888 H         1 <0>         0.1418
     30 H13         1.9954   -4.2876   -3.3429 H         1 <0>         0.1103
     31 H14         1.9208   -4.2172   -1.5651 H         1 <0>         0.1253
     32 H15         3.7264   -3.8352   -2.5237 H         1 <0>         0.1277
     33 H16         6.0563   -3.0405   -2.5829 H         1 <0>         0.1310
     34 H17         6.5317   -0.6264   -2.6791 H         1 <0>         0.1308
     35 H18         4.6772    0.9930   -2.7168 H         1 <0>         0.1312
     36 H19         2.3472    0.1981   -2.6660 H         1 <0>         0.1330
     37 H20        -0.1035   -4.2573   -4.5643 H         1 <0>         0.4285
@<TRIPOS>BOND
     1    1    2 1
     2    1   18 1
     3    1   19 1
     4    1   20 1
     5    2    3 1
     6    2   21 1
     7    2   22 1
     8    3    4 1
     9    4    5 2
    10    4    6 1
    11    6   11 1
    12    6    7 1
    13    6   12 1
    14    7    8 1
    15    7   23 1
    16    7   24 1
    17    8    9 1
    18    8   25 1
    19    8   26 1
    20    9   10 1
    21    9   27 1
    22    9   37 1
    23   10   11 1
    24   10   28 1
    25   10   29 1
    26   11   30 1
    27   11   31 1
    28   12   17 ar
    29   12   13 ar
    30   13   14 ar
    31   13   32 1
    32   14   15 ar
    33   14   33 1
    34   15   16 ar
    35   15   34 1
    36   16   17 ar
    37   16   35 1
    38   17   36 1
@<TRIPOS>MOLECULE
ZINC05458899
   58    60     0     0     0
SMALL
USER_CHARGES
N-[1-(2-hydroxy-2-phenyl-ethyl)-3-methyl-4-piperidyl]-N-phenyl-propanamide
@<TRIPOS>ATOM
      1 C1         -1.8914    2.2663   -0.2325 C.3       1 <0>        -0.1399
      2 C2         -0.5688    2.9834   -0.5106 C.3       1 <0>        -0.1460
      3 C3          0.5586    1.9836   -0.4901 C.2       1 <0>         0.5293
      4 O1          0.3174    0.7997   -0.3843 O.2       1 <0>        -0.5280
      5 N1          1.8346    2.4046   -0.5950 N.am      1 <0>        -0.5630
      6 C4          2.1081    3.7556   -0.8358 C.ar      1 <0>         0.1197
      7 C5          1.6812    4.3526   -2.0148 C.ar      1 <0>        -0.1220
      8 C6          1.9473    5.6878   -2.2467 C.ar      1 <0>        -0.0995
      9 C7          2.6483    6.4272   -1.3117 C.ar      1 <0>        -0.1093
     10 C8          3.0801    5.8342   -0.1395 C.ar      1 <0>        -0.1016
     11 C9          2.8118    4.5009    0.1012 C.ar      1 <0>        -0.1224
     12 C10         2.9354    1.4478   -0.4568 C.3       1 <0>         0.1475
     13 H1          3.8869    1.9756   -0.5203 H         1 <0>         0.1047
     14 C11         2.8318    0.7407    0.8973 C.3       1 <0>        -0.1700
     15 C12         3.9470   -0.3014    1.0097 C.3       1 <0>         0.0058
     16 C13         3.9675   -0.6245   -1.3918 C.3       1 <0>        -0.0012
     17 C14         2.8520    0.4068   -1.5766 C.3       1 <0>        -0.1319
     18 H2          1.8842   -0.0931   -1.5374 H         1 <0>         0.1190
     19 C15         3.0157    1.0992   -2.9311 C.3       1 <0>        -0.1455
     20 C16         4.7930   -2.3668    0.0722 C.3       1 <0>        -0.0371
     21 C17         4.5705   -3.4066   -1.0278 C.3       1 <0>         0.1331
     22 H3          4.6071   -2.9186   -2.0018 H         1 <0>         0.1291
     23 C18         5.6484   -4.4571   -0.9515 C.ar      1 <0>        -0.1418
     24 C19         5.5103   -5.5276   -0.0879 C.ar      1 <0>        -0.1067
     25 C20         6.4965   -6.4940   -0.0218 C.ar      1 <0>        -0.1107
     26 C21         7.6261   -6.3838   -0.8110 C.ar      1 <0>        -0.0997
     27 C22         7.7666   -5.3106   -1.6708 C.ar      1 <0>        -0.1119
     28 C23         6.7777   -4.3472   -1.7411 C.ar      1 <0>        -0.1035
     29 O2          3.2928   -4.0214   -0.8507 O.3       1 <0>        -0.5460
     30 H4         -2.7069    2.9895   -0.2473 H         1 <0>         0.0680
     31 H5         -2.0627    1.5099   -0.9985 H         1 <0>         0.0641
     32 H6         -1.8471    1.7887    0.7462 H         1 <0>         0.0607
     33 H7         -0.3976    3.7398    0.2554 H         1 <0>         0.0963
     34 H8         -0.6132    3.4610   -1.4893 H         1 <0>         0.0995
     35 H9          1.1379    3.7744   -2.7475 H         1 <0>         0.1258
     36 H10         1.6114    6.1539   -3.1612 H         1 <0>         0.1331
     37 H11         2.8587    7.4701   -1.4972 H         1 <0>         0.1316
     38 H12         3.6273    6.4143    0.5888 H         1 <0>         0.1318
     39 H13         3.1487    4.0385    1.0172 H         1 <0>         0.1239
     40 H14         2.9340    1.4724    1.6987 H         1 <0>         0.1130
     41 H15         1.8636    0.2462    0.9765 H         1 <0>         0.1117
     42 H16         3.8668   -0.8174    1.9665 H         1 <0>         0.1323
     43 H17         4.9150    0.1956    0.9454 H         1 <0>         0.1309
     44 H18         3.9022   -1.3752   -2.1794 H         1 <0>         0.1334
     45 H19         4.9354   -0.1260   -1.4449 H         1 <0>         0.1314
     46 H20         3.9845    1.5972   -2.9698 H         1 <0>         0.0656
     47 H21         2.9563    0.3577   -3.7278 H         1 <0>         0.0704
     48 H22         2.2230    1.8360   -3.0606 H         1 <0>         0.0737
     49 H23         5.8046   -1.9680   -0.0040 H         1 <0>         0.1428
     50 H24         4.6597   -2.8353    1.0474 H         1 <0>         0.1344
     51 H25         4.6300   -5.6111    0.5322 H         1 <0>         0.1224
     52 H26         6.3866   -7.3326    0.6498 H         1 <0>         0.1317
     53 H27         8.3987   -7.1365   -0.7560 H         1 <0>         0.1318
     54 H28         8.6491   -5.2246   -2.2873 H         1 <0>         0.1319
     55 H29         6.8877   -3.5085   -2.4126 H         1 <0>         0.1260
     56 H30         3.1889   -4.4757   -0.0035 H         1 <0>         0.3882
     57 N2          3.7960   -1.2873   -0.0817 N.4       1 <0>        -0.3917
     58 H31         2.8544   -1.6941   -0.0350 H         1 <0>         0.4350
@<TRIPOS>BOND
     1    1    2 1
     2    1   30 1
     3    1   31 1
     4    1   32 1
     5    2    3 1
     6    2   33 1
     7    2   34 1
     8    3    4 2
     9    3    5 am
    10    5    6 1
    11    5   12 1
    12    6   11 ar
    13    6    7 ar
    14    7    8 ar
    15    7   35 1
    16    8    9 ar
    17    8   36 1
    18    9   10 ar
    19    9   37 1
    20   10   11 ar
    21   10   38 1
    22   11   39 1
    23   12   13 1
    24   12   17 1
    25   12   14 1
    26   14   15 1
    27   14   40 1
    28   14   41 1
    29   15   42 1
    30   15   43 1
    31   15   57 1
    32   16   17 1
    33   16   44 1
    34   16   45 1
    35   16   57 1
    36   17   18 1
    37   17   19 1
    38   19   46 1
    39   19   47 1
    40   19   48 1
    41   20   21 1
    42   20   49 1
    43   20   50 1
    44   20   57 1
    45   21   22 1
    46   21   23 1
    47   21   29 1
    48   23   28 ar
    49   23   24 ar
    50   24   25 ar
    51   24   51 1
    52   25   26 ar
    53   25   52 1
    54   26   27 ar
    55   26   53 1
    56   27   28 ar
    57   27   54 1
    58   28   55 1
    59   29   56 1
    60   57   58 1
@<TRIPOS>MOLECULE
ZINC22066510
   73    75     0     0     0
SMALL
USER_CHARGES

@<TRIPOS>ATOM
      1 C1          2.4910   -1.6080   -3.8112 C.3       1 <0>        -0.1682
      2 C2          1.7409   -0.5348   -3.0198 C.3       1 <0>         0.1082
      3 N1          0.4296   -1.0506   -2.6189 N.am      1 <0>        -0.6052
      4 C3          0.2957   -1.8338   -1.3881 C.3       1 <0>         0.0959
      5 C4          0.2625   -0.8901   -0.1842 C.3       1 <0>        -0.1789
      6 C5         -0.6534   -0.8047   -3.3824 C.2       1 <0>         0.5551
      7 O1         -0.5330   -0.2052   -4.4329 O.2       1 <0>        -0.5297
      8 C6         -1.9880   -1.2642   -2.9423 C.ar      1 <0>        -0.1172
      9 C7         -2.3958   -1.0698   -1.6217 C.ar      1 <0>        -0.0965
     10 C8         -3.6425   -1.5005   -1.2175 C.ar      1 <0>        -0.1206
     11 C9         -4.4878   -2.1244   -2.1179 C.ar      1 <0>        -0.0559
     12 C10        -4.0894   -2.3205   -3.4283 C.ar      1 <0>        -0.0954
     13 C11        -2.8477   -1.8890   -3.8470 C.ar      1 <0>        -0.0706
     14 C12        -5.8481   -2.5927   -1.6693 C.3       1 <0>         0.1758
     15 H1         -6.1289   -2.0701   -0.7549 H         1 <0>         0.0736
     16 C13        -5.8075   -4.0763   -1.4077 C.ar      1 <0>        -0.0583
     17 C14        -5.6865   -4.9609   -2.4637 C.ar      1 <0>        -0.1407
     18 C15        -5.6490   -6.3224   -2.2271 C.ar      1 <0>        -0.0770
     19 C16        -5.7329   -6.8027   -0.9343 C.ar      1 <0>        -0.1994
     20 C17        -5.8544   -5.9174    0.1266 C.ar      1 <0>         0.1361
     21 C18        -5.8856   -4.5511   -0.1130 C.ar      1 <0>        -0.1429
     22 O2         -5.9370   -6.3873    1.3991 O.3       1 <0>        -0.3155
     23 C19        -5.8925   -7.8052    1.5713 C.3       1 <0>         0.0249
     24 N2         -6.8351   -2.3074   -2.7192 N.3       1 <0>        -0.5260
     25 C20        -8.0333   -3.1429   -2.5568 C.3       1 <0>         0.0231
     26 C21        -9.0086   -2.8586   -3.7012 C.3       1 <0>         0.0323
     27 H2         -8.5345   -3.1030   -4.6518 H         1 <0>         0.1445
     28 N3         -9.3769   -1.4368   -3.6891 N.4       1 <0>        -0.3828
     29 C22        -8.1734   -0.6159   -3.8768 C.3       1 <0>         0.0016
     30 C23        -7.1911   -0.8815   -2.7339 C.3       1 <0>         0.0643
     31 H3         -7.6558   -0.6128   -1.7852 H         1 <0>         0.0669
     32 C24        -5.9286   -0.0422   -2.9404 C.3       1 <0>        -0.1606
     33 C25       -10.3271   -1.1681   -4.7766 C.3       1 <0>         0.0243
     34 C26       -10.7993    0.2604   -4.6897 C.2       1 <0>        -0.2350
     35 C27       -10.6767    1.0549   -5.7241 C.2       1 <0>        -0.1053
     36 C28       -10.2657   -3.7125   -3.5238 C.3       1 <0>        -0.1832
     37 H4          2.6235   -2.4927   -3.1884 H         1 <0>         0.0561
     38 H5          1.9172   -1.8718   -4.6997 H         1 <0>         0.0586
     39 H6          3.4666   -1.2242   -4.1095 H         1 <0>         0.0703
     40 H7          2.3147   -0.2710   -2.1314 H         1 <0>         0.0793
     41 H8          1.6084    0.3499   -3.6427 H         1 <0>         0.0876
     42 H9         -0.6286   -2.4105   -1.4232 H         1 <0>         0.0867
     43 H10         1.1438   -2.5120   -1.2949 H         1 <0>         0.0813
     44 H11         1.2763   -0.5666    0.0519 H         1 <0>         0.0652
     45 H12        -0.3505   -0.0205   -0.4210 H         1 <0>         0.0640
     46 H13        -0.1618   -1.4110    0.6741 H         1 <0>         0.0725
     47 H14        -1.7367   -0.5837   -0.9177 H         1 <0>         0.1429
     48 H15        -3.9594   -1.3508   -0.1959 H         1 <0>         0.1276
     49 H16        -4.7538   -2.8085   -4.1262 H         1 <0>         0.1342
     50 H17        -2.5399   -2.0384   -4.8714 H         1 <0>         0.1309
     51 H18        -5.6215   -4.5875   -3.4750 H         1 <0>         0.1305
     52 H19        -5.5545   -7.0113   -3.0535 H         1 <0>         0.1294
     53 H20        -5.7043   -7.8665   -0.7501 H         1 <0>         0.1321
     54 H21        -5.9754   -3.8596    0.7117 H         1 <0>         0.1302
     55 H22        -4.9515   -8.1896    1.1776 H         1 <0>         0.0594
     56 H23        -5.9676   -8.0450    2.6319 H         1 <0>         0.1059
     57 H24        -6.7243   -8.2626    1.0356 H         1 <0>         0.0581
     58 H25        -7.7483   -4.1948   -2.5747 H         1 <0>         0.1343
     59 H26        -8.5118   -2.9115   -1.6052 H         1 <0>         0.0619
     60 H27        -7.7036   -0.8717   -4.8265 H         1 <0>         0.1367
     61 H28        -8.4498    0.4385   -3.8807 H         1 <0>         0.1360
     62 H29        -5.3719   -0.4275   -3.7946 H         1 <0>         0.0844
     63 H30        -6.2082    0.9948   -3.1267 H         1 <0>         0.0700
     64 H31        -5.3065   -0.0959   -2.0470 H         1 <0>         0.0838
     65 H32        -9.8365   -1.3308   -5.7363 H         1 <0>         0.1301
     66 H33       -11.1813   -1.8392   -4.6869 H         1 <0>         0.1384
     67 H34       -11.2387    0.6292   -3.7746 H         1 <0>         0.1330
     68 H35       -10.2373    0.6861   -6.6391 H         1 <0>         0.1115
     69 H36       -11.0151    2.0786   -5.6617 H         1 <0>         0.1228
     70 H37       -10.7398   -3.4682   -2.5732 H         1 <0>         0.0809
     71 H38       -10.9604   -3.5101   -4.3390 H         1 <0>         0.0860
     72 H39        -9.9925   -4.7677   -3.5330 H         1 <0>         0.1076
     73 H40        -9.8052   -1.2080   -2.8046 H         1 <0>         0.4183
@<TRIPOS>BOND
     1    1    2 1
     2    1   37 1
     3    1   38 1
     4    1   39 1
     5    2    3 1
     6    2   40 1
     7    2   41 1
     8    3    4 1
     9    3    6 am
    10    4    5 1
    11    4   42 1
    12    4   43 1
    13    5   44 1
    14    5   45 1
    15    5   46 1
    16    6    7 2
    17    6    8 1
    18    8   13 ar
    19    8    9 ar
    20    9   10 ar
    21    9   47 1
    22   10   11 ar
    23   10   48 1
    24   11   12 ar
    25   11   14 1
    26   12   13 ar
    27   12   49 1
    28   13   50 1
    29   14   15 1
    30   14   16 1
    31   14   24 1
    32   16   21 ar
    33   16   17 ar
    34   17   18 ar
    35   17   51 1
    36   18   19 ar
    37   18   52 1
    38   19   20 ar
    39   19   53 1
    40   20   21 ar
    41   20   22 1
    42   21   54 1
    43   22   23 1
    44   23   55 1
    45   23   56 1
    46   23   57 1
    47   24   30 1
    48   24   25 1
    49   25   26 1
    50   25   58 1
    51   25   59 1
    52   26   27 1
    53   26   28 1
    54   26   36 1
    55   28   29 1
    56   28   33 1
    57   28   73 1
    58   29   30 1
    59   29   60 1
    60   29   61 1
    61   30   31 1
    62   30   32 1
    63   32   62 1
    64   32   63 1
    65   32   64 1
    66   33   34 1
    67   33   65 1
    68   33   66 1
    69   34   35 2
    70   34   67 1
    71   35   68 1
    72   35   69 1
    73   36   70 1
    74   36   71 1
    75   36   72 1
@<TRIPOS>MOLECULE
ZINC22066510
   73    75     0     0     0
SMALL
USER_CHARGES

@<TRIPOS>ATOM
      1 C1          2.0818   -4.4766    3.2676 C.3       1 <0>        -0.1689
      2 C2          1.7388   -3.0977    2.7003 C.3       1 <0>         0.1074
      3 N1          2.1743   -3.0222    1.3035 N.am      1 <0>        -0.6022
      4 C3          1.3002   -3.5147    0.2360 C.3       1 <0>         0.0926
      5 C4          0.2008   -2.4865   -0.0380 C.3       1 <0>        -0.1804
      6 C5          3.3792   -2.4997    1.0006 C.2       1 <0>         0.5507
      7 O1          4.1293   -2.1464    1.8895 O.2       1 <0>        -0.5215
      8 C6          3.7885   -2.3561   -0.4128 C.ar      1 <0>        -0.0969
      9 C7          2.8877   -1.8598   -1.3564 C.ar      1 <0>        -0.0885
     10 C8          3.2762   -1.7279   -2.6736 C.ar      1 <0>        -0.0986
     11 C9          4.5553   -2.0868   -3.0600 C.ar      1 <0>        -0.0985
     12 C10         5.4529   -2.5799   -2.1298 C.ar      1 <0>        -0.1217
     13 C11         5.0792   -2.7110   -0.8082 C.ar      1 <0>        -0.0542
     14 C12         4.9725   -1.9405   -4.5007 C.3       1 <0>         0.1312
     15 H1          4.2422   -1.3285   -5.0301 H         1 <0>         0.1530
     16 C13         5.0470   -3.3018   -5.1429 C.ar      1 <0>        -0.0894
     17 C14         6.1536   -4.1045   -4.9342 C.ar      1 <0>        -0.1656
     18 C15         6.2249   -5.3537   -5.5218 C.ar      1 <0>        -0.0582
     19 C16         5.1905   -5.8032   -6.3198 C.ar      1 <0>        -0.1869
     20 C17         4.0794   -5.0000   -6.5308 C.ar      1 <0>         0.1493
     21 C18         4.0075   -3.7489   -5.9349 C.ar      1 <0>        -0.1219
     22 O2          3.0606   -5.4398   -7.3152 O.3       1 <0>        -0.3093
     23 C19         3.2001   -6.7401   -7.8913 C.3       1 <0>         0.0219
     24 N2          6.2908   -1.2956   -4.5657 N.4       1 <0>        -0.3815
     25 C20         6.7880   -1.3363   -5.9472 C.3       1 <0>        -0.0063
     26 C21         8.1695   -0.6815   -6.0119 C.3       1 <0>         0.0612
     27 H2          8.8619   -1.2291   -5.3726 H         1 <0>         0.0642
     28 N3          8.0710    0.7101   -5.5492 N.3       1 <0>        -0.5312
     29 C22         7.5510    0.7680   -4.1758 C.3       1 <0>         0.0332
     30 C23         6.1745    0.1011   -4.1263 C.3       1 <0>         0.0365
     31 H3          5.4890    0.6335   -4.7856 H         1 <0>         0.1458
     32 C24         5.6392    0.1421   -2.6935 C.3       1 <0>        -0.1984
     33 C25         9.3686    1.3914   -5.6500 C.3       1 <0>         0.0780
     34 C26         9.1817    2.8666   -5.4050 C.2       1 <0>        -0.1649
     35 C27         9.8791    3.4695   -4.4743 C.2       1 <0>        -0.1715
     36 C28         8.6788   -0.7055   -7.4544 C.3       1 <0>        -0.1519
     37 H4          3.1591   -4.6339    3.2139 H         1 <0>         0.0588
     38 H5          1.7578   -4.5328    4.3068 H         1 <0>         0.0724
     39 H6          1.5730   -5.2455    2.6863 H         1 <0>         0.0568
     40 H7          0.6616   -2.9404    2.7540 H         1 <0>         0.0820
     41 H8          2.2477   -2.3288    3.2816 H         1 <0>         0.0896
     42 H9          1.8857   -3.6709   -0.6700 H         1 <0>         0.0853
     43 H10         0.8475   -4.4576    0.5431 H         1 <0>         0.0843
     44 H11        -0.3007   -2.7316   -0.9742 H         1 <0>         0.0751
     45 H12        -0.5230   -2.5026    0.7769 H         1 <0>         0.0685
     46 H13         0.6428   -1.4929   -0.1118 H         1 <0>         0.0633
     47 H14         1.8888   -1.5799   -1.0561 H         1 <0>         0.1541
     48 H15         2.5802   -1.3439   -3.4047 H         1 <0>         0.1427
     49 H16         6.4498   -2.8586   -2.4380 H         1 <0>         0.1243
     50 H17         5.7823   -3.0914   -0.0821 H         1 <0>         0.1428
     51 H18         6.9635   -3.7546   -4.3113 H         1 <0>         0.1167
     52 H19         7.0902   -5.9788   -5.3573 H         1 <0>         0.1385
     53 H20         5.2470   -6.7790   -6.7793 H         1 <0>         0.1409
     54 H21         3.1414   -3.1236   -6.0937 H         1 <0>         0.1422
     55 H22         4.0878   -6.7641   -8.5234 H         1 <0>         0.0622
     56 H23         3.2992   -7.4804   -7.0975 H         1 <0>         0.0621
     57 H24         2.3198   -6.9675   -8.4925 H         1 <0>         0.1108
     58 H25         6.8614   -2.3728   -6.2765 H         1 <0>         0.1408
     59 H26         6.0993   -0.7966   -6.5972 H         1 <0>         0.1402
     60 H27         8.2331    0.2441   -3.5062 H         1 <0>         0.0587
     61 H28         7.4623    1.8086   -3.8640 H         1 <0>         0.1262
     62 H29         6.1642   -0.5969   -2.0883 H         1 <0>         0.0840
     63 H30         5.7995    1.1354   -2.2741 H         1 <0>         0.1007
     64 H31         4.5727   -0.0829   -2.6975 H         1 <0>         0.0994
     65 H32        10.0521    0.9832   -4.9055 H         1 <0>         0.0490
     66 H33         9.7830    1.2382   -6.6464 H         1 <0>         0.1013
     67 H34         8.4728    3.4267   -5.9967 H         1 <0>         0.1193
     68 H35         9.7451    4.5267   -4.2988 H         1 <0>         0.1067
     69 H36        10.5880    2.9094   -3.8826 H         1 <0>         0.0969
     70 H37         7.9867   -0.1570   -8.0933 H         1 <0>         0.0789
     71 H38         9.6629   -0.2390   -7.5001 H         1 <0>         0.0796
     72 H39         8.7498   -1.7377   -7.7975 H         1 <0>         0.0752
     73 H40         6.9346   -1.7852   -3.9624 H         1 <0>         0.4129
@<TRIPOS>BOND
     1    1    2 1
     2    1   37 1
     3    1   38 1
     4    1   39 1
     5    2    3 1
     6    2   40 1
     7    2   41 1
     8    3    4 1
     9    3    6 am
    10    4    5 1
    11    4   42 1
    12    4   43 1
    13    5   44 1
    14    5   45 1
    15    5   46 1
    16    6    7 2
    17    6    8 1
    18    8   13 ar
    19    8    9 ar
    20    9   10 ar
    21    9   47 1
    22   10   11 ar
    23   10   48 1
    24   11   12 ar
    25   11   14 1
    26   12   13 ar
    27   12   49 1
    28   13   50 1
    29   14   15 1
    30   14   16 1
    31   14   24 1
    32   16   21 ar
    33   16   17 ar
    34   17   18 ar
    35   17   51 1
    36   18   19 ar
    37   18   52 1
    38   19   20 ar
    39   19   53 1
    40   20   21 ar
    41   20   22 1
    42   21   54 1
    43   22   23 1
    44   23   55 1
    45   23   56 1
    46   23   57 1
    47   24   30 1
    48   24   25 1
    49   24   73 1
    50   25   26 1
    51   25   58 1
    52   25   59 1
    53   26   27 1
    54   26   28 1
    55   26   36 1
    56   28   29 1
    57   28   33 1
    58   29   30 1
    59   29   60 1
    60   29   61 1
    61   30   31 1
    62   30   32 1
    63   32   62 1
    64   32   63 1
    65   32   64 1
    66   33   34 1
    67   33   65 1
    68   33   66 1
    69   34   35 2
    70   34   67 1
    71   35   68 1
    72   35   69 1
    73   36   70 1
    74   36   71 1
    75   36   72 1
@<TRIPOS>MOLECULE
ZINC22066510
   72    74     0     0     0
SMALL
USER_CHARGES

@<TRIPOS>ATOM
      1 C1          2.1295   -1.3205    3.8951 C.3       1 <0>        -0.1676
      2 C2          1.6862   -0.2597    2.8856 C.3       1 <0>         0.1092
      3 N1          1.9679   -0.7304    1.5272 N.am      1 <0>        -0.6081
      4 C3          0.9979   -1.5784    0.8299 C.3       1 <0>         0.0967
      5 C4         -0.1181   -0.7066    0.2506 C.3       1 <0>        -0.1783
      6 C5          3.1194   -0.3832    0.9190 C.2       1 <0>         0.5598
      7 O1          3.9442    0.2827    1.5138 O.2       1 <0>        -0.5325
      8 C6          3.3794   -0.8123   -0.4717 C.ar      1 <0>        -0.1298
      9 C7          2.3801   -0.6969   -1.4393 C.ar      1 <0>        -0.1006
     10 C8          2.6294   -1.0987   -2.7353 C.ar      1 <0>        -0.1242
     11 C9          3.8665   -1.6156   -3.0767 C.ar      1 <0>        -0.0371
     12 C10         4.8613   -1.7331   -2.1223 C.ar      1 <0>        -0.0925
     13 C11         4.6271   -1.3292   -0.8241 C.ar      1 <0>        -0.0713
     14 C12         4.1316   -2.0530   -4.4943 C.3       1 <0>         0.1647
     15 H1          3.4074   -1.5841   -5.1606 H         1 <0>         0.0639
     16 C13         4.0051   -3.5516   -4.5896 C.ar      1 <0>        -0.0412
     17 C14         4.9574   -4.3641   -4.0020 C.ar      1 <0>        -0.1310
     18 C15         4.8442   -5.7392   -4.0876 C.ar      1 <0>        -0.0815
     19 C16         3.7789   -6.3052   -4.7612 C.ar      1 <0>        -0.2053
     20 C17         2.8223   -5.4925   -5.3515 C.ar      1 <0>         0.1287
     21 C18         2.9349   -4.1126   -5.2589 C.ar      1 <0>        -0.1432
     22 O2          1.7735   -6.0468   -6.0145 O.3       1 <0>        -0.3178
     23 C19         1.7188   -7.4739   -6.0646 C.3       1 <0>         0.0273
     24 N2          5.4891   -1.6503   -4.8853 N.3       1 <0>        -0.5241
     25 C20         5.9518   -2.4191   -6.0491 C.3       1 <0>         0.0580
     26 C21         7.3951   -2.0276   -6.3748 C.3       1 <0>         0.0852
     27 H2          8.0376   -2.2704   -5.5284 H         1 <0>         0.0496
     28 N3          7.4600   -0.5838   -6.6413 N.3       1 <0>        -0.5331
     29 C22         6.9973    0.1850   -5.4774 C.3       1 <0>         0.0660
     30 C23         5.5540   -0.2066   -5.1518 C.3       1 <0>         0.0883
     31 H3          4.9116    0.0362   -5.9982 H         1 <0>         0.0511
     32 C24         5.0830    0.5623   -3.9158 C.3       1 <0>        -0.1581
     33 C25         8.8176   -0.1812   -7.0323 C.3       1 <0>         0.0755
     34 C26         8.7957    1.2405   -7.5316 C.2       1 <0>        -0.1451
     35 C27         9.5853    2.1362   -6.9927 C.2       1 <0>        -0.1908
     36 C28         7.8663   -2.7969   -7.6105 C.3       1 <0>        -0.1491
     37 H4          3.1992   -1.5000    3.7873 H         1 <0>         0.0589
     38 H5          1.9199   -0.9703    4.9058 H         1 <0>         0.0674
     39 H6          1.5853   -2.2468    3.7114 H         1 <0>         0.0553
     40 H7          0.6165   -0.0801    2.9934 H         1 <0>         0.0766
     41 H8          2.2304    0.6667    3.0694 H         1 <0>         0.0863
     42 H9          1.4975   -2.1133    0.0222 H         1 <0>         0.0897
     43 H10         0.5717   -2.2955    1.5315 H         1 <0>         0.0782
     44 H11        -0.6418   -1.2583   -0.5301 H         1 <0>         0.0719
     45 H12        -0.8198   -0.4417    1.0415 H         1 <0>         0.0618
     46 H13         0.3124    0.2011   -0.1723 H         1 <0>         0.0654
     47 H14         1.4137   -0.2943   -1.1739 H         1 <0>         0.1393
     48 H15         1.8570   -1.0100   -3.4850 H         1 <0>         0.1257
     49 H16         5.8248   -2.1377   -2.3952 H         1 <0>         0.1358
     50 H17         5.4060   -1.4169   -0.0812 H         1 <0>         0.1275
     51 H18         5.7913   -3.9236   -3.4757 H         1 <0>         0.1302
     52 H19         5.5893   -6.3716   -3.6279 H         1 <0>         0.1256
     53 H20         3.6913   -7.3796   -4.8285 H         1 <0>         0.1272
     54 H21         2.1889   -3.4777   -5.7135 H         1 <0>         0.1283
     55 H22         1.6675   -7.8713   -5.0509 H         1 <0>         0.0558
     56 H23         0.8348   -7.7843   -6.6217 H         1 <0>         0.1010
     57 H24         2.6123   -7.8546   -6.5593 H         1 <0>         0.0559
     58 H25         5.9063   -3.4844   -5.8227 H         1 <0>         0.0911
     59 H26         5.3139   -2.2015   -6.9057 H         1 <0>         0.0435
     60 H27         7.6353   -0.0327   -4.6209 H         1 <0>         0.0424
     61 H28         7.0429    1.2502   -5.7038 H         1 <0>         0.0816
     62 H29         5.6128    0.1962   -3.0364 H         1 <0>         0.0715
     63 H30         5.2892    1.6244   -4.0482 H         1 <0>         0.0575
     64 H31         4.0114    0.4141   -3.7822 H         1 <0>         0.0661
     65 H32         9.4805   -0.2533   -6.1700 H         1 <0>         0.0380
     66 H33         9.1779   -0.8386   -7.8235 H         1 <0>         0.0892
     67 H34         8.1290    1.5210   -8.3336 H         1 <0>         0.1132
     68 H35        10.2520    1.8558   -6.1907 H         1 <0>         0.0940
     69 H36         9.5696    3.1551   -7.3506 H         1 <0>         0.0994
     70 H37         7.2242   -2.5533   -8.4569 H         1 <0>         0.0644
     71 H38         8.8942   -2.5178   -7.8421 H         1 <0>         0.0605
     72 H39         7.8163   -3.8676   -7.4128 H         1 <0>         0.0621
@<TRIPOS>BOND
     1    1    2 1
     2    1   37 1
     3    1   38 1
     4    1   39 1
     5    2    3 1
     6    2   40 1
     7    2   41 1
     8    3    4 1
     9    3    6 am
    10    4    5 1
    11    4   42 1
    12    4   43 1
    13    5   44 1
    14    5   45 1
    15    5   46 1
    16    6    7 2
    17    6    8 1
    18    8   13 ar
    19    8    9 ar
    20    9   10 ar
    21    9   47 1
    22   10   11 ar
    23   10   48 1
    24   11   12 ar
    25   11   14 1
    26   12   13 ar
    27   12   49 1
    28   13   50 1
    29   14   15 1
    30   14   16 1
    31   14   24 1
    32   16   21 ar
    33   16   17 ar
    34   17   18 ar
    35   17   51 1
    36   18   19 ar
    37   18   52 1
    38   19   20 ar
    39   19   53 1
    40   20   21 ar
    41   20   22 1
    42   21   54 1
    43   22   23 1
    44   23   55 1
    45   23   56 1
    46   23   57 1
    47   24   30 1
    48   24   25 1
    49   25   26 1
    50   25   58 1
    51   25   59 1
    52   26   27 1
    53   26   28 1
    54   26   36 1
    55   28   29 1
    56   28   33 1
    57   29   30 1
    58   29   60 1
    59   29   61 1
    60   30   31 1
    61   30   32 1
    62   32   62 1
    63   32   63 1
    64   32   64 1
    65   33   34 1
    66   33   65 1
    67   33   66 1
    68   34   35 2
    69   34   67 1
    70   35   68 1
    71   35   69 1
    72   36   70 1
    73   36   71 1
    74   36   72 1
@<TRIPOS>MOLECULE
ZINC00001773
   49    54     0     0     0
SMALL
USER_CHARGES

@<TRIPOS>ATOM
      1 C1         -0.2443    1.2570    0.4660 C.ar      1 <0>        -0.1112
      2 C2          0.9083    2.0200    0.5623 C.ar      1 <0>        -0.0962
      3 C3          2.1900    1.4753    0.5348 C.ar      1 <0>         0.1149
      4 C4          2.2879    0.0876    0.3806 C.ar      1 <0>         0.0997
      5 C5          1.1121   -0.6326    0.2304 C.ar      1 <0>        -0.1886
      6 C6         -0.1602   -0.1156    0.3155 C.ar      1 <0>        -0.0596
      7 C7         -1.3282   -1.0478    0.3098 C.3       1 <0>        -0.0925
      8 C8         -0.9396   -2.5064    0.1383 C.3       1 <0>         0.0145
      9 H1         -1.6997   -3.1130    0.6306 H         1 <0>         0.1456
     10 C9          0.4167   -2.8747    0.7456 C.3       1 <0>         0.1448
     11 C10         1.4829   -2.0836    0.0450 C.3       1 <0>        -0.0304
     12 C11         1.4804   -2.4286   -1.4426 C.3       1 <0>        -0.1241
     13 C12         0.0910   -2.1126   -2.0094 C.3       1 <0>        -0.0096
     14 N1         -0.9309   -2.8716   -1.2830 N.4       1 <0>        -0.3739
     15 C13        -2.2494   -2.5851   -1.8638 C.3       1 <0>         0.0182
     16 C14        -2.3011   -3.1153   -3.2981 C.3       1 <0>        -0.2108
     17 C15        -2.4792   -2.0935   -4.4229 C.3       1 <0>        -0.1679
     18 C16        -3.6360   -3.0186   -4.0393 C.3       1 <0>        -0.1476
     19 C17         2.8868   -2.1036    0.6341 C.3       1 <0>         0.0644
     20 H2          3.5148   -2.8457    0.1412 H         1 <0>         0.1600
     21 O1          3.3506   -0.7456    0.3657 O.3       1 <0>        -0.2592
     22 C18         2.8706   -2.3034    2.1213 C.2       1 <0>         0.3361
     23 O2          3.8019   -1.8874    2.7678 O.2       1 <0>        -0.4120
     24 C19         1.7528   -2.9946    2.8421 C.3       1 <0>        -0.1575
     25 C20         0.4362   -2.5258    2.2328 C.3       1 <0>        -0.1426
     26 O3          0.6517   -4.2744    0.5791 O.3       1 <0>        -0.5414
     27 O4          3.2968    2.2569    0.6522 O.3       1 <0>        -0.4785
     28 H3         -1.2116    1.7350    0.5131 H         1 <0>         0.1418
     29 H4          0.8079    3.0906    0.6634 H         1 <0>         0.1458
     30 H5         -1.8664   -0.9385    1.2514 H         1 <0>         0.1279
     31 H6         -1.9954   -0.7663   -0.5049 H         1 <0>         0.1079
     32 H7          2.2322   -1.8319   -1.9592 H         1 <0>         0.1192
     33 H8          1.6983   -3.4885   -1.5741 H         1 <0>         0.1097
     34 H9         -0.1082   -1.0460   -1.9055 H         1 <0>         0.1319
     35 H10         0.0606   -2.3836   -3.0648 H         1 <0>         0.1393
     36 H11        -3.0221   -3.0716   -1.2686 H         1 <0>         0.1355
     37 H12        -2.4183   -1.5083   -1.8682 H         1 <0>         0.1323
     38 H13        -1.6744   -3.9837   -3.5011 H         1 <0>         0.1257
     39 H14        -2.5597   -1.0437   -4.1411 H         1 <0>         0.1059
     40 H15        -1.9696   -2.2896   -5.3663 H         1 <0>         0.1108
     41 H16        -3.8874   -3.8232   -4.7304 H         1 <0>         0.1129
     42 H17        -4.4775   -2.5773   -3.5052 H         1 <0>         0.1078
     43 H18         1.8718   -4.0736    2.7439 H         1 <0>         0.1208
     44 H19         1.7811   -2.7239    3.8976 H         1 <0>         0.1111
     45 H20         0.2965   -1.4521    2.3583 H         1 <0>         0.0987
     46 H21        -0.3620   -3.0631    2.7449 H         1 <0>         0.0955
     47 H22        -0.0114   -4.8375    1.0014 H         1 <0>         0.3955
     48 H23         3.5936    2.3840    1.5637 H         1 <0>         0.4013
     49 H24        -0.7373   -3.8580   -1.3711 H         1 <0>         0.4280
@<TRIPOS>BOND
     1    1    6 ar
     2    1    2 ar
     3    1   28 1
     4    2    3 ar
     5    2   29 1
     6    3    4 ar
     7    3   27 1
     8    4   21 1
     9    4    5 ar
    10    5   11 1
    11    5    6 ar
    12    6    7 1
    13    7    8 1
    14    7   30 1
    15    7   31 1
    16    8    9 1
    17    8   14 1
    18    8   10 1
    19   10   25 1
    20   10   11 1
    21   10   26 1
    22   11   12 1
    23   11   19 1
    24   12   13 1
    25   12   32 1
    26   12   33 1
    27   13   14 1
    28   13   34 1
    29   13   35 1
    30   14   15 1
    31   14   49 1
    32   15   16 1
    33   15   36 1
    34   15   37 1
    35   16   18 1
    36   16   17 1
    37   16   38 1
    38   17   18 1
    39   17   39 1
    40   17   40 1
    41   18   41 1
    42   18   42 1
    43   19   20 1
    44   19   21 1
    45   19   22 1
    46   22   23 2
    47   22   24 1
    48   24   25 1
    49   24   43 1
    50   24   44 1
    51   25   45 1
    52   25   46 1
    53   26   47 1
    54   27   48 1
@<TRIPOS>MOLECULE
ZINC03201907
   46    49     0     0     0
SMALL
USER_CHARGES

@<TRIPOS>ATOM
      1 C1         -0.0178    1.4648    0.0101 C.3       1 <0>        -0.0541
      2 N1          0.0021   -0.0041    0.0020 N.4       1 <0>        -0.3704
      3 C2         -1.3750   -0.4988    0.0701 C.3       1 <0>        -0.0155
      4 C3         -1.3740   -2.0327    0.0720 C.3       1 <0>        -0.1325
      5 C4         -0.6000   -2.4924    1.3162 C.3       1 <0>        -0.0191
      6 C5         -0.6317   -4.0111    1.4284 C.3       1 <0>        -0.1087
      7 C6          0.1733   -4.4520    2.6537 C.3       1 <0>        -0.1256
      8 C7          1.6184   -3.9692    2.5143 C.3       1 <0>        -0.1195
      9 C8          1.6413   -2.4424    2.4159 C.3       1 <0>        -0.1147
     10 C9          0.8433   -1.9991    1.1883 C.3       1 <0>        -0.0848
     11 H1          1.2952   -2.4125    0.2866 H         1 <0>         0.1023
     12 C10         0.8089   -0.4721    1.1198 C.3       1 <0>         0.0267
     13 H2          1.8300   -0.1263    0.9584 H         1 <0>         0.1343
     14 C11         0.3561    0.0989    2.4510 C.3       1 <0>        -0.0880
     15 C12        -0.8070   -0.6582    3.0329 C.ar      1 <0>        -0.1438
     16 C13        -1.2457   -1.8607    2.5233 C.ar      1 <0>        -0.0305
     17 C14        -2.3081   -2.5221    3.1185 C.ar      1 <0>        -0.1475
     18 C15        -2.9456   -1.9742    4.2198 C.ar      1 <0>         0.1453
     19 C16        -2.5143   -0.7560    4.7243 C.ar      1 <0>        -0.2001
     20 C17        -1.4521   -0.1058    4.1333 C.ar      1 <0>        -0.0688
     21 O1         -3.9867   -2.6255    4.8018 O.3       1 <0>        -0.3119
     22 C18        -4.5935   -1.9982    5.9333 C.3       1 <0>         0.0236
     23 H3          1.0041    1.8418    0.0487 H         1 <0>         0.1253
     24 H4         -0.5046    1.8265   -0.8956 H         1 <0>         0.1263
     25 H5         -0.5678    1.8159    0.8832 H         1 <0>         0.1235
     26 H6         -1.8462   -0.1353    0.9832 H         1 <0>         0.1323
     27 H7         -1.9332   -0.1377   -0.7937 H         1 <0>         0.1313
     28 H8         -2.3981   -2.4035    0.1152 H         1 <0>         0.1146
     29 H9         -0.8828   -2.4037   -0.8275 H         1 <0>         0.0950
     30 H10        -1.6637   -4.3460    1.5323 H         1 <0>         0.0783
     31 H11        -0.1965   -4.4505    0.5308 H         1 <0>         0.0756
     32 H12        -0.2684   -4.0221    3.5527 H         1 <0>         0.0693
     33 H13         0.1589   -5.5395    2.7259 H         1 <0>         0.0726
     34 H14         2.1924   -4.2855    3.3853 H         1 <0>         0.0732
     35 H15         2.0591   -4.3977    1.6142 H         1 <0>         0.0669
     36 H16         1.1954   -2.0136    3.3134 H         1 <0>         0.0798
     37 H17         2.6718   -2.0996    2.3226 H         1 <0>         0.0738
     38 H18         1.1889    0.0610    3.1532 H         1 <0>         0.1169
     39 H19         0.0642    1.1393    2.3081 H         1 <0>         0.0939
     40 H20        -2.6412   -3.4697    2.7215 H         1 <0>         0.1386
     41 H21        -3.0097   -0.3180    5.5782 H         1 <0>         0.1351
     42 H22        -1.1179    0.8418    4.5290 H         1 <0>         0.1291
     43 H23        -3.8503   -1.8717    6.7206 H         1 <0>         0.0602
     44 H24        -4.9840   -1.0231    5.6422 H         1 <0>         0.0594
     45 H25        -5.4090   -2.6214    6.3003 H         1 <0>         0.1083
     46 H26         0.4207   -0.3210   -0.8596 H         1 <0>         0.4244
@<TRIPOS>BOND
     1    1    2 1
     2    1   23 1
     3    1   24 1
     4    1   25 1
     5    2   12 1
     6    2    3 1
     7    2   46 1
     8    3    4 1
     9    3   26 1
    10    3   27 1
    11    4    5 1
    12    4   28 1
    13    4   29 1
    14    5   10 1
    15    5   16 1
    16    5    6 1
    17    6    7 1
    18    6   30 1
    19    6   31 1
    20    7    8 1
    21    7   32 1
    22    7   33 1
    23    8    9 1
    24    8   34 1
    25    8   35 1
    26    9   10 1
    27    9   36 1
    28    9   37 1
    29   10   11 1
    30   10   12 1
    31   12   13 1
    32   12   14 1
    33   14   15 1
    34   14   38 1
    35   14   39 1
    36   15   20 ar
    37   15   16 ar
    38   16   17 ar
    39   17   18 ar
    40   17   40 1
    41   18   19 ar
    42   18   21 1
    43   19   20 ar
    44   19   41 1
    45   20   42 1
    46   21   22 1
    47   22   43 1
    48   22   44 1
    49   22   45 1
@<TRIPOS>MOLECULE
ZINC28255070
   44    48     0     0     0
SMALL
USER_CHARGES
methoxy-methyl-BLAHol
@<TRIPOS>ATOM
      1 C1         -0.0178    1.4648    0.0101 C.3       1 <0>        -0.0497
      2 N1          0.0021   -0.0041    0.0020 N.4       1 <0>        -0.3969
      3 C2         -1.3443   -0.5433   -0.1209 C.3       1 <0>        -0.0200
      4 C3         -1.3836   -2.0859   -0.1808 C.3       1 <0>        -0.1008
      5 C4         -0.6042   -2.5352    1.0401 C.3       1 <0>        -0.0006
      6 C5         -1.2944   -1.9862    2.2611 C.ar      1 <0>        -0.1480
      7 C6         -1.0255   -0.7981    2.8804 C.ar      1 <0>        -0.0898
      8 C7         -1.9276   -0.4508    3.8685 C.ar      1 <0>        -0.0789
      9 C8         -2.9606   -1.3179    4.1979 C.ar      1 <0>        -0.1715
     10 C9         -3.1541   -2.5697    3.6096 C.ar      1 <0>         0.1420
     11 C10        -2.2600   -2.9366    2.6103 C.ar      1 <0>         0.0759
     12 O1         -2.0596   -4.0859    1.8684 O.3       1 <0>        -0.2683
     13 C11        -0.7001   -3.9700    1.5337 C.3       1 <0>         0.0465
     14 H1         -0.4376   -4.5207    2.4490 H         1 <0>         0.1019
     15 C12         0.3436   -4.8275    0.9257 C.3       1 <0>         0.1541
     16 H2          0.1682   -5.9052    1.0591 H         1 <0>         0.0890
     17 C13         1.6325   -4.2522    1.5452 C.2       1 <0>        -0.1732
     18 C14         1.7973   -2.9319    1.5593 C.2       1 <0>        -0.1286
     19 C15         0.8162   -2.0425    0.8913 C.3       1 <0>        -0.0712
     20 H3          1.2302   -2.1616   -0.1208 H         1 <0>         0.1118
     21 C16         0.8214   -0.5355    1.1357 C.3       1 <0>         0.0589
     22 H4          1.8641   -0.1900    1.1948 H         1 <0>         0.1633
     23 C17         0.1751   -0.0472    2.4304 C.3       1 <0>        -0.0931
     24 O2          0.3544   -4.6878   -0.4964 O.3       1 <0>        -0.6006
     25 O3         -4.1676   -3.3901    3.9958 O.3       1 <0>        -0.3017
     26 C18        -5.0285   -2.9140    5.0323 C.3       1 <0>         0.0182
     27 H5         -0.6256    1.8279   -0.8317 H         1 <0>         0.1267
     28 H6          1.0094    1.8459   -0.0880 H         1 <0>         0.1275
     29 H7         -0.4520    1.8204    0.9561 H         1 <0>         0.1233
     30 H8         -1.9449   -0.2308    0.7461 H         1 <0>         0.1263
     31 H9         -1.8080   -0.1648   -1.0438 H         1 <0>         0.1382
     32 H10        -2.4287   -2.4276   -0.1482 H         1 <0>         0.1154
     33 H11        -0.9148   -2.4287   -1.1150 H         1 <0>         0.1079
     34 H12        -1.8288    0.4933    4.3836 H         1 <0>         0.1369
     35 H13        -3.6601   -1.0040    4.9586 H         1 <0>         0.1395
     36 H14         2.4071   -4.9077    1.9698 H         1 <0>         0.1471
     37 H15         2.6668   -2.4916    2.0693 H         1 <0>         0.1347
     38 H16        -0.0935    1.0058    2.2603 H         1 <0>         0.1006
     39 H17         0.9555   -0.1062    3.2033 H         1 <0>         0.1183
     40 H18         1.0744   -5.2601   -1.0998 H         1 <0>         0.4157
     41 H19        -5.7985   -3.6701    5.2455 H         1 <0>         0.1120
     42 H20        -5.5112   -1.9803    4.7080 H         1 <0>         0.0619
     43 H21        -4.4384   -2.7252    5.9412 H         1 <0>         0.0627
     44 H22         0.4940   -0.3623   -0.9143 H         1 <0>         0.4367
@<TRIPOS>BOND
     1    1    2 1
     2    1   27 1
     3    1   28 1
     4    1   29 1
     5    2   21 1
     6    2    3 1
     7    2   44 1
     8    3    4 1
     9    3   30 1
    10    3   31 1
    11    4    5 1
    12    4   32 1
    13    4   33 1
    14    5   13 1
    15    5   19 1
    16    5    6 1
    17    6   11 ar
    18    6    7 ar
    19    7   23 1
    20    7    8 ar
    21    8    9 ar
    22    8   34 1
    23    9   10 ar
    24    9   35 1
    25   10   11 ar
    26   10   25 1
    27   11   12 1
    28   12   13 1
    29   13   14 1
    30   13   15 1
    31   15   16 1
    32   15   17 1
    33   15   24 1
    34   17   18 2
    35   17   36 1
    36   18   19 1
    37   18   37 1
    38   19   20 1
    39   19   21 1
    40   21   22 1
    41   21   23 1
    42   23   38 1
    43   23   39 1
    44   24   40 1
    45   25   26 1
    46   26   41 1
    47   26   42 1
    48   26   43 1
@<TRIPOS>MOLECULE
ZINC28256912
   41    45     0     0     0
SMALL
USER_CHARGES
methylBLAHdiol
@<TRIPOS>ATOM
      1 C1          5.2093    3.6295    0.5036 C.3       1 <0>        -0.0493
      2 N1          4.1065    2.7161    0.1759 N.4       1 <0>        -0.3930
      3 C2          3.2591    3.2745   -0.8706 C.3       1 <0>        -0.0195
      4 C3          2.0767    2.3612   -1.2617 C.3       1 <0>        -0.0985
      5 C4          1.3859    2.0420    0.0499 C.3       1 <0>         0.0018
      6 C5          0.9533    3.3405    0.6766 C.ar      1 <0>        -0.1409
      7 C6          1.6434    4.0781    1.6015 C.ar      1 <0>        -0.1016
      8 C7          1.0413    5.2645    1.9709 C.ar      1 <0>        -0.0745
      9 C8         -0.2158    5.5866    1.4773 C.ar      1 <0>        -0.1318
     10 C9         -0.9558    4.7568    0.6326 C.ar      1 <0>         0.1845
     11 C10        -0.3596    3.5630    0.2431 C.ar      1 <0>         0.0017
     12 O1         -0.7992    2.4658   -0.4741 O.3       1 <0>        -0.2798
     13 C11        -0.0097    1.4435    0.0780 C.3       1 <0>         0.0539
     14 H1         -0.7805    1.2746    0.8444 H         1 <0>         0.0971
     15 C12         0.0234   -0.0372    0.0226 C.3       1 <0>         0.1544
     16 H2         -0.9487   -0.4962   -0.2104 H         1 <0>         0.0883
     17 C13         0.6504   -0.3965    1.3836 C.2       1 <0>        -0.1763
     18 C14         1.7226    0.2802    1.7863 C.2       1 <0>        -0.1260
     19 C15         2.3707    1.2758    0.9063 C.3       1 <0>        -0.0754
     20 H3          2.9697    0.5178    0.3803 H         1 <0>         0.1103
     21 C16         3.4051    2.2626    1.4083 C.3       1 <0>         0.0555
     22 H4          4.0381    1.7474    2.1458 H         1 <0>         0.1567
     23 C17         2.8935    3.4833    2.1586 C.3       1 <0>        -0.0902
     24 O2          0.8474   -0.4891   -1.0539 O.3       1 <0>        -0.6006
     25 O3         -2.2022    5.1005    0.2109 O.3       1 <0>        -0.4977
     26 H5          5.7090    3.9483   -0.4230 H         1 <0>         0.1274
     27 H6          5.9329    3.1131    1.1514 H         1 <0>         0.1276
     28 H7          4.8117    4.5111    1.0278 H         1 <0>         0.1242
     29 H8          2.8364    4.2308   -0.5288 H         1 <0>         0.1269
     30 H9          3.8587    3.4420   -1.7775 H         1 <0>         0.1377
     31 H10         1.4114    2.8988   -1.9533 H         1 <0>         0.1137
     32 H11         2.4604    1.4545   -1.7523 H         1 <0>         0.1063
     33 H12         1.5475    5.9411    2.6435 H         1 <0>         0.1395
     34 H13        -0.6464    6.5349    1.7632 H         1 <0>         0.1416
     35 H14         0.2317   -1.1917    2.0179 H         1 <0>         0.1477
     36 H15         2.1406    0.1029    2.7882 H         1 <0>         0.1340
     37 H16         3.6986    4.2324    2.1340 H         1 <0>         0.1008
     38 H17         2.7180    3.1677    3.1976 H         1 <0>         0.1188
     39 H18         0.9774   -1.5668   -1.2321 H         1 <0>         0.4165
     40 H19        -2.7628    4.4275   -0.4545 H         1 <0>         0.4515
     41 H20         4.5071    1.8014   -0.2854 H         1 <0>         0.4370
@<TRIPOS>BOND
     1    1    2 1
     2    1   26 1
     3    1   27 1
     4    1   28 1
     5    2   21 1
     6    2    3 1
     7    2   41 1
     8    3    4 1
     9    3   29 1
    10    3   30 1
    11    4    5 1
    12    4   31 1
    13    4   32 1
    14    5   13 1
    15    5   19 1
    16    5    6 1
    17    6   11 ar
    18    6    7 ar
    19    7   23 1
    20    7    8 ar
    21    8    9 ar
    22    8   33 1
    23    9   10 ar
    24    9   34 1
    25   10   11 ar
    26   10   25 1
    27   11   12 1
    28   12   13 1
    29   13   14 1
    30   13   15 1
    31   15   16 1
    32   15   17 1
    33   15   24 1
    34   17   18 2
    35   17   35 1
    36   18   19 1
    37   18   36 1
    38   19   20 1
    39   19   21 1
    40   21   22 1
    41   21   23 1
    42   23   37 1
    43   23   38 1
    44   24   39 1
    45   25   40 1
@<TRIPOS>MOLECULE
ZINC00537744
   30    31     0     0     0
SMALL
USER_CHARGES

@<TRIPOS>ATOM
      1 C1          2.1145    1.4179   -0.7411 C.ar      1 <0>        -0.0975
      2 C2          1.1724    2.0858    0.0200 C.ar      1 <0>        -0.0859
      3 C3          0.2526    1.3742    0.7677 C.ar      1 <0>        -0.1614
      4 C4          0.2715   -0.0070    0.7564 C.ar      1 <0>        -0.0719
      5 C5          1.2158   -0.6807   -0.0071 C.ar      1 <0>         0.1464
      6 C6          2.1389    0.0373   -0.7568 C.ar      1 <0>        -0.1117
      7 N1          1.2377   -2.0789   -0.0208 N.am      1 <0>        -0.6695
      8 C7          0.0870   -2.7720    0.0887 C.2       1 <0>         0.5637
      9 O1         -0.9776   -2.1846    0.1025 O.2       1 <0>        -0.4860
     10 C8          0.1190   -4.2432    0.1916 C.ar      1 <0>        -0.1587
     11 C9          1.3406   -4.9217    0.1819 C.ar      1 <0>        -0.0273
     12 C10         1.3641   -6.2967    0.2790 C.ar      1 <0>        -0.1084
     13 C11         0.1805   -7.0103    0.3858 C.ar      1 <0>        -0.0164
     14 C12        -1.0336   -6.3518    0.3961 C.ar      1 <0>        -0.1298
     15 C13        -1.0749   -4.9675    0.3056 C.ar      1 <0>         0.2202
     16 O2         -2.2666   -4.3189    0.3212 O.3       1 <0>        -0.4599
     17 Br1        -2.6411   -7.3370    0.5417 Br        1 <0>        -0.0056
     18 Br2         3.0181   -7.2132    0.2657 Br        1 <0>        -0.0179
     19 C14        -0.7715    2.1061    1.5963 C.3       1 <0>         0.5090
     20 F1         -0.5922    3.4856    1.4475 F         1 <0>        -0.1757
     21 F2         -2.0560    1.7539    1.1681 F         1 <0>        -0.1720
     22 F3         -0.6170    1.7583    2.9426 F         1 <0>        -0.1754
     23 H1          2.8290    1.9767   -1.3272 H         1 <0>         0.1425
     24 H2          1.1555    3.1656    0.0306 H         1 <0>         0.1423
     25 H3         -0.4471   -0.5623    1.3409 H         1 <0>         0.1469
     26 H4          2.8746   -0.4836   -1.3515 H         1 <0>         0.1378
     27 H5          2.0811   -2.5499   -0.1091 H         1 <0>         0.4132
     28 H6          2.2651   -4.3697    0.0982 H         1 <0>         0.1469
     29 H7          0.2078   -8.0874    0.4610 H         1 <0>         0.1554
     30 H8         -2.6578   -4.1938   -0.5543 H         1 <0>         0.4069
@<TRIPOS>BOND
     1    1    6 ar
     2    1    2 ar
     3    1   23 1
     4    2    3 ar
     5    2   24 1
     6    3    4 ar
     7    3   19 1
     8    4    5 ar
     9    4   25 1
    10    5    6 ar
    11    5    7 1
    12    6   26 1
    13    7    8 am
    14    7   27 1
    15    8    9 2
    16    8   10 1
    17   10   15 ar
    18   10   11 ar
    19   11   12 ar
    20   11   28 1
    21   12   13 ar
    22   12   18 1
    23   13   14 ar
    24   13   29 1
    25   14   15 ar
    26   14   17 1
    27   15   16 1
    28   16   30 1
    29   19   20 1
    30   19   21 1
    31   19   22 1
@<TRIPOS>MOLECULE
ZINC00537744
   29    30     0     0     0
SMALL
USER_CHARGES

@<TRIPOS>ATOM
      1 C1          2.1145    1.4179   -0.7411 C.ar      1 <0>        -0.1003
      2 C2          1.1724    2.0858    0.0200 C.ar      1 <0>        -0.1049
      3 C3          0.2526    1.3742    0.7677 C.ar      1 <0>        -0.1623
      4 C4          0.2715   -0.0070    0.7564 C.ar      1 <0>        -0.0768
      5 C5          1.2158   -0.6807   -0.0071 C.ar      1 <0>         0.1723
      6 C6          2.1389    0.0373   -0.7568 C.ar      1 <0>        -0.1273
      7 N1          1.2377   -2.0789   -0.0208 N.am      1 <0>        -0.6883
      8 C7          0.0870   -2.7720    0.0887 C.2       1 <0>         0.5672
      9 O1         -0.9776   -2.1846    0.1025 O.2       1 <0>        -0.4895
     10 C8          0.1190   -4.2432    0.1916 C.ar      1 <0>        -0.2865
     11 C9          1.3406   -4.9217    0.1819 C.ar      1 <0>         0.0127
     12 C10         1.3641   -6.2967    0.2790 C.ar      1 <0>        -0.2256
     13 C11         0.1805   -7.0103    0.3858 C.ar      1 <0>         0.0081
     14 C12        -1.0336   -6.3518    0.3961 C.ar      1 <0>        -0.2110
     15 C13        -1.0749   -4.9675    0.3056 C.ar      1 <0>         0.3329
     16 O2         -2.2666   -4.3189    0.3212 O.3       1 <0>        -0.6188
     17 Br1        -2.6411   -7.3370    0.5417 Br        1 <0>        -0.0746
     18 Br2         3.0181   -7.2132    0.2657 Br        1 <0>        -0.0917
     19 C14        -0.7715    2.1061    1.5963 C.3       1 <0>         0.5091
     20 F1         -0.5922    3.4856    1.4475 F         1 <0>        -0.1810
     21 F2         -2.0560    1.7539    1.1681 F         1 <0>        -0.1713
     22 F3         -0.6170    1.7583    2.9426 F         1 <0>        -0.1773
     23 H1          2.8290    1.9767   -1.3272 H         1 <0>         0.1346
     24 H2          1.1555    3.1656    0.0306 H         1 <0>         0.1347
     25 H3         -0.4471   -0.5623    1.3409 H         1 <0>         0.1482
     26 H4          2.8746   -0.4836   -1.3515 H         1 <0>         0.1330
     27 H5          2.0811   -2.5499   -0.1091 H         1 <0>         0.4064
     28 H6          2.2651   -4.3697    0.0982 H         1 <0>         0.1100
     29 H7          0.2078   -8.0874    0.4610 H         1 <0>         0.1178
@<TRIPOS>BOND
     1    1    6 ar
     2    1    2 ar
     3    1   23 1
     4    2    3 ar
     5    2   24 1
     6    3    4 ar
     7    3   19 1
     8    4    5 ar
     9    4   25 1
    10    5    6 ar
    11    5    7 1
    12    6   26 1
    13    7    8 am
    14    7   27 1
    15    8    9 2
    16    8   10 1
    17   10   15 ar
    18   10   11 ar
    19   11   12 ar
    20   11   28 1
    21   12   13 ar
    22   12   18 1
    23   13   14 ar
    24   13   29 1
    25   14   15 ar
    26   14   17 1
    27   15   16 1
    28   19   20 1
    29   19   21 1
    30   19   22 1
@<TRIPOS>MOLECULE
ZINC04215196
   60    62     0     0     0
SMALL
USER_CHARGES
methyl 1-phenethyl-4-(phenyl-propanoyl-amino)-piperidine-4-carboxylate
@<TRIPOS>ATOM
      1 C1          2.1074   -3.0605    2.2980 C.3       1 <0>        -0.1434
      2 C2          2.1109   -2.2022    1.0314 C.3       1 <0>        -0.1389
      3 C3          3.4150   -1.4529    0.9360 C.2       1 <0>         0.5226
      4 O1          4.2964   -1.6647    1.7419 O.2       1 <0>        -0.5046
      5 N1          3.6019   -0.5476   -0.0447 N.am      1 <0>        -0.5682
      6 C4          2.5467   -0.2174   -0.9023 C.ar      1 <0>         0.1148
      7 C5          2.0167   -1.1769   -1.7549 C.ar      1 <0>        -0.1448
      8 C6          0.9749   -0.8479   -2.5999 C.ar      1 <0>        -0.0980
      9 C7          0.4600    0.4354   -2.5979 C.ar      1 <0>        -0.1055
     10 C8          0.9856    1.3932   -1.7502 C.ar      1 <0>        -0.0939
     11 C9          2.0271    1.0704   -0.9024 C.ar      1 <0>        -0.1190
     12 C10         4.9097    0.0908   -0.2128 C.3       1 <0>         0.1859
     13 C11         4.9230    0.8946   -1.5160 C.3       1 <0>        -0.1516
     14 C12         4.7150   -0.0577   -2.6976 C.3       1 <0>        -0.0235
     15 C13         5.7598   -1.8797   -1.4888 C.3       1 <0>         0.0051
     16 C14         5.9995   -0.9831   -0.2720 C.3       1 <0>        -0.1564
     17 C15         5.6944   -1.9110   -3.9086 C.3       1 <0>        -0.0013
     18 C16         5.9705   -1.0638   -5.1524 C.3       1 <0>        -0.1005
     19 C17         5.8796   -1.9313   -6.3813 C.ar      1 <0>        -0.1078
     20 C18         7.0066   -2.5737   -6.8588 C.ar      1 <0>        -0.1096
     21 C19         6.9222   -3.3733   -7.9833 C.ar      1 <0>        -0.1136
     22 C20         5.7129   -3.5223   -8.6361 C.ar      1 <0>        -0.1041
     23 C21         4.5871   -2.8753   -8.1620 C.ar      1 <0>        -0.1141
     24 C22         4.6704   -2.0800   -7.0344 C.ar      1 <0>        -0.1097
     25 C23         5.1734    1.0124    0.9500 C.2       1 <0>         0.4618
     26 O2          6.2934    1.1259    1.3890 O.2       1 <0>        -0.4813
     27 O3          4.1642    1.7073    1.4980 O.3       1 <0>        -0.3490
     28 C24         4.4916    2.5755    2.6148 C.3       1 <0>         0.0336
     29 H1          1.1641   -3.6024    2.3670 H         1 <0>         0.0705
     30 H2          2.9327   -3.7714    2.2575 H         1 <0>         0.0649
     31 H3          2.2227   -2.4192    3.1718 H         1 <0>         0.0639
     32 H4          1.2856   -1.4913    1.0720 H         1 <0>         0.0999
     33 H5          1.9956   -2.8434    0.1576 H         1 <0>         0.0990
     34 H6          2.4189   -2.1792   -1.7574 H         1 <0>         0.1274
     35 H7          0.5622   -1.5937   -3.2632 H         1 <0>         0.1362
     36 H8         -0.3515    0.6915   -3.2630 H         1 <0>         0.1350
     37 H9          0.5815    2.3947   -1.7513 H         1 <0>         0.1368
     38 H10         2.4369    1.8188   -0.2403 H         1 <0>         0.1392
     39 H11         4.1215    1.6330   -1.4964 H         1 <0>         0.1319
     40 H12         5.8825    1.4008   -1.6215 H         1 <0>         0.1148
     41 H13         4.7386    0.5086   -3.6286 H         1 <0>         0.1407
     42 H14         3.7493   -0.5533   -2.5983 H         1 <0>         0.1496
     43 H15         6.5422   -2.6367   -1.5419 H         1 <0>         0.1417
     44 H16         4.7891   -2.3667   -1.3955 H         1 <0>         0.1274
     45 H17         6.9759   -0.5064   -0.3580 H         1 <0>         0.1164
     46 H18         5.9671   -1.5849    0.6362 H         1 <0>         0.1468
     47 H19         6.4312   -2.7117   -3.8435 H         1 <0>         0.1337
     48 H20         4.6953   -2.3413   -3.9765 H         1 <0>         0.1325
     49 H21         5.2338   -0.2631   -5.2175 H         1 <0>         0.0942
     50 H22         6.9697   -0.6336   -5.0844 H         1 <0>         0.0957
     51 H23         7.9523   -2.4540   -6.3511 H         1 <0>         0.1242
     52 H24         7.8019   -3.8785   -8.3539 H         1 <0>         0.1293
     53 H25         5.6477   -4.1440   -9.5168 H         1 <0>         0.1294
     54 H26         3.6423   -2.9915   -8.6722 H         1 <0>         0.1291
     55 H27         3.7908   -1.5745   -6.6640 H         1 <0>         0.1234
     56 H28         5.2201    3.3203    2.2946 H         1 <0>         0.0693
     57 H29         3.5882    3.0767    2.9624 H         1 <0>         0.1100
     58 H30         4.9122    1.9811    3.4259 H         1 <0>         0.0695
     59 N2          5.8095   -1.0513   -2.7125 N.4       1 <0>        -0.3947
     60 H31         6.7084   -0.5561   -2.7431 H         1 <0>         0.4273
@<TRIPOS>BOND
     1    1    2 1
     2    1   29 1
     3    1   30 1
     4    1   31 1
     5    2    3 1
     6    2   32 1
     7    2   33 1
     8    3    4 2
     9    3    5 am
    10    5    6 1
    11    5   12 1
    12    6   11 ar
    13    6    7 ar
    14    7    8 ar
    15    7   34 1
    16    8    9 ar
    17    8   35 1
    18    9   10 ar
    19    9   36 1
    20   10   11 ar
    21   10   37 1
    22   11   38 1
    23   12   16 1
    24   12   13 1
    25   12   25 1
    26   13   14 1
    27   13   39 1
    28   13   40 1
    29   14   41 1
    30   14   42 1
    31   14   59 1
    32   15   16 1
    33   15   43 1
    34   15   44 1
    35   15   59 1
    36   16   45 1
    37   16   46 1
    38   17   18 1
    39   17   47 1
    40   17   48 1
    41   17   59 1
    42   18   19 1
    43   18   49 1
    44   18   50 1
    45   19   24 ar
    46   19   20 ar
    47   20   21 ar
    48   20   51 1
    49   21   22 ar
    50   21   52 1
    51   22   23 ar
    52   22   53 1
    53   23   24 ar
    54   23   54 1
    55   24   55 1
    56   25   26 2
    57   25   27 1
    58   27   28 1
    59   28   56 1
    60   28   57 1
    61   28   58 1
    62   59   60 1
@<TRIPOS>MOLECULE
ZINC29206920
   82    84     0     0     0
SMALL
USER_CHARGES

@<TRIPOS>ATOM
      1 C1         -0.7841    0.4745   -0.5040 C.3       1 <0>        -0.1226
      2 C2         -0.2225   -0.9084   -0.1678 C.3       1 <0>        -0.0076
      3 C3         -1.3753   -1.8659    0.1403 C.3       1 <0>         0.1496
      4 H1         -1.6891   -1.7355    1.1760 H         1 <0>         0.1196
      5 C4         -0.9190   -3.2865   -0.0712 C.2       1 <0>         0.4915
      6 O1          0.2447   -3.5316   -0.3093 O.2       1 <0>        -0.4665
      7 N1         -1.8375   -4.2924    0.0103 N.am      1 <0>        -0.7176
      8 C5         -1.3144   -5.6594   -0.2050 C.3       1 <0>         0.0987
      9 C6         -0.2871   -5.9549    0.8574 C.2       1 <0>         0.5172
     10 O2         -0.5433   -5.7922    2.0316 O.2       1 <0>        -0.5347
     11 N2          0.9450   -6.4130    0.4638 N.am      1 <0>        -0.6975
     12 C7          1.8822   -6.6651    1.5890 C.3       1 <0>         0.1263
     13 H2          1.3601   -6.5380    2.5373 H         1 <0>         0.1123
     14 C8          3.0135   -5.6738    1.4955 C.2       1 <0>         0.5124
     15 O3          4.0661   -5.9862    0.9804 O.2       1 <0>        -0.4909
     16 N3          2.8333   -4.4187    1.9997 N.am      1 <0>        -0.7103
     17 C9          3.9880   -3.5028    1.8719 C.3       1 <0>         0.0915
     18 H3          4.7405   -3.7568    2.6185 H         1 <0>         0.0675
     19 C10         3.5044   -2.0690    2.0980 C.3       1 <0>        -0.0197
     20 S1          2.6735   -1.4683    0.6015 S.3       1 <0>        -0.0694
     21 S2          0.8638   -0.7844    1.2797 S.3       1 <0>        -0.2223
     22 C11         2.5238   -2.0406    3.2721 C.3       1 <0>        -0.1519
     23 C12         4.7021   -1.1702    2.4120 C.3       1 <0>        -0.1277
     24 C13         4.5821   -3.6278    0.4926 C.2       1 <0>         0.5124
     25 O4          3.9951   -4.2599   -0.3690 O.co2     1 <0>        -0.6433
     26 O5          5.6497   -3.0967    0.2383 O.co2     1 <0>        -0.7052
     27 C14         2.4340   -8.0888    1.4911 C.3       1 <0>        -0.0780
     28 C15         1.3119   -9.0766    1.6814 C.ar      1 <0>        -0.0675
     29 C16         0.9960   -9.5280    2.9492 C.ar      1 <0>        -0.1140
     30 C17        -0.0332  -10.4341    3.1237 C.ar      1 <0>        -0.1189
     31 C18        -0.7469  -10.8884    2.0305 C.ar      1 <0>        -0.1291
     32 C19        -0.4316  -10.4363    0.7628 C.ar      1 <0>        -0.1213
     33 C20         0.5949   -9.5270    0.5888 C.ar      1 <0>        -0.1100
     34 N4         -2.5015   -1.5771   -0.7511 N.am      1 <0>        -0.7141
     35 C21        -3.7559   -1.8993   -0.3782 C.2       1 <0>         0.5207
     36 O6         -3.9525   -2.4283    0.6952 O.2       1 <0>        -0.5198
     37 C22        -4.9144   -1.6021   -1.2952 C.3       1 <0>         0.0849
     38 H4         -4.6276   -1.8177   -2.3245 H         1 <0>         0.1056
     39 C23        -5.2975   -0.1260   -1.1711 C.3       1 <0>        -0.1126
     40 C24        -6.3727    0.2000   -2.1753 C.ar      1 <0>        -0.0933
     41 C25        -6.0259    0.6295   -3.4429 C.ar      1 <0>        -0.0957
     42 C26        -7.0097    0.9295   -4.3652 C.ar      1 <0>        -0.1401
     43 C27        -8.3467    0.7990   -4.0186 C.ar      1 <0>         0.1035
     44 C28        -8.6921    0.3674   -2.7462 C.ar      1 <0>        -0.1400
     45 C29        -7.7045    0.0637   -1.8293 C.ar      1 <0>        -0.1027
     46 O7         -9.3164    1.0939   -4.9239 O.3       1 <0>        -0.5004
     47 N5         -6.0622   -2.4390   -0.9211 N.3       1 <0>        -0.8245
     48 C30         0.5758   -1.4385   -1.3606 C.3       1 <0>        -0.1756
     49 H5          0.0373    1.1566   -0.7235 H         1 <0>         0.0747
     50 H6         -1.4368    0.3999   -1.3738 H         1 <0>         0.0625
     51 H7         -1.3527    0.8521    0.3457 H         1 <0>         0.0638
     52 H8         -2.7738   -4.1219    0.1977 H         1 <0>         0.4151
     53 H9         -2.1305   -6.3786   -0.1348 H         1 <0>         0.1071
     54 H10        -0.8512   -5.7230   -1.1896 H         1 <0>         0.0876
     55 H11         1.1828   -6.5589   -0.4652 H         1 <0>         0.4153
     56 H12         2.0009   -4.1443    2.4152 H         1 <0>         0.3910
     57 H13         2.9807   -2.5184    4.1387 H         1 <0>         0.0714
     58 H14         2.2774   -1.0070    3.5148 H         1 <0>         0.0652
     59 H15         1.6146   -2.5764    2.9992 H         1 <0>         0.0689
     60 H16         5.4007   -1.1904    1.5755 H         1 <0>         0.0899
     61 H17         4.3575   -0.1488    2.5730 H         1 <0>         0.0556
     62 H18         5.2015   -1.5313    3.3111 H         1 <0>         0.0613
     63 H19         2.8859   -8.2367    0.5103 H         1 <0>         0.0885
     64 H20         3.1868   -8.2406    2.2646 H         1 <0>         0.0855
     65 H21         1.5536   -9.1730    3.8033 H         1 <0>         0.1196
     66 H22        -0.2796  -10.7873    4.1142 H         1 <0>         0.1177
     67 H23        -1.5506  -11.5969    2.1668 H         1 <0>         0.1161
     68 H24        -0.9889  -10.7916   -0.0913 H         1 <0>         0.1177
     69 H25         0.8388   -9.1709   -0.4013 H         1 <0>         0.1196
     70 H26        -2.3443   -1.1539   -1.6097 H         1 <0>         0.4056
     71 H27        -5.6685    0.0697   -0.1650 H         1 <0>         0.0833
     72 H28        -4.4216    0.4940   -1.3623 H         1 <0>         0.0860
     73 H29        -4.9849    0.7309   -3.7122 H         1 <0>         0.1293
     74 H30        -6.7383    1.2656   -5.3550 H         1 <0>         0.1301
     75 H31        -9.7322    0.2651   -2.4740 H         1 <0>         0.1296
     76 H32        -7.9728   -0.2765   -0.8400 H         1 <0>         0.1260
     77 H33        -9.5884    0.3421   -5.4679 H         1 <0>         0.3917
     78 H34        -6.3473   -2.2576    0.0297 H         1 <0>         0.3525
     79 H35        -6.8309   -2.3055   -1.5609 H         1 <0>         0.3494
     80 H36         1.1317   -0.6202   -1.8182 H         1 <0>         0.0570
     81 H37         1.2720   -2.2050   -1.0201 H         1 <0>         0.1395
     82 H38        -0.1076   -1.8679   -2.0932 H         1 <0>         0.0573
@<TRIPOS>BOND
     1    1    2 1
     2    1   49 1
     3    1   50 1
     4    1   51 1
     5    2   21 1
     6    2    3 1
     7    2   48 1
     8    3    4 1
     9    3    5 1
    10    3   34 1
    11    5    6 2
    12    5    7 am
    13    7    8 1
    14    7   52 1
    15    8    9 1
    16    8   53 1
    17    8   54 1
    18    9   10 2
    19    9   11 am
    20   11   12 1
    21   11   55 1
    22   12   13 1
    23   12   14 1
    24   12   27 1
    25   14   15 2
    26   14   16 am
    27   16   17 1
    28   16   56 1
    29   17   18 1
    30   17   19 1
    31   17   24 1
    32   19   20 1
    33   19   22 1
    34   19   23 1
    35   20   21 1
    36   22   57 1
    37   22   58 1
    38   22   59 1
    39   23   60 1
    40   23   61 1
    41   23   62 1
    42   24   25 2
    43   24   26 1
    44   27   28 1
    45   27   63 1
    46   27   64 1
    47   28   33 ar
    48   28   29 ar
    49   29   30 ar
    50   29   65 1
    51   30   31 ar
    52   30   66 1
    53   31   32 ar
    54   31   67 1
    55   32   33 ar
    56   32   68 1
    57   33   69 1
    58   34   35 am
    59   34   70 1
    60   35   36 2
    61   35   37 1
    62   37   38 1
    63   37   39 1
    64   37   47 1
    65   39   40 1
    66   39   71 1
    67   39   72 1
    68   40   45 ar
    69   40   41 ar
    70   41   42 ar
    71   41   73 1
    72   42   43 ar
    73   42   74 1
    74   43   44 ar
    75   43   46 1
    76   44   45 ar
    77   44   75 1
    78   45   76 1
    79   46   77 1
    80   47   78 1
    81   47   79 1
    82   48   80 1
    83   48   81 1
    84   48   82 1
@<TRIPOS>MOLECULE
ZINC29206920
   83    85     0     0     0
SMALL
USER_CHARGES

@<TRIPOS>ATOM
      1 C1         -0.7841    0.4745   -0.5040 C.3       1 <0>        -0.1249
      2 C2         -0.2225   -0.9084   -0.1678 C.3       1 <0>        -0.0153
      3 C3         -1.3753   -1.8659    0.1403 C.3       1 <0>         0.1472
      4 H1         -1.6891   -1.7355    1.1760 H         1 <0>         0.1302
      5 C4         -0.9190   -3.2865   -0.0712 C.2       1 <0>         0.4869
      6 O1          0.2447   -3.5316   -0.3093 O.2       1 <0>        -0.4431
      7 N1         -1.8375   -4.2924    0.0103 N.am      1 <0>        -0.7233
      8 C5         -1.3144   -5.6594   -0.2050 C.3       1 <0>         0.0971
      9 C6         -0.2871   -5.9549    0.8574 C.2       1 <0>         0.5130
     10 O2         -0.5433   -5.7922    2.0316 O.2       1 <0>        -0.5343
     11 N2          0.9450   -6.4130    0.4638 N.am      1 <0>        -0.6942
     12 C7          1.8822   -6.6651    1.5890 C.3       1 <0>         0.1272
     13 H2          1.3601   -6.5380    2.5373 H         1 <0>         0.1133
     14 C8          3.0135   -5.6738    1.4955 C.2       1 <0>         0.5104
     15 O3          4.0661   -5.9862    0.9804 O.2       1 <0>        -0.4844
     16 N3          2.8333   -4.4187    1.9997 N.am      1 <0>        -0.7118
     17 C9          3.9880   -3.5028    1.8719 C.3       1 <0>         0.0899
     18 H3          4.7405   -3.7568    2.6185 H         1 <0>         0.0714
     19 C10         3.5044   -2.0690    2.0980 C.3       1 <0>        -0.0182
     20 S1          2.6735   -1.4683    0.6015 S.3       1 <0>        -0.0615
     21 S2          0.8638   -0.7844    1.2797 S.3       1 <0>        -0.2170
     22 C11         2.5238   -2.0406    3.2721 C.3       1 <0>        -0.1519
     23 C12         4.7021   -1.1702    2.4120 C.3       1 <0>        -0.1304
     24 C13         4.5821   -3.6278    0.4926 C.2       1 <0>         0.5112
     25 O4          3.9951   -4.2599   -0.3690 O.co2     1 <0>        -0.6461
     26 O5          5.6497   -3.0967    0.2383 O.co2     1 <0>        -0.6994
     27 C14         2.4340   -8.0888    1.4911 C.3       1 <0>        -0.0798
     28 C15         1.3119   -9.0766    1.6814 C.ar      1 <0>        -0.0684
     29 C16         0.9960   -9.5280    2.9492 C.ar      1 <0>        -0.1131
     30 C17        -0.0332  -10.4341    3.1237 C.ar      1 <0>        -0.1175
     31 C18        -0.7469  -10.8884    2.0305 C.ar      1 <0>        -0.1285
     32 C19        -0.4316  -10.4363    0.7628 C.ar      1 <0>        -0.1225
     33 C20         0.5949   -9.5270    0.5888 C.ar      1 <0>        -0.1118
     34 N4         -2.5015   -1.5771   -0.7511 N.am      1 <0>        -0.6826
     35 C21        -3.7559   -1.8993   -0.3782 C.2       1 <0>         0.4981
     36 O6         -3.9525   -2.4283    0.6952 O.2       1 <0>        -0.5157
     37 C22        -4.9144   -1.6021   -1.2952 C.3       1 <0>         0.0138
     38 H4         -4.6276   -1.8177   -2.3245 H         1 <0>         0.1684
     39 C23        -5.2975   -0.1260   -1.1711 C.3       1 <0>        -0.0924
     40 C24        -6.3727    0.2000   -2.1753 C.ar      1 <0>        -0.1404
     41 C25        -6.0259    0.6295   -3.4429 C.ar      1 <0>        -0.0825
     42 C26        -7.0097    0.9295   -4.3652 C.ar      1 <0>        -0.1346
     43 C27        -8.3467    0.7990   -4.0186 C.ar      1 <0>         0.1296
     44 C28        -8.6921    0.3674   -2.7462 C.ar      1 <0>        -0.1368
     45 C29        -7.7045    0.0637   -1.8293 C.ar      1 <0>        -0.1192
     46 O7         -9.3164    1.0939   -4.9239 O.3       1 <0>        -0.4951
     47 N5         -6.0622   -2.4390   -0.9211 N.4       1 <0>        -0.6214
     48 C30         0.5758   -1.4385   -1.3606 C.3       1 <0>        -0.1794
     49 H5          0.0373    1.1566   -0.7235 H         1 <0>         0.0819
     50 H6         -1.4368    0.3999   -1.3738 H         1 <0>         0.0574
     51 H7         -1.3527    0.8521    0.3457 H         1 <0>         0.0658
     52 H8         -2.7738   -4.1219    0.1977 H         1 <0>         0.4032
     53 H9         -2.1305   -6.3786   -0.1348 H         1 <0>         0.1082
     54 H10        -0.8512   -5.7230   -1.1896 H         1 <0>         0.0919
     55 H11         1.1828   -6.5589   -0.4652 H         1 <0>         0.4163
     56 H12         2.0009   -4.1443    2.4152 H         1 <0>         0.3893
     57 H13         2.9807   -2.5184    4.1387 H         1 <0>         0.0751
     58 H14         2.2774   -1.0070    3.5148 H         1 <0>         0.0657
     59 H15         1.6146   -2.5764    2.9992 H         1 <0>         0.0668
     60 H16         5.4007   -1.1904    1.5755 H         1 <0>         0.0916
     61 H17         4.3575   -0.1488    2.5730 H         1 <0>         0.0570
     62 H18         5.2015   -1.5313    3.3111 H         1 <0>         0.0651
     63 H19         2.8859   -8.2367    0.5103 H         1 <0>         0.0898
     64 H20         3.1868   -8.2406    2.2646 H         1 <0>         0.0881
     65 H21         1.5536   -9.1730    3.8033 H         1 <0>         0.1207
     66 H22        -0.2796  -10.7873    4.1142 H         1 <0>         0.1192
     67 H23        -1.5506  -11.5969    2.1668 H         1 <0>         0.1169
     68 H24        -0.9889  -10.7916   -0.0913 H         1 <0>         0.1174
     69 H25         0.8388   -9.1709   -0.4013 H         1 <0>         0.1187
     70 H26        -2.3443   -1.1539   -1.6097 H         1 <0>         0.4159
     71 H27        -5.6685    0.0697   -0.1650 H         1 <0>         0.1107
     72 H28        -4.4216    0.4940   -1.3623 H         1 <0>         0.1281
     73 H29        -4.9849    0.7309   -3.7122 H         1 <0>         0.1373
     74 H30        -6.7383    1.2656   -5.3550 H         1 <0>         0.1400
     75 H31        -9.7322    0.2651   -2.4740 H         1 <0>         0.1388
     76 H32        -7.9728   -0.2765   -0.8400 H         1 <0>         0.1293
     77 H33        -9.5884    0.3421   -5.4679 H         1 <0>         0.4007
     78 H34        -6.8378   -2.2401   -1.5350 H         1 <0>         0.4396
     79 H35        -5.8096   -3.4125   -1.0029 H         1 <0>         0.4410
     80 H36         1.1317   -0.6202   -1.8182 H         1 <0>         0.0640
     81 H37         1.2720   -2.2050   -1.0201 H         1 <0>         0.1406
     82 H38        -0.1076   -1.8679   -2.0932 H         1 <0>         0.0552
     83 H39        -6.3276   -2.2394    0.0317 H         1 <0>         0.4425
@<TRIPOS>BOND
     1    1    2 1
     2    1   49 1
     3    1   50 1
     4    1   51 1
     5    2   21 1
     6    2    3 1
     7    2   48 1
     8    3    4 1
     9    3    5 1
    10    3   34 1
    11    5    6 2
    12    5    7 am
    13    7    8 1
    14    7   52 1
    15    8    9 1
    16    8   53 1
    17    8   54 1
    18    9   10 2
    19    9   11 am
    20   11   12 1
    21   11   55 1
    22   12   13 1
    23   12   14 1
    24   12   27 1
    25   14   15 2
    26   14   16 am
    27   16   17 1
    28   16   56 1
    29   17   18 1
    30   17   19 1
    31   17   24 1
    32   19   20 1
    33   19   22 1
    34   19   23 1
    35   20   21 1
    36   22   57 1
    37   22   58 1
    38   22   59 1
    39   23   60 1
    40   23   61 1
    41   23   62 1
    42   24   25 2
    43   24   26 1
    44   27   28 1
    45   27   63 1
    46   27   64 1
    47   28   33 ar
    48   28   29 ar
    49   29   30 ar
    50   29   65 1
    51   30   31 ar
    52   30   66 1
    53   31   32 ar
    54   31   67 1
    55   32   33 ar
    56   32   68 1
    57   33   69 1
    58   34   35 am
    59   34   70 1
    60   35   36 2
    61   35   37 1
    62   37   38 1
    63   37   39 1
    64   37   47 1
    65   39   40 1
    66   39   71 1
    67   39   72 1
    68   40   45 ar
    69   40   41 ar
    70   41   42 ar
    71   41   73 1
    72   42   43 ar
    73   42   74 1
    74   43   44 ar
    75   43   46 1
    76   44   45 ar
    77   44   75 1
    78   45   76 1
    79   46   77 1
    80   47   78 1
    81   47   79 1
    82   47   83 1
    83   48   80 1
    84   48   81 1
    85   48   82 1
@<TRIPOS>MOLECULE
ZINC14951658
   83    87     0     0     0
SMALL
USER_CHARGES

@<TRIPOS>ATOM
      1 C1          1.6752   -1.6535    0.3359 C.ar      1 <0>        -0.1173
      2 C2          2.1139   -0.3499    0.1977 C.ar      1 <0>        -0.1140
      3 C3          3.4637   -0.0627    0.2779 C.ar      1 <0>        -0.1104
      4 C4          4.3747   -1.0790    0.4967 C.ar      1 <0>        -0.0873
      5 C5          3.9360   -2.3825    0.6357 C.ar      1 <0>        -0.1137
      6 C6          2.5863   -2.6699    0.5541 C.ar      1 <0>        -0.1156
      7 C7          5.8464   -0.7661    0.5831 C.3       1 <0>        -0.0835
      8 C8          6.2194   -0.4657    2.0362 C.3       1 <0>         0.1354
      9 H1          5.9143   -1.2988    2.6693 H         1 <0>         0.1172
     10 C9          7.7103   -0.2735    2.1426 C.2       1 <0>         0.5069
     11 O1          8.1589    0.7794    2.5439 O.2       1 <0>        -0.5273
     12 N1          8.5452   -1.2717    1.7918 N.am      1 <0>        -0.8534
     13 N2          5.5373    0.7550    2.4731 N.am      1 <0>        -0.7042
     14 C10         5.2878    0.9557    3.7823 C.2       1 <0>         0.5150
     15 O2          5.6281    0.1258    4.5987 O.2       1 <0>        -0.5262
     16 C11         4.5861    2.2114    4.2318 C.3       1 <0>         0.1403
     17 H2          3.6025    2.2648    3.7651 H         1 <0>         0.1164
     18 C12         5.4123    3.4320    3.8215 C.3       1 <0>        -0.0435
     19 C13         4.6730    4.6894    4.2004 C.2       1 <0>        -0.1735
     20 C14         3.8376    5.3909    3.4182 C.2       1 <0>         0.0636
     21 N3          3.3546    6.4724    4.1033 N.pl3     1 <0>        -0.5922
     22 H3          2.7339    7.1266    3.7460 H         1 <0>         0.4161
     23 C15         3.8809    6.4938    5.3755 C.ar      1 <0>         0.0998
     24 C16         4.7249    5.3743    5.4943 C.ar      1 <0>        -0.0875
     25 C17         5.3983    5.1338    6.6932 C.ar      1 <0>        -0.0774
     26 C18         5.2311    5.9864    7.7481 C.ar      1 <0>        -0.1413
     27 C19         4.3965    7.0897    7.6373 C.ar      1 <0>        -0.0991
     28 C20         3.7295    7.3511    6.4602 C.ar      1 <0>        -0.1246
     29 N4          4.4349    2.1914    5.6888 N.am      1 <0>        -0.6967
     30 C21         3.3398    1.6364    6.2451 C.2       1 <0>         0.5273
     31 O3          2.4384    1.2355    5.5398 O.2       1 <0>        -0.5279
     32 C22         3.2356    1.5142    7.7435 C.3       1 <0>         0.1207
     33 H4          3.7088    2.3732    8.2192 H         1 <0>         0.0930
     34 C23         3.9185    0.2122    8.2126 C.3       1 <0>        -0.1188
     35 C24         2.9823   -0.2820    9.3470 C.3       1 <0>        -0.1311
     36 C25         1.5922    0.1396    8.8089 C.3       1 <0>         0.0966
     37 N5          1.8224    1.4377    8.1418 N.am      1 <0>        -0.5962
     38 C26         0.8946    2.3925    7.9325 C.2       1 <0>         0.5002
     39 O4          1.1797    3.3867    7.2991 O.2       1 <0>        -0.5277
     40 C27        -0.4972    2.2249    8.4857 C.3       1 <0>         0.0897
     41 H5         -0.4415    1.7920    9.4845 H         1 <0>         0.1028
     42 C28        -1.3009    1.2974    7.5719 C.3       1 <0>        -0.0650
     43 C29        -2.6504    1.0315    8.1877 C.ar      1 <0>        -0.0765
     44 C30        -2.8184   -0.0393    9.0461 C.ar      1 <0>        -0.1025
     45 C31        -4.0546   -0.2855    9.6115 C.ar      1 <0>        -0.1457
     46 C32        -5.1278    0.5430    9.3176 C.ar      1 <0>         0.1001
     47 C33        -4.9565    1.6170    8.4563 C.ar      1 <0>        -0.1453
     48 C34        -3.7171    1.8620    7.8976 C.ar      1 <0>        -0.0734
     49 O5         -6.3450    0.3026    9.8722 O.3       1 <0>        -0.5017
     50 N6         -1.1573    3.5353    8.5560 N.3       1 <0>        -0.8129
     51 H6          0.6202   -1.8773    0.2777 H         1 <0>         0.1218
     52 H7          1.4020    0.4441    0.0268 H         1 <0>         0.1223
     53 H8          3.8064    0.9557    0.1692 H         1 <0>         0.1185
     54 H9          4.6478   -3.1766    0.8063 H         1 <0>         0.1221
     55 H10         2.2436   -3.6883    0.6624 H         1 <0>         0.1228
     56 H11         6.4212   -1.6222    0.2299 H         1 <0>         0.0946
     57 H12         6.0701    0.1024   -0.0365 H         1 <0>         0.0874
     58 H13         8.1864   -2.1138    1.4708 H         1 <0>         0.4011
     59 H14         9.5048   -1.1480    1.8603 H         1 <0>         0.4041
     60 H15         5.2651    1.4187    1.8202 H         1 <0>         0.4027
     61 H16         6.3745    3.4081    4.3331 H         1 <0>         0.0845
     62 H17         5.5734    3.4161    2.7436 H         1 <0>         0.0893
     63 H18         3.5844    5.1391    2.3990 H         1 <0>         0.1685
     64 H19         6.0488    4.2768    6.7868 H         1 <0>         0.1136
     65 H20         5.7523    5.7999    8.6754 H         1 <0>         0.1206
     66 H21         4.2740    7.7540    8.4800 H         1 <0>         0.1233
     67 H22         3.0813    8.2117    6.3844 H         1 <0>         0.1177
     68 H23         5.1228    2.5775    6.2532 H         1 <0>         0.4010
     69 H24         3.9595   -0.5154    7.4021 H         1 <0>         0.0861
     70 H25         4.9169    0.4178    8.5987 H         1 <0>         0.0922
     71 H26         3.0451   -1.3641    9.4618 H         1 <0>         0.0915
     72 H27         3.2070    0.2227   10.2866 H         1 <0>         0.0817
     73 H28         1.2233   -0.5956    8.0937 H         1 <0>         0.0759
     74 H29         0.8867    0.2572    9.6314 H         1 <0>         0.0827
     75 H30        -1.4323    1.7706    6.5989 H         1 <0>         0.0787
     76 H31        -0.7658    0.3558    7.4487 H         1 <0>         0.0817
     77 H32        -1.9826   -0.6840    9.2746 H         1 <0>         0.1233
     78 H33        -4.1855   -1.1225   10.2814 H         1 <0>         0.1265
     79 H34        -5.7905    2.2634    8.2260 H         1 <0>         0.1262
     80 H35        -3.5821    2.7005    7.2305 H         1 <0>         0.1249
     81 H36        -6.4868    0.7489   10.7183 H         1 <0>         0.3898
     82 H37        -0.6817    4.1455    9.2037 H         1 <0>         0.3456
     83 H38        -1.2212    3.9576    7.6419 H         1 <0>         0.3497
@<TRIPOS>BOND
     1    1    6 ar
     2    1    2 ar
     3    1   51 1
     4    2    3 ar
     5    2   52 1
     6    3    4 ar
     7    3   53 1
     8    4    5 ar
     9    4    7 1
    10    5    6 ar
    11    5   54 1
    12    6   55 1
    13    7    8 1
    14    7   56 1
    15    7   57 1
    16    8    9 1
    17    8   10 1
    18    8   13 1
    19   10   11 2
    20   10   12 am
    21   12   58 1
    22   12   59 1
    23   13   14 am
    24   13   60 1
    25   14   15 2
    26   14   16 1
    27   16   17 1
    28   16   18 1
    29   16   29 1
    30   18   19 1
    31   18   61 1
    32   18   62 1
    33   19   24 1
    34   19   20 2
    35   20   21 1
    36   20   63 1
    37   21   22 1
    38   21   23 1
    39   23   28 ar
    40   23   24 ar
    41   24   25 ar
    42   25   26 ar
    43   25   64 1
    44   26   27 ar
    45   26   65 1
    46   27   28 ar
    47   27   66 1
    48   28   67 1
    49   29   30 am
    50   29   68 1
    51   30   31 2
    52   30   32 1
    53   32   33 1
    54   32   37 1
    55   32   34 1
    56   34   35 1
    57   34   69 1
    58   34   70 1
    59   35   36 1
    60   35   71 1
    61   35   72 1
    62   36   37 1
    63   36   73 1
    64   36   74 1
    65   37   38 am
    66   38   39 2
    67   38   40 1
    68   40   41 1
    69   40   42 1
    70   40   50 1
    71   42   43 1
    72   42   75 1
    73   42   76 1
    74   43   48 ar
    75   43   44 ar
    76   44   45 ar
    77   44   77 1
    78   45   46 ar
    79   45   78 1
    80   46   47 ar
    81   46   49 1
    82   47   48 ar
    83   47   79 1
    84   48   80 1
    85   49   81 1
    86   50   82 1
    87   50   83 1
@<TRIPOS>MOLECULE
ZINC03995327
   51    55     0     0     0
SMALL
USER_CHARGES

@<TRIPOS>ATOM
      1 C1         -0.0215    1.4454   -0.4090 C.3       1 <0>        -0.0489
      2 N1         -0.0003   -0.0173   -0.2748 N.4       1 <0>        -0.3816
      3 C2          0.7149   -0.6040   -1.4160 C.3       1 <0>        -0.0339
      4 C3          0.6400   -2.1279   -1.3236 C.3       1 <0>        -0.1333
      5 C4          1.2966   -2.6029   -0.0237 C.3       1 <0>        -0.0171
      6 C5          1.0632   -4.1090    0.1134 C.3       1 <0>        -0.0650
      7 C6          1.4838   -4.5968    1.4757 C.ar      1 <0>         0.1613
      8 C7          1.6450   -3.7302    2.5492 C.ar      1 <0>        -0.1351
      9 C8          2.0188   -4.2226    3.7739 C.ar      1 <0>        -0.0511
     10 C9          2.2397   -5.6034    3.9080 C.ar      1 <0>        -0.1008
     11 C10         2.6265   -6.1724    5.1318 C.ar      1 <0>        -0.0998
     12 C11         2.8328   -7.5157    5.2137 C.ar      1 <0>        -0.1069
     13 C12         2.6649   -8.3339    4.0981 C.ar      1 <0>        -0.0917
     14 C13         2.2900   -7.8158    2.8970 C.ar      1 <0>        -0.0958
     15 C14         2.0659   -6.4333    2.7727 C.ar      1 <0>         0.1374
     16 N2          1.6952   -5.8926    1.6122 N.ar      1 <0>        -0.4715
     17 C15         1.4376   -2.2452    2.4300 C.3       1 <0>        -0.0660
     18 C16         0.6381   -1.9013    1.1708 C.3       1 <0>        -0.0926
     19 H1         -0.3923   -2.2397    1.2796 H         1 <0>         0.1098
     20 C17         0.6851   -0.3847    0.9679 C.3       1 <0>        -0.0332
     21 C18         2.7721   -2.2977   -0.0506 C.ar      1 <0>        -0.0574
     22 C19         3.2050   -0.9886   -0.1574 C.ar      1 <0>        -0.1753
     23 C20         4.5578   -0.7054   -0.1824 C.ar      1 <0>        -0.0886
     24 C21         5.4810   -1.7301   -0.1012 C.ar      1 <0>        -0.1409
     25 C22         5.0494   -3.0440    0.0060 C.ar      1 <0>         0.1306
     26 C23         3.6910   -3.3252    0.0370 C.ar      1 <0>        -0.1356
     27 O1          5.9555   -4.0537    0.0861 O.3       1 <0>        -0.4951
     28 H2          1.0007    1.8230   -0.4328 H         1 <0>         0.1210
     29 H3         -0.5312    1.7181   -1.3331 H         1 <0>         0.1268
     30 H4         -0.5499    1.8805    0.4393 H         1 <0>         0.1258
     31 H5          0.2525   -0.2721   -2.3456 H         1 <0>         0.1366
     32 H6          1.7580   -0.2884   -1.3937 H         1 <0>         0.1488
     33 H7         -0.4040   -2.4408   -1.3375 H         1 <0>         0.0985
     34 H8          1.1603   -2.5684   -2.1742 H         1 <0>         0.1192
     35 H9          0.0042   -4.3221   -0.0323 H         1 <0>         0.0980
     36 H10         1.6411   -4.6319   -0.6486 H         1 <0>         0.1019
     37 H11         2.1413   -3.5612    4.6188 H         1 <0>         0.1399
     38 H12         2.7598   -5.5483    6.0031 H         1 <0>         0.1325
     39 H13         3.1308   -7.9528    6.1552 H         1 <0>         0.1333
     40 H14         2.8355   -9.3965    4.1883 H         1 <0>         0.1357
     41 H15         2.1646   -8.4642    2.0425 H         1 <0>         0.1385
     42 H16         0.8964   -1.8881    3.3062 H         1 <0>         0.0898
     43 H17         2.4080   -1.7510    2.3839 H         1 <0>         0.0897
     44 H18         1.7242   -0.0594    0.9169 H         1 <0>         0.1484
     45 H19         0.1962    0.1073    1.8088 H         1 <0>         0.1358
     46 H20         2.4849   -0.1863   -0.2217 H         1 <0>         0.1272
     47 H21         4.8934    0.3178   -0.2659 H         1 <0>         0.1330
     48 H22         6.5378   -1.5084   -0.1215 H         1 <0>         0.1357
     49 H23         3.3524   -4.3469    0.1252 H         1 <0>         0.1387
     50 H24         6.2193   -4.2746    0.9897 H         1 <0>         0.3985
     51 H25        -0.9464   -0.3673   -0.2538 H         1 <0>         0.4248
@<TRIPOS>BOND
     1    1    2 1
     2    1   28 1
     3    1   29 1
     4    1   30 1
     5    2   20 1
     6    2    3 1
     7    2   51 1
     8    3    4 1
     9    3   31 1
    10    3   32 1
    11    4    5 1
    12    4   33 1
    13    4   34 1
    14    5   18 1
    15    5    6 1
    16    5   21 1
    17    6    7 1
    18    6   35 1
    19    6   36 1
    20    7   16 ar
    21    7    8 ar
    22    8    9 ar
    23    8   17 1
    24    9   10 ar
    25    9   37 1
    26   10   15 ar
    27   10   11 ar
    28   11   12 ar
    29   11   38 1
    30   12   13 ar
    31   12   39 1
    32   13   14 ar
    33   13   40 1
    34   14   15 ar
    35   14   41 1
    36   15   16 ar
    37   17   18 1
    38   17   42 1
    39   17   43 1
    40   18   19 1
    41   18   20 1
    42   20   44 1
    43   20   45 1
    44   21   26 ar
    45   21   22 ar
    46   22   23 ar
    47   22   46 1
    48   23   24 ar
    49   23   47 1
    50   24   25 ar
    51   24   48 1
    52   25   26 ar
    53   25   27 1
    54   26   49 1
    55   27   50 1
@<TRIPOS>MOLECULE
ZINC03995327
   52    56     0     0     0
SMALL
USER_CHARGES

@<TRIPOS>ATOM
      1 C1         -0.0215    1.4454   -0.4090 C.3       1 <0>        -0.0513
      2 N1         -0.0003   -0.0173   -0.2748 N.4       1 <0>        -0.3822
      3 C2          0.7149   -0.6040   -1.4160 C.3       1 <0>        -0.0349
      4 C3          0.6400   -2.1279   -1.3236 C.3       1 <0>        -0.1347
      5 C4          1.2966   -2.6029   -0.0237 C.3       1 <0>        -0.0111
      6 C5          1.0632   -4.1090    0.1134 C.3       1 <0>        -0.1096
      7 C6          1.4838   -4.5968    1.4757 C.ar      1 <0>         0.2344
      8 C7          1.6450   -3.7302    2.5492 C.ar      1 <0>        -0.1285
      9 C8          2.0188   -4.2226    3.7739 C.ar      1 <0>         0.0541
     10 C9          2.2397   -5.6034    3.9080 C.ar      1 <0>        -0.0838
     11 C10         2.6265   -6.1724    5.1318 C.ar      1 <0>        -0.0633
     12 C11         2.8328   -7.5157    5.2137 C.ar      1 <0>        -0.0902
     13 C12         2.6649   -8.3339    4.0981 C.ar      1 <0>        -0.0194
     14 C13         2.2900   -7.8158    2.8971 C.ar      1 <0>        -0.1464
     15 C14         2.0659   -6.4333    2.7727 C.ar      1 <0>         0.1461
     16 N2          1.6952   -5.8926    1.6122 N.ar      1 <0>        -0.4619
     17 C15         1.4376   -2.2452    2.4300 C.3       1 <0>        -0.0729
     18 C16         0.6381   -1.9013    1.1708 C.3       1 <0>        -0.0992
     19 H1         -0.3923   -2.2397    1.2796 H         1 <0>         0.1184
     20 C17         0.6851   -0.3847    0.9679 C.3       1 <0>        -0.0333
     21 C18         2.7721   -2.2977   -0.0506 C.ar      1 <0>        -0.0715
     22 C19         3.2050   -0.9886   -0.1574 C.ar      1 <0>        -0.1684
     23 C20         4.5578   -0.7054   -0.1824 C.ar      1 <0>        -0.0752
     24 C21         5.4810   -1.7301   -0.1012 C.ar      1 <0>        -0.1316
     25 C22         5.0494   -3.0440    0.0060 C.ar      1 <0>         0.1378
     26 C23         3.6910   -3.3252    0.0370 C.ar      1 <0>        -0.1527
     27 O1          5.9555   -4.0537    0.0861 O.3       1 <0>        -0.4927
     28 H2          1.0007    1.8230   -0.4328 H         1 <0>         0.1238
     29 H3         -0.5312    1.7181   -1.3331 H         1 <0>         0.1316
     30 H4         -0.5499    1.8805    0.4393 H         1 <0>         0.1301
     31 H5          0.2525   -0.2721   -2.3456 H         1 <0>         0.1445
     32 H6          1.7580   -0.2884   -1.3937 H         1 <0>         0.1508
     33 H7         -0.4040   -2.4408   -1.3375 H         1 <0>         0.1037
     34 H8          1.1603   -2.5684   -2.1742 H         1 <0>         0.1244
     35 H9          0.0042   -4.3221   -0.0323 H         1 <0>         0.1351
     36 H10         1.6411   -4.6319   -0.6486 H         1 <0>         0.1255
     37 H11         2.1413   -3.5612    4.6188 H         1 <0>         0.1805
     38 H12         2.7598   -5.5483    6.0031 H         1 <0>         0.1635
     39 H13         3.1308   -7.9528    6.1552 H         1 <0>         0.1600
     40 H14         2.8355   -9.3965    4.1883 H         1 <0>         0.1624
     41 H15         2.1646   -8.4642    2.0425 H         1 <0>         0.1597
     42 H16         0.8964   -1.8881    3.3062 H         1 <0>         0.1138
     43 H17         2.4080   -1.7509    2.3839 H         1 <0>         0.1103
     44 H18         1.7242   -0.0594    0.9169 H         1 <0>         0.1514
     45 H19         0.1962    0.1073    1.8088 H         1 <0>         0.1439
     46 H20         2.4849   -0.1863   -0.2217 H         1 <0>         0.1333
     47 H21         4.8934    0.3178   -0.2659 H         1 <0>         0.1416
     48 H22         6.5378   -1.5084   -0.1215 H         1 <0>         0.1436
     49 H23         3.3524   -4.3469    0.1252 H         1 <0>         0.1175
     50 H24         6.2193   -4.2746    0.9897 H         1 <0>         0.4004
     51 H25        -0.9464   -0.3673   -0.2538 H         1 <0>         0.4269
     52 H26         1.5766   -6.4707    0.8423 H         1 <0>         0.4457
@<TRIPOS>BOND
     1    1    2 1
     2    1   28 1
     3    1   29 1
     4    1   30 1
     5    2   20 1
     6    2    3 1
     7    2   51 1
     8    3    4 1
     9    3   31 1
    10    3   32 1
    11    4    5 1
    12    4   33 1
    13    4   34 1
    14    5   18 1
    15    5    6 1
    16    5   21 1
    17    6    7 1
    18    6   35 1
    19    6   36 1
    20    7   16 ar
    21    7    8 ar
    22    8    9 ar
    23    8   17 1
    24    9   10 ar
    25    9   37 1
    26   10   15 ar
    27   10   11 ar
    28   11   12 ar
    29   11   38 1
    30   12   13 ar
    31   12   39 1
    32   13   14 ar
    33   13   40 1
    34   14   15 ar
    35   14   41 1
    36   15   16 ar
    37   16   52 1
    38   17   18 1
    39   17   42 1
    40   17   43 1
    41   18   19 1
    42   18   20 1
    43   20   44 1
    44   20   45 1
    45   21   26 ar
    46   21   22 ar
    47   22   23 ar
    48   22   46 1
    49   23   24 ar
    50   23   47 1
    51   24   25 ar
    52   24   48 1
    53   25   26 ar
    54   25   27 1
    55   26   49 1
    56   27   50 1
@<TRIPOS>MOLECULE
ZINC14951634
   79    82     0     0     0
SMALL
USER_CHARGES

@<TRIPOS>ATOM
      1 C1          1.9517   -1.5464   -0.2337 C.ar      1 <0>        -0.1169
      2 C2          2.3865   -0.2352   -0.2842 C.ar      1 <0>        -0.1137
      3 C3          3.7298    0.0539   -0.1328 C.ar      1 <0>        -0.1108
      4 C4          4.6382   -0.9682    0.0695 C.ar      1 <0>        -0.0879
      5 C5          4.2033   -2.2793    0.1209 C.ar      1 <0>        -0.1137
      6 C6          2.8602   -2.5685   -0.0319 C.ar      1 <0>        -0.1154
      7 C7          6.1028   -0.6531    0.2336 C.3       1 <0>        -0.0836
      8 C8          6.4134   -0.4287    1.7148 C.3       1 <0>         0.1354
      9 H1          6.0883   -1.2959    2.2896 H         1 <0>         0.1175
     10 C9          7.8972   -0.2352    1.8932 C.2       1 <0>         0.5074
     11 O1          8.3214    0.7970    2.3681 O.2       1 <0>        -0.5284
     12 N1          8.7529   -1.2093    1.5251 N.am      1 <0>        -0.8529
     13 N2          5.7052    0.7636    2.1871 N.am      1 <0>        -0.7039
     14 C10         5.4004    0.8931    3.4935 C.2       1 <0>         0.5162
     15 O2          5.7125    0.0226    4.2782 O.2       1 <0>        -0.5249
     16 C11         4.6719    2.1196    3.9794 C.3       1 <0>         0.1415
     17 H2          3.7081    2.1931    3.4756 H         1 <0>         0.1171
     18 C12         5.5057    3.3644    3.6691 C.3       1 <0>        -0.0819
     19 C13         4.7418    4.5963    4.0814 C.ar      1 <0>        -0.0827
     20 C14         3.8040    5.1461    3.2276 C.ar      1 <0>        -0.1123
     21 C15         3.1033    6.2760    3.6058 C.ar      1 <0>        -0.1140
     22 C16         3.3401    6.8560    4.8381 C.ar      1 <0>        -0.1172
     23 C17         4.2773    6.3057    5.6923 C.ar      1 <0>        -0.1138
     24 C18         4.9750    5.1732    5.3158 C.ar      1 <0>        -0.1107
     25 N3          4.4608    2.0213    5.4257 N.am      1 <0>        -0.7019
     26 C19         3.3749    1.3840    5.9064 C.2       1 <0>         0.5262
     27 O3          2.5258    0.9733    5.1440 O.2       1 <0>        -0.5234
     28 C20         3.2157    1.1818    7.3913 C.3       1 <0>         0.1205
     29 H3          3.6102    2.0451    7.9272 H         1 <0>         0.0932
     30 C21         3.9632   -0.0950    7.8302 C.3       1 <0>        -0.1185
     31 C22         3.0148   -0.7036    8.8968 C.3       1 <0>        -0.1312
     32 C23         1.6238   -0.3464    8.3162 C.3       1 <0>         0.0966
     33 N4          1.7951    0.9949    7.7210 N.am      1 <0>        -0.5969
     34 C24         0.8155    1.8972    7.5142 C.2       1 <0>         0.5010
     35 O4          1.0615    2.9397    6.9455 O.2       1 <0>        -0.5303
     36 C25        -0.5855    1.6105    7.9897 C.3       1 <0>         0.0897
     37 H4         -0.5463    1.1302    8.9674 H         1 <0>         0.1032
     38 C26        -1.2824    0.6822    6.9930 C.3       1 <0>        -0.0652
     39 C27        -2.6375    0.2971    7.5281 C.ar      1 <0>        -0.0769
     40 C28        -2.7719   -0.8261    8.3232 C.ar      1 <0>        -0.1026
     41 C29        -4.0131   -1.1815    8.8146 C.ar      1 <0>        -0.1458
     42 C30        -5.1252   -0.4102    8.5100 C.ar      1 <0>         0.1003
     43 C31        -4.9877    0.7165    7.7124 C.ar      1 <0>        -0.1452
     44 C32        -3.7435    1.0706    7.2278 C.ar      1 <0>        -0.0732
     45 O5         -6.3474   -0.7580    8.9919 O.3       1 <0>        -0.5017
     46 N5         -1.3350    2.8698    8.0926 N.3       1 <0>        -0.8131
     47 H5          0.9017   -1.7719   -0.3475 H         1 <0>         0.1222
     48 H6          1.6768    0.5634   -0.4423 H         1 <0>         0.1228
     49 H7          4.0696    1.0783   -0.1730 H         1 <0>         0.1183
     50 H8          4.9131   -3.0779    0.2787 H         1 <0>         0.1220
     51 H9          2.5205   -3.5929    0.0079 H         1 <0>         0.1230
     52 H10         6.6978   -1.4864   -0.1402 H         1 <0>         0.0950
     53 H11         6.3458    0.2481   -0.3292 H         1 <0>         0.0875
     54 H12         8.4136   -2.0348    1.1453 H         1 <0>         0.4014
     55 H13         9.7080   -1.0847    1.6399 H         1 <0>         0.4043
     56 H14         5.4555    1.4598    1.5595 H         1 <0>         0.4029
     57 H15         6.4456    3.3186    4.2193 H         1 <0>         0.0879
     58 H16         5.7124    3.4060    2.5997 H         1 <0>         0.0933
     59 H17         3.6190    4.6930    2.2649 H         1 <0>         0.1200
     60 H18         2.3711    6.7060    2.9384 H         1 <0>         0.1215
     61 H19         2.7932    7.7392    5.1333 H         1 <0>         0.1205
     62 H20         4.4626    6.7589    6.6549 H         1 <0>         0.1207
     63 H21         5.7045    4.7411    5.9847 H         1 <0>         0.1176
     64 H22         5.1025    2.4149    6.0374 H         1 <0>         0.4024
     65 H23         4.0868   -0.7777    6.9896 H         1 <0>         0.0868
     66 H24         4.9285    0.1553    8.2703 H         1 <0>         0.0923
     67 H25         3.1445   -1.7837    8.9641 H         1 <0>         0.0919
     68 H26         3.1655   -0.2323    9.8680 H         1 <0>         0.0818
     69 H27         1.3352   -1.0679    7.5517 H         1 <0>         0.0763
     70 H28         0.8779   -0.3151    9.1104 H         1 <0>         0.0835
     71 H29        -1.4011    1.1965    6.0393 H         1 <0>         0.0795
     72 H30        -0.6801   -0.2148    6.8495 H         1 <0>         0.0816
     73 H31        -1.9057   -1.4262    8.5600 H         1 <0>         0.1232
     74 H32        -4.1176   -2.0594    9.4350 H         1 <0>         0.1264
     75 H33        -5.8521    1.3186    7.4739 H         1 <0>         0.1265
     76 H34        -3.6352    1.9502    6.6104 H         1 <0>         0.1254
     77 H35        -6.5573   -0.3671    9.8511 H         1 <0>         0.3899
     78 H36        -0.9315    3.4746    8.7922 H         1 <0>         0.3457
     79 H37        -1.3855    3.3345    7.1984 H         1 <0>         0.3507
@<TRIPOS>BOND
     1    1    6 ar
     2    1    2 ar
     3    1   47 1
     4    2    3 ar
     5    2   48 1
     6    3    4 ar
     7    3   49 1
     8    4    5 ar
     9    4    7 1
    10    5    6 ar
    11    5   50 1
    12    6   51 1
    13    7    8 1
    14    7   52 1
    15    7   53 1
    16    8    9 1
    17    8   10 1
    18    8   13 1
    19   10   11 2
    20   10   12 am
    21   12   54 1
    22   12   55 1
    23   13   14 am
    24   13   56 1
    25   14   15 2
    26   14   16 1
    27   16   17 1
    28   16   18 1
    29   16   25 1
    30   18   19 1
    31   18   57 1
    32   18   58 1
    33   19   24 ar
    34   19   20 ar
    35   20   21 ar
    36   20   59 1
    37   21   22 ar
    38   21   60 1
    39   22   23 ar
    40   22   61 1
    41   23   24 ar
    42   23   62 1
    43   24   63 1
    44   25   26 am
    45   25   64 1
    46   26   27 2
    47   26   28 1
    48   28   29 1
    49   28   33 1
    50   28   30 1
    51   30   31 1
    52   30   65 1
    53   30   66 1
    54   31   32 1
    55   31   67 1
    56   31   68 1
    57   32   33 1
    58   32   69 1
    59   32   70 1
    60   33   34 am
    61   34   35 2
    62   34   36 1
    63   36   37 1
    64   36   38 1
    65   36   46 1
    66   38   39 1
    67   38   71 1
    68   38   72 1
    69   39   44 ar
    70   39   40 ar
    71   40   41 ar
    72   40   73 1
    73   41   42 ar
    74   41   74 1
    75   42   43 ar
    76   42   45 1
    77   43   44 ar
    78   43   75 1
    79   44   76 1
    80   45   77 1
    81   46   78 1
    82   46   79 1
@<TRIPOS>MOLECULE
ZINC05458878
   58    60     0     0     0
SMALL
USER_CHARGES
N-[1-(2-hydroxy-2-phenyl-ethyl)-3-methyl-4-piperidyl]-N-phenyl-propanamide
@<TRIPOS>ATOM
      1 C1          1.4617    1.0051   -2.7815 C.3       1 <0>        -0.1476
      2 C2          2.4505    2.1151   -3.1438 C.3       1 <0>        -0.1708
      3 C3          2.5952    3.0590   -1.9780 C.2       1 <0>         0.5552
      4 O1          1.8861    2.9311   -1.0024 O.2       1 <0>        -0.4830
      5 N1          3.5127    4.0454   -2.0195 N.am      1 <0>        -0.6008
      6 C4          4.8376    3.7546   -2.3630 C.ar      1 <0>         0.1222
      7 C5          5.8439    3.8686   -1.4128 C.ar      1 <0>        -0.1180
      8 C6          7.1497    3.5744   -1.7533 C.ar      1 <0>        -0.1020
      9 C7          7.4574    3.1790   -3.0422 C.ar      1 <0>        -0.1064
     10 C8          6.4585    3.0704   -3.9923 C.ar      1 <0>        -0.1015
     11 C9          5.1498    3.3568   -3.6564 C.ar      1 <0>        -0.1239
     12 C10         3.1229    5.4221   -1.7050 C.3       1 <0>         0.1500
     13 H1          3.8178    6.1150   -2.1795 H         1 <0>         0.1184
     14 C11         3.1495    5.6276   -0.1878 C.3       1 <0>        -0.1591
     15 C12         2.1284    4.6940    0.4664 C.3       1 <0>        -0.0518
     16 C13         0.7266    4.7485   -1.5095 C.3       1 <0>        -0.1056
     17 C14         1.7058    5.6837   -2.2228 C.3       1 <0>        -0.1196
     18 H2          1.4308    6.7194   -2.0232 H         1 <0>         0.1057
     19 C15         1.6555    5.4231   -3.7296 C.3       1 <0>        -0.1549
     20 C16        -0.2354    4.2030    0.6439 C.3       1 <0>        -0.0266
     21 C17        -1.6241    4.7154    0.2564 C.3       1 <0>         0.1343
     22 H3         -1.7608    4.6154   -0.8203 H         1 <0>         0.1260
     23 C18        -2.6755    3.9082    0.9734 C.ar      1 <0>        -0.1383
     24 C19        -3.0490    4.2474    2.2603 C.ar      1 <0>        -0.1079
     25 C20        -4.0172    3.5101    2.9160 C.ar      1 <0>        -0.1113
     26 C21        -4.6037    2.4268    2.2890 C.ar      1 <0>        -0.1013
     27 C22        -4.2264    2.0844    1.0039 C.ar      1 <0>        -0.1119
     28 C23        -3.2623    2.8251    0.3461 C.ar      1 <0>        -0.1022
     29 O2         -1.7448    6.0904    0.6263 O.3       1 <0>        -0.5500
     30 H4          1.3570    0.3224   -3.6247 H         1 <0>         0.0755
     31 H5          1.8316    0.4578   -1.9145 H         1 <0>         0.0668
     32 H6          0.4921    1.4446   -2.5472 H         1 <0>         0.0616
     33 H7          2.0806    2.6625   -4.0107 H         1 <0>         0.1139
     34 H8          3.4201    1.6757   -3.3780 H         1 <0>         0.1126
     35 H9          5.6050    4.1824   -0.4074 H         1 <0>         0.1245
     36 H10         7.9320    3.6583   -1.0135 H         1 <0>         0.1329
     37 H11         8.4799    2.9541   -3.3072 H         1 <0>         0.1324
     38 H12         6.7020    2.7610   -4.9980 H         1 <0>         0.1339
     39 H13         4.3701    3.2711   -4.3987 H         1 <0>         0.1298
     40 H14         4.1455    5.4013    0.1926 H         1 <0>         0.1107
     41 H15         2.8979    6.6625    0.0437 H         1 <0>         0.0936
     42 H16         2.1347    4.8480    1.5455 H         1 <0>         0.1104
     43 H17         2.3892    3.6589    0.2459 H         1 <0>         0.1936
     44 H18         0.9940    3.7132   -1.7208 H         1 <0>         0.2103
     45 H19        -0.2852    4.9423   -1.8656 H         1 <0>         0.1138
     46 H20         0.6456    5.6065   -4.0965 H         1 <0>         0.0735
     47 H21         2.3531    6.0894   -4.2370 H         1 <0>         0.0801
     48 H22         1.9319    4.3877   -3.9286 H         1 <0>         0.0647
     49 H23        -0.0963    4.3088    1.7198 H         1 <0>         0.1255
     50 H24        -0.1456    3.1525    0.3675 H         1 <0>         0.1455
     51 H25        -2.5873    5.0909    2.7520 H         1 <0>         0.1210
     52 H26        -4.3122    3.7778    3.9199 H         1 <0>         0.1308
     53 H27        -5.3570    1.8481    2.8029 H         1 <0>         0.1312
     54 H28        -4.6847    1.2380    0.5140 H         1 <0>         0.1314
     55 H29        -2.9673    2.5574   -0.6577 H         1 <0>         0.1258
     56 H30        -1.6341    6.2542    1.5729 H         1 <0>         0.3862
     57 N2          0.7828    5.0131   -0.0560 N.4       1 <0>        -0.3649
     58 H31         0.5887    6.0077    0.1092 H         1 <0>         0.4155
@<TRIPOS>BOND
     1    1    2 1
     2    1   30 1
     3    1   31 1
     4    1   32 1
     5    2    3 1
     6    2   33 1
     7    2   34 1
     8    3    4 2
     9    3    5 am
    10    5    6 1
    11    5   12 1
    12    6   11 ar
    13    6    7 ar
    14    7    8 ar
    15    7   35 1
    16    8    9 ar
    17    8   36 1
    18    9   10 ar
    19    9   37 1
    20   10   11 ar
    21   10   38 1
    22   11   39 1
    23   12   13 1
    24   12   17 1
    25   12   14 1
    26   14   15 1
    27   14   40 1
    28   14   41 1
    29   15   42 1
    30   15   43 1
    31   15   57 1
    32   16   17 1
    33   16   44 1
    34   16   45 1
    35   16   57 1
    36   17   18 1
    37   17   19 1
    38   19   46 1
    39   19   47 1
    40   19   48 1
    41   20   21 1
    42   20   49 1
    43   20   50 1
    44   20   57 1
    45   21   22 1
    46   21   23 1
    47   21   29 1
    48   23   28 ar
    49   23   24 ar
    50   24   25 ar
    51   24   51 1
    52   25   26 ar
    53   25   52 1
    54   26   27 ar
    55   26   53 1
    56   27   28 ar
    57   27   54 1
    58   28   55 1
    59   29   56 1
    60   57   58 1
@<TRIPOS>MOLECULE
ZINC00000523
   43    45     0     0     0
SMALL
USER_CHARGES

@<TRIPOS>ATOM
      1 C1         -0.3092    1.4992   -0.1585 C.3       1 <0>        -0.1545
      2 C2         -0.1427   -0.0197   -0.0813 C.3       1 <0>        -0.0891
      3 H1         -1.1219   -0.4942   -0.0163 H         1 <0>         0.1012
      4 C3          0.5921   -0.5217   -1.3233 C.3       1 <0>         0.0282
      5 H2         -0.0501   -0.3358   -2.1842 H         1 <0>         0.1364
      6 C4          1.8721    0.2694   -1.5249 C.3       1 <0>        -0.0949
      7 C5          2.6259    0.4650   -0.2371 C.ar      1 <0>        -0.1124
      8 C6          3.9266    0.9503   -0.3193 C.ar      1 <0>        -0.0941
      9 C7          4.6685    1.1673    0.8216 C.ar      1 <0>        -0.1367
     10 C8          4.1147    0.9020    2.0660 C.ar      1 <0>         0.1248
     11 C9          2.8216    0.4129    2.1483 C.ar      1 <0>        -0.1400
     12 C10         2.0830    0.1878    0.9966 C.ar      1 <0>        -0.0592
     13 C11         0.6927   -0.3866    1.1502 C.3       1 <0>        -0.0221
     14 C12         0.8333   -1.9195    1.1810 C.3       1 <0>        -0.1318
     15 C13         1.5926   -2.3422   -0.0815 C.3       1 <0>        -0.0228
     16 N1          0.8425   -1.9546   -1.2597 N.4       1 <0>        -0.3642
     17 C14         1.5793   -2.3654   -2.4623 C.3       1 <0>         0.0229
     18 C15         1.7022   -3.8671   -2.4876 C.2       1 <0>        -0.2375
     19 C16         1.2835   -4.5411   -3.5300 C.2       1 <0>        -0.1019
     20 C17         0.0296    0.1343    2.4269 C.3       1 <0>        -0.1463
     21 O1          4.8367    1.1202    3.1965 O.3       1 <0>        -0.4966
     22 H3          0.6720    1.9694   -0.2234 H         1 <0>         0.0720
     23 H4         -0.8944    1.7562   -1.0415 H         1 <0>         0.0686
     24 H5         -0.8239    1.8541    0.7343 H         1 <0>         0.0799
     25 H6          2.5096   -0.2627   -2.2310 H         1 <0>         0.0962
     26 H7          1.6232    1.2455   -1.9412 H         1 <0>         0.1210
     27 H8          4.3596    1.1588   -1.2865 H         1 <0>         0.1318
     28 H9          5.6785    1.5426    0.7474 H         1 <0>         0.1367
     29 H10         2.3862    0.2057    3.1147 H         1 <0>         0.1377
     30 H11         1.3919   -2.2217    2.0668 H         1 <0>         0.1134
     31 H12        -0.1541   -2.3811    1.1904 H         1 <0>         0.0947
     32 H13         2.5644   -1.8491   -0.1027 H         1 <0>         0.1307
     33 H14         1.7344   -3.4229   -0.0750 H         1 <0>         0.1335
     34 H15         1.0426   -2.0297   -3.3496 H         1 <0>         0.1324
     35 H16         2.5740   -1.9196   -2.4489 H         1 <0>         0.1358
     36 H17         2.1354   -4.3878   -1.6464 H         1 <0>         0.1336
     37 H18         0.8504   -4.0204   -4.3713 H         1 <0>         0.1119
     38 H19         1.3716   -5.6173   -3.5482 H         1 <0>         0.1234
     39 H20        -0.9613   -0.3084    2.5283 H         1 <0>         0.0701
     40 H21         0.6386   -0.1368    3.2893 H         1 <0>         0.0713
     41 H22        -0.0609    1.2192    2.3726 H         1 <0>         0.0737
     42 H23         4.7358    2.0098    3.5620 H         1 <0>         0.4007
     43 H24        -0.0408   -2.4417   -1.2347 H         1 <0>         0.4213
@<TRIPOS>BOND
     1    1    2 1
     2    1   22 1
     3    1   23 1
     4    1   24 1
     5    2    3 1
     6    2   13 1
     7    2    4 1
     8    4    5 1
     9    4   16 1
    10    4    6 1
    11    6    7 1
    12    6   25 1
    13    6   26 1
    14    7   12 ar
    15    7    8 ar
    16    8    9 ar
    17    8   27 1
    18    9   10 ar
    19    9   28 1
    20   10   11 ar
    21   10   21 1
    22   11   12 ar
    23   11   29 1
    24   12   13 1
    25   13   14 1
    26   13   20 1
    27   14   15 1
    28   14   30 1
    29   14   31 1
    30   15   16 1
    31   15   32 1
    32   15   33 1
    33   16   17 1
    34   16   43 1
    35   17   18 1
    36   17   34 1
    37   17   35 1
    38   18   19 2
    39   18   36 1
    40   19   37 1
    41   19   38 1
    42   20   39 1
    43   20   40 1
    44   20   41 1
    45   21   42 1
@<TRIPOS>MOLECULE
ZINC02555353
   43    45     0     0     0
SMALL
USER_CHARGES
allyl-dimethyl-BLAHol
@<TRIPOS>ATOM
      1 C1         -4.4769    4.9776   -2.0643 C.3       1 <0>        -0.1715
      2 C2         -3.1039    5.6489   -2.1358 C.3       1 <0>        -0.0927
      3 H1         -3.2180    6.7301   -2.0585 H         1 <0>         0.1207
      4 C3         -2.2214    5.1407   -0.9960 C.3       1 <0>         0.0357
      5 H2         -2.7626    5.3208   -0.0672 H         1 <0>         0.1324
      6 C4         -0.9318    5.9412   -0.9450 C.3       1 <0>        -0.0875
      7 C5         -0.3401    6.1464   -2.3136 C.ar      1 <0>        -0.1123
      8 C6          0.9555    6.6466   -2.3868 C.ar      1 <0>        -0.0943
      9 C7          1.5544    6.8686   -3.6079 C.ar      1 <0>        -0.1363
     10 C8          0.8603    6.5934   -4.7775 C.ar      1 <0>         0.1240
     11 C9         -0.4285    6.0918   -4.7053 C.ar      1 <0>        -0.1392
     12 C10        -1.0238    5.8635   -3.4739 C.ar      1 <0>        -0.0631
     13 C11        -2.4233    5.2941   -3.4621 C.3       1 <0>        -0.0190
     14 C12        -2.2962    3.7618   -3.5313 C.3       1 <0>        -0.1374
     15 C13        -1.3834    3.3174   -2.3830 C.3       1 <0>        -0.0065
     16 C14        -1.1763    3.2222    0.0251 C.3       1 <0>         0.0280
     17 C15        -1.1558    1.7153    0.0169 C.2       1 <0>        -0.2362
     18 C16        -0.0126    1.0758    0.0080 C.2       1 <0>        -0.1056
     19 C17        -3.2285    5.8217   -4.6513 C.3       1 <0>        -0.1463
     20 O1          1.4413    6.8152   -5.9859 O.3       1 <0>        -0.4966
     21 H3         -4.9477    5.2140   -1.1101 H         1 <0>         0.0752
     22 H4         -5.1027    5.3427   -2.8786 H         1 <0>         0.0883
     23 H5         -4.3584    3.8977   -2.1533 H         1 <0>         0.0557
     24 H6         -1.1361    6.9140   -0.4978 H         1 <0>         0.1211
     25 H7         -0.2098    5.4108   -0.3241 H         1 <0>         0.0948
     26 H8          1.4976    6.8628   -1.4780 H         1 <0>         0.1319
     27 H9          2.5615    7.2560   -3.6545 H         1 <0>         0.1367
     28 H10        -0.9728    5.8769   -5.6131 H         1 <0>         0.1377
     29 H11        -3.2793    3.3042   -3.4201 H         1 <0>         0.0972
     30 H12        -1.8589    3.4701   -4.4861 H         1 <0>         0.1129
     31 H13        -0.4089    3.7943   -2.4882 H         1 <0>         0.1328
     32 H14        -1.2630    2.2345   -2.4130 H         1 <0>         0.1268
     33 H15        -1.6111    3.5745    0.9605 H         1 <0>         0.1344
     34 H16        -0.1580    3.5999   -0.0672 H         1 <0>         0.1319
     35 H17        -2.0837    1.1627    0.0183 H         1 <0>         0.1340
     36 H18         0.0021   -0.0041    0.0020 H         1 <0>         0.1231
     37 H19         0.9153    1.6285    0.0021 H         1 <0>         0.1108
     38 H20        -2.7370    5.5320   -5.5801 H         1 <0>         0.0716
     39 H21        -4.2334    5.4003   -4.6253 H         1 <0>         0.0720
     40 H22        -3.2888    6.9086   -4.5958 H         1 <0>         0.0706
     41 H23         1.2889    7.7026   -6.3386 H         1 <0>         0.4007
     42 N1         -2.0156    3.6794   -1.0912 N.4       1 <0>        -0.3829
     43 H24        -2.9290    3.2143   -1.0315 H         1 <0>         0.4263
@<TRIPOS>BOND
     1    1    2 1
     2    1   21 1
     3    1   22 1
     4    1   23 1
     5    2    3 1
     6    2   13 1
     7    2    4 1
     8    4    5 1
     9    4    6 1
    10    4   42 1
    11    6    7 1
    12    6   24 1
    13    6   25 1
    14    7   12 ar
    15    7    8 ar
    16    8    9 ar
    17    8   26 1
    18    9   10 ar
    19    9   27 1
    20   10   11 ar
    21   10   20 1
    22   11   12 ar
    23   11   28 1
    24   12   13 1
    25   13   14 1
    26   13   19 1
    27   14   15 1
    28   14   29 1
    29   14   30 1
    30   15   31 1
    31   15   32 1
    32   15   42 1
    33   16   17 1
    34   16   33 1
    35   16   34 1
    36   16   42 1
    37   17   18 2
    38   17   35 1
    39   18   36 1
    40   18   37 1
    41   19   38 1
    42   19   39 1
    43   19   40 1
    44   20   41 1
    45   42   43 1
@<TRIPOS>MOLECULE
ZINC01553549
   42    43     0     0     0
SMALL
USER_CHARGES

@<TRIPOS>ATOM
      1 C1          3.7304    2.7228   -2.5053 C.3       1 <0>        -0.1071
      2 C2          3.1937    2.2004   -1.1975 C.ar      1 <0>        -0.0940
      3 C3          2.0511    1.4240   -1.1806 C.ar      1 <0>        -0.1103
      4 C4          1.5575    0.9429    0.0228 C.ar      1 <0>         0.0861
      5 C5          2.2078    1.2460    1.2100 C.ar      1 <0>        -0.1117
      6 C6          3.3532    2.0174    1.1925 C.ar      1 <0>        -0.1797
      7 C7          3.8470    2.4987   -0.0112 C.ar      1 <0>         0.1088
      8 O1          4.9714    3.2633   -0.0279 O.3       1 <0>        -0.3056
      9 C8          5.5260    3.6290    1.2373 C.3       1 <0>         0.1376
     10 H1          4.7205    3.7981    1.9519 H         1 <0>         0.0902
     11 C9          6.3478    4.9103    1.0827 C.3       1 <0>        -0.1403
     12 C10         5.4226    6.0662    0.6969 C.3       1 <0>        -0.0094
     13 C11         5.3543    8.4301    0.1775 C.3       1 <0>        -0.0434
     14 C12         6.4151    2.5191    1.7358 C.ar      1 <0>        -0.1358
     15 C13         7.2338    1.8400    0.8530 C.ar      1 <0>        -0.0908
     16 C14         8.0526    0.8247    1.3111 C.ar      1 <0>        -0.1177
     17 C15         8.0459    0.4825    2.6504 C.ar      1 <0>        -0.1026
     18 C16         7.2233    1.1581    3.5323 C.ar      1 <0>        -0.1162
     19 C17         6.4077    2.1762    3.0750 C.ar      1 <0>        -0.1079
     20 O2          0.4329    0.1786    0.0395 O.3       1 <0>        -0.4966
     21 H2          3.2861    3.6952   -2.7178 H         1 <0>         0.0686
     22 H3          4.8135    2.8249   -2.4386 H         1 <0>         0.0701
     23 H4          3.4796    2.0261   -3.3052 H         1 <0>         0.0706
     24 H5          1.5425    1.1914   -2.1045 H         1 <0>         0.1390
     25 H6          1.8206    0.8753    2.1476 H         1 <0>         0.1338
     26 H7          3.8618    2.2500    2.1164 H         1 <0>         0.1315
     27 H8          6.8428    5.1405    2.0261 H         1 <0>         0.1084
     28 H9          7.0973    4.7694    0.3039 H         1 <0>         0.1025
     29 H10         4.9275    5.8360   -0.2465 H         1 <0>         0.1389
     30 H11         4.6730    6.2071    1.4757 H         1 <0>         0.1317
     31 H12         5.9638    9.3279    0.0741 H         1 <0>         0.1264
     32 H13         4.8588    8.2163   -0.7695 H         1 <0>         0.1233
     33 H14         4.6043    8.5874    0.9526 H         1 <0>         0.1227
     34 H15         7.2363    2.1049   -0.1940 H         1 <0>         0.1255
     35 H16         8.6955    0.2971    0.6221 H         1 <0>         0.1278
     36 H17         8.6836   -0.3124    3.0078 H         1 <0>         0.1285
     37 H18         7.2181    0.8907    4.5786 H         1 <0>         0.1288
     38 H19         5.7650    2.7041    3.7640 H         1 <0>         0.1228
     39 H20         0.6007   -0.7700   -0.0443 H         1 <0>         0.3945
     40 N1          6.2222    7.2970    0.5498 N.4       1 <0>        -0.5191
     41 H21         6.9285    7.1566   -0.1821 H         1 <0>         0.4358
     42 H22         6.6889    7.5061    1.4402 H         1 <0>         0.4343
@<TRIPOS>BOND
     1    1    2 1
     2    1   21 1
     3    1   22 1
     4    1   23 1
     5    2    7 ar
     6    2    3 ar
     7    3    4 ar
     8    3   24 1
     9    4    5 ar
    10    4   20 1
    11    5    6 ar
    12    5   25 1
    13    6    7 ar
    14    6   26 1
    15    7    8 1
    16    8    9 1
    17    9   10 1
    18    9   11 1
    19    9   14 1
    20   11   12 1
    21   11   27 1
    22   11   28 1
    23   12   29 1
    24   12   30 1
    25   12   40 1
    26   13   31 1
    27   13   32 1
    28   13   33 1
    29   13   40 1
    30   14   19 ar
    31   14   15 ar
    32   15   16 ar
    33   15   34 1
    34   16   17 ar
    35   16   35 1
    36   17   18 ar
    37   17   36 1
    38   18   19 ar
    39   18   37 1
    40   19   38 1
    41   20   39 1
    42   40   41 1
    43   40   42 1
@<TRIPOS>MOLECULE
ZINC03875420
   45    49     0     0     0
SMALL
USER_CHARGES

@<TRIPOS>ATOM
      1 C1          0.1871    1.4217    0.0965 C.2       1 <0>        -0.1012
      2 C2          0.0818    0.1160    0.0982 C.2       1 <0>        -0.2375
      3 C3          1.3172   -0.7397   -0.0145 C.3       1 <0>         0.0223
      4 N1          1.3676   -1.6781    1.1146 N.4       1 <0>        -0.3776
      5 C4          0.2328   -2.5982    1.0205 C.3       1 <0>        -0.0143
      6 C5          0.2418   -3.6083    2.1783 C.3       1 <0>        -0.1227
      7 C6          1.5804   -4.3491    2.1135 C.3       1 <0>        -0.0575
      8 C7          1.7110   -4.9715    0.7459 C.ar      1 <0>        -0.1844
      9 C8          2.2775   -4.4063   -0.3712 C.ar      1 <0>        -0.0560
     10 C9          2.2629   -5.1888   -1.5118 C.ar      1 <0>        -0.1259
     11 C10         1.7378   -6.4708   -1.4697 C.ar      1 <0>        -0.0998
     12 C11         1.2215   -7.0515   -0.3130 C.ar      1 <0>         0.1064
     13 C12         1.2265   -6.2698    0.8463 C.ar      1 <0>         0.1514
     14 O1          0.8737   -6.5320    2.1259 O.3       1 <0>        -0.2739
     15 C13         1.6224   -5.5974    2.9871 C.3       1 <0>         0.1098
     16 H1          1.1810   -5.4536    3.9733 H         1 <0>         0.1503
     17 C14         3.0318   -6.2000    3.0118 C.3       1 <0>         0.1140
     18 H2          3.1649   -6.7248    3.9578 H         1 <0>         0.0812
     19 C15         4.1352   -5.2176    2.8617 C.2       1 <0>        -0.1574
     20 C16         4.0183   -3.9760    2.5115 C.2       1 <0>        -0.1302
     21 C17         2.6971   -3.3443    2.2737 C.3       1 <0>        -0.0482
     22 H3          2.4635   -2.7496    3.1568 H         1 <0>         0.1001
     23 C18         2.6550   -2.3903    1.0885 C.3       1 <0>         0.0513
     24 H4          3.4459   -1.6527    1.2245 H         1 <0>         0.1410
     25 C19         2.8726   -3.0395   -0.2677 C.3       1 <0>        -0.0921
     26 O2          3.1335   -7.1527    1.9516 O.3       1 <0>        -0.5426
     27 O3          0.7340   -8.3211   -0.3119 O.3       1 <0>        -0.4834
     28 H5          1.1592    1.8850    0.0144 H         1 <0>         0.1120
     29 H6         -0.6986    2.0350    0.1728 H         1 <0>         0.1237
     30 H7         -0.8903   -0.3473    0.1804 H         1 <0>         0.1340
     31 H8          1.2882   -1.2982   -0.9501 H         1 <0>         0.1381
     32 H9          2.2024   -0.1038    0.0018 H         1 <0>         0.1336
     33 H10        -0.6947   -2.0264    1.0520 H         1 <0>         0.1350
     34 H11         0.2872   -3.1376    0.0749 H         1 <0>         0.1329
     35 H12         0.1522   -3.0844    3.1299 H         1 <0>         0.0983
     36 H13        -0.5802   -4.3146    2.0623 H         1 <0>         0.1199
     37 H14         2.6612   -4.7997   -2.4372 H         1 <0>         0.1326
     38 H15         1.7286   -7.0502   -2.3812 H         1 <0>         0.1361
     39 H16         5.1343   -5.5735    3.0651 H         1 <0>         0.1230
     40 H17         4.9115   -3.3815    2.3883 H         1 <0>         0.1297
     41 H18         3.9443   -3.1096   -0.4540 H         1 <0>         0.1213
     42 H19         2.4277   -2.4053   -1.0345 H         1 <0>         0.1020
     43 H20         3.9964   -7.5851    1.8927 H         1 <0>         0.3861
     44 H21         1.3955   -8.9963   -0.1081 H         1 <0>         0.3961
     45 H22         1.2971   -1.1585    1.9766 H         1 <0>         0.4226
@<TRIPOS>BOND
     1    1    2 2
     2    1   28 1
     3    1   29 1
     4    2    3 1
     5    2   30 1
     6    3    4 1
     7    3   31 1
     8    3   32 1
     9    4   23 1
    10    4    5 1
    11    4   45 1
    12    5    6 1
    13    5   33 1
    14    5   34 1
    15    6    7 1
    16    6   35 1
    17    6   36 1
    18    7   15 1
    19    7   21 1
    20    7    8 1
    21    8   13 ar
    22    8    9 ar
    23    9   25 1
    24    9   10 ar
    25   10   11 ar
    26   10   37 1
    27   11   12 ar
    28   11   38 1
    29   12   13 ar
    30   12   27 1
    31   13   14 1
    32   14   15 1
    33   15   16 1
    34   15   17 1
    35   17   18 1
    36   17   19 1
    37   17   26 1
    38   19   20 2
    39   19   39 1
    40   20   21 1
    41   20   40 1
    42   21   22 1
    43   21   23 1
    44   23   24 1
    45   23   25 1
    46   25   41 1
    47   25   42 1
    48   26   43 1
    49   27   44 1
@<TRIPOS>MOLECULE
ZINC02517042
   59    62     0     0     0
SMALL
USER_CHARGES

@<TRIPOS>ATOM
      1 C1          0.2448    1.1223   -0.1423 C.3       1 <0>         0.0578
      2 N1          0.0632   -0.3228    0.0153 N.am      1 <0>        -0.6354
      3 C2          0.0106   -0.9126    1.3553 C.3       1 <0>         0.1233
      4 H1         -0.1318   -1.9901    1.2725 H         1 <0>         0.1267
      5 C3          1.3219   -0.6268    2.0899 C.3       1 <0>        -0.1215
      6 C4          1.2690   -1.2477    3.4876 C.3       1 <0>        -0.1292
      7 C5          0.0981   -0.6496    4.2664 C.3       1 <0>         0.1192
      8 C6          0.2992    0.8733    4.4050 C.3       1 <0>        -0.1537
      9 C7         -0.1962    1.1392    5.8531 C.3       1 <0>        -0.1581
     10 C8          0.2428   -0.1685    6.5593 C.3       1 <0>         0.0465
     11 O1          0.0492   -1.2054    5.5834 O.3       1 <0>        -0.3611
     12 C9         -1.2143   -0.9235    3.5328 C.3       1 <0>        -0.1428
     13 C10        -1.1559   -0.3028    2.1351 C.3       1 <0>         0.0163
     14 H2         -1.0118    0.7742    2.2213 H         1 <0>         0.1419
     15 N2         -2.4137   -0.5737    1.4263 N.4       1 <0>        -0.3874
     16 C11        -2.6982   -2.0315    1.4268 C.3       1 <0>        -0.0229
     17 C12        -4.2274   -2.0943    1.1852 C.3       1 <0>        -0.1411
     18 C13        -4.7546   -0.8847    1.9907 C.3       1 <0>        -0.1423
     19 C14        -3.5461    0.0584    2.1373 C.3       1 <0>        -0.0168
     20 C15        -0.0554   -1.1097   -1.0724 C.2       1 <0>         0.5138
     21 O2         -0.2057   -2.3061   -0.9419 O.2       1 <0>        -0.5097
     22 C16        -0.0013   -0.5030   -2.4509 C.3       1 <0>        -0.0979
     23 C17        -0.1571   -1.5889   -3.4841 C.ar      1 <0>        -0.0834
     24 C18         0.9584   -2.2422   -3.9738 C.ar      1 <0>        -0.1025
     25 C19         0.8155   -3.2383   -4.9216 C.ar      1 <0>        -0.1141
     26 C20        -0.4429   -3.5814   -5.3794 C.ar      1 <0>        -0.1106
     27 C21        -1.5585   -2.9288   -4.8890 C.ar      1 <0>        -0.1172
     28 C22        -1.4159   -1.9356   -3.9380 C.ar      1 <0>        -0.1080
     29 H3          1.3091    1.3508   -0.1986 H         1 <0>         0.0767
     30 H4         -0.2466    1.4525   -1.0575 H         1 <0>         0.0880
     31 H5         -0.1931    1.6388    0.7118 H         1 <0>         0.0720
     32 H6          2.1526   -1.0584    1.5317 H         1 <0>         0.0943
     33 H7          1.4627    0.4507    2.1760 H         1 <0>         0.0811
     34 H8          1.1351   -2.3260    3.4014 H         1 <0>         0.0821
     35 H9          2.2003   -1.0381    4.0138 H         1 <0>         0.0902
     36 H10         1.3517    1.1369    4.3003 H         1 <0>         0.0915
     37 H11        -0.3110    1.4129    3.6808 H         1 <0>         0.0768
     38 H12         0.3030    2.0061    6.2861 H         1 <0>         0.0923
     39 H13        -1.2794    1.2568    5.8823 H         1 <0>         0.0788
     40 H14         1.2928   -0.1097    6.8456 H         1 <0>         0.0705
     41 H15        -0.3793   -0.3525    7.4353 H         1 <0>         0.0943
     42 H16        -1.3648   -1.9996    3.4468 H         1 <0>         0.1017
     43 H17        -2.0411   -0.4844    4.0911 H         1 <0>         0.0986
     44 H18        -2.1605   -2.5287    0.6195 H         1 <0>         0.1406
     45 H19        -2.4425   -2.4730    2.3900 H         1 <0>         0.1402
     46 H20        -4.4554   -1.9809    0.1254 H         1 <0>         0.0967
     47 H21        -4.6411   -3.0254    1.5724 H         1 <0>         0.1181
     48 H22        -5.5578   -0.3885    1.4459 H         1 <0>         0.1057
     49 H23        -5.1044   -1.2067    2.9715 H         1 <0>         0.1050
     50 H24        -3.2990    0.1842    3.1915 H         1 <0>         0.1331
     51 H25        -3.7731    1.0254    1.6885 H         1 <0>         0.1313
     52 H26        -0.8081    0.2216   -2.5608 H         1 <0>         0.1056
     53 H27         0.9574   -0.0034   -2.5905 H         1 <0>         0.1108
     54 H28         1.9416   -1.9741   -3.6162 H         1 <0>         0.1196
     55 H29         1.6871   -3.7482   -5.3048 H         1 <0>         0.1262
     56 H30        -0.5545   -4.3591   -6.1204 H         1 <0>         0.1260
     57 H31        -2.5416   -3.1966   -5.2468 H         1 <0>         0.1246
     58 H32        -2.2877   -1.4283   -3.5521 H         1 <0>         0.1151
     59 H33        -2.3612   -0.2288    0.4795 H         1 <0>         0.4223
@<TRIPOS>BOND
     1    1    2 1
     2    1   29 1
     3    1   30 1
     4    1   31 1
     5    2    3 1
     6    2   20 am
     7    3    4 1
     8    3   13 1
     9    3    5 1
    10    5    6 1
    11    5   32 1
    12    5   33 1
    13    6    7 1
    14    6   34 1
    15    6   35 1
    16    7   11 1
    17    7    8 1
    18    7   12 1
    19    8    9 1
    20    8   36 1
    21    8   37 1
    22    9   10 1
    23    9   38 1
    24    9   39 1
    25   10   11 1
    26   10   40 1
    27   10   41 1
    28   12   13 1
    29   12   42 1
    30   12   43 1
    31   13   14 1
    32   13   15 1
    33   15   19 1
    34   15   16 1
    35   15   59 1
    36   16   17 1
    37   16   44 1
    38   16   45 1
    39   17   18 1
    40   17   46 1
    41   17   47 1
    42   18   19 1
    43   18   48 1
    44   18   49 1
    45   19   50 1
    46   19   51 1
    47   20   21 2
    48   20   22 1
    49   22   23 1
    50   22   52 1
    51   22   53 1
    52   23   28 ar
    53   23   24 ar
    54   24   25 ar
    55   24   54 1
    56   25   26 ar
    57   25   55 1
    58   26   27 ar
    59   26   56 1
    60   27   28 ar
    61   27   57 1
    62   28   58 1
@<TRIPOS>MOLECULE
ZINC00967952
   52    55     0     0     0
SMALL
USER_CHARGES
dimethyl-phenethyl-BLAHol
@<TRIPOS>ATOM
      1 C1         -2.2136    1.5781    1.2146 C.3       1 <0>        -0.1704
      2 C2         -0.7576    2.0472    1.2473 C.3       1 <0>        -0.0895
      3 H1         -0.2714    1.6763    2.1496 H         1 <0>         0.1211
      4 C3         -0.6992    3.5859    1.2106 C.3       1 <0>         0.0354
      5 H2         -1.3093    3.9605    2.0325 H         1 <0>         0.1310
      6 C4          0.7287    4.0487    1.4425 C.3       1 <0>        -0.0876
      7 C5          1.7193    3.2475    0.6413 C.ar      1 <0>        -0.1116
      8 C6          3.0262    3.7186    0.5763 C.ar      1 <0>        -0.0940
      9 C7          3.9929    3.0151   -0.1091 C.ar      1 <0>        -0.1359
     10 C8          3.6620    1.8256   -0.7424 C.ar      1 <0>         0.1237
     11 C9          2.3586    1.3607   -0.6859 C.ar      1 <0>        -0.1390
     12 C10         1.3885    2.0758   -0.0001 C.ar      1 <0>        -0.0638
     13 C11        -0.0187    1.5258    0.0104 C.3       1 <0>        -0.0199
     14 C12        -0.7314    2.0643   -1.2429 C.3       1 <0>        -0.1359
     15 C13        -0.6137    3.5926   -1.2269 C.3       1 <0>        -0.0120
     16 C14        -1.2456    5.5891   -0.0161 C.3       1 <0>        -0.0064
     17 C15        -2.0618    6.1140   -1.1990 C.3       1 <0>        -0.1002
     18 C16        -2.0443    7.6208   -1.1923 C.ar      1 <0>        -0.1073
     19 C17        -3.0230    8.3204   -0.5115 C.ar      1 <0>        -0.1100
     20 C18        -3.0042    9.7026   -0.5013 C.ar      1 <0>        -0.1137
     21 C19        -2.0123   10.3853   -1.1802 C.ar      1 <0>        -0.1044
     22 C20        -1.0368    9.6858   -1.8657 C.ar      1 <0>        -0.1139
     23 C21        -1.0526    8.3036   -1.8716 C.ar      1 <0>        -0.1101
     24 C22         0.0021   -0.0041    0.0020 C.3       1 <0>        -0.1474
     25 O1          4.6108    1.1211   -1.4134 O.3       1 <0>        -0.4948
     26 H3         -2.2442    0.4886    1.2082 H         1 <0>         0.0886
     27 H4         -2.7353    1.9511    2.0960 H         1 <0>         0.0753
     28 H5         -2.6984    1.9605    0.3164 H         1 <0>         0.0547
     29 H6          0.9660    3.9485    2.5017 H         1 <0>         0.1211
     30 H7          0.8101    5.0981    1.1593 H         1 <0>         0.0952
     31 H8          3.2860    4.6445    1.0678 H         1 <0>         0.1318
     32 H9          5.0054    3.3884   -0.1529 H         1 <0>         0.1367
     33 H10         2.0963    0.4363   -1.1790 H         1 <0>         0.1378
     34 H11        -0.2544    1.6665   -2.1386 H         1 <0>         0.1132
     35 H12        -1.7821    1.7746   -1.2234 H         1 <0>         0.0973
     36 H13        -1.1000    4.0038   -2.1115 H         1 <0>         0.1278
     37 H14         0.4389    3.8759   -1.2261 H         1 <0>         0.1348
     38 H15        -1.6797    5.9534    0.9150 H         1 <0>         0.1310
     39 H16        -0.2173    5.9409   -0.0996 H         1 <0>         0.1342
     40 H17        -1.6277    5.7497   -2.1301 H         1 <0>         0.0945
     41 H18        -3.0901    5.7622   -1.1155 H         1 <0>         0.0942
     42 H19        -3.8003    7.7871    0.0156 H         1 <0>         0.1240
     43 H20        -3.7665   10.2491    0.0340 H         1 <0>         0.1294
     44 H21        -1.9997   11.4652   -1.1754 H         1 <0>         0.1295
     45 H22        -0.2621   10.2192   -2.3965 H         1 <0>         0.1291
     46 H23        -0.2905    7.7571   -2.4072 H         1 <0>         0.1230
     47 H24         0.5293   -0.3651    0.8851 H         1 <0>         0.0711
     48 H25        -1.0205   -0.3814    0.0098 H         1 <0>         0.0721
     49 H26         0.5123   -0.3556   -0.8948 H         1 <0>         0.0713
     50 H27         4.6944    1.3631   -2.3459 H         1 <0>         0.3986
     51 N1         -1.3069    4.1207   -0.0256 N.4       1 <0>        -0.3855
     52 H28        -2.2910    3.8300   -0.0603 H         1 <0>         0.4257
@<TRIPOS>BOND
     1    1    2 1
     2    1   26 1
     3    1   27 1
     4    1   28 1
     5    2    3 1
     6    2   13 1
     7    2    4 1
     8    4    5 1
     9    4    6 1
    10    4   51 1
    11    6    7 1
    12    6   29 1
    13    6   30 1
    14    7   12 ar
    15    7    8 ar
    16    8    9 ar
    17    8   31 1
    18    9   10 ar
    19    9   32 1
    20   10   11 ar
    21   10   25 1
    22   11   12 ar
    23   11   33 1
    24   12   13 1
    25   13   14 1
    26   13   24 1
    27   14   15 1
    28   14   34 1
    29   14   35 1
    30   15   36 1
    31   15   37 1
    32   15   51 1
    33   16   17 1
    34   16   38 1
    35   16   39 1
    36   16   51 1
    37   17   18 1
    38   17   40 1
    39   17   41 1
    40   18   23 ar
    41   18   19 ar
    42   19   20 ar
    43   19   42 1
    44   20   21 ar
    45   20   43 1
    46   21   22 ar
    47   21   44 1
    48   22   23 ar
    49   22   45 1
    50   23   46 1
    51   24   47 1
    52   24   48 1
    53   24   49 1
    54   25   50 1
    55   51   52 1
@<TRIPOS>MOLECULE
ZINC01481896
   52    55     0     0     0
SMALL
USER_CHARGES
dimethyl-phenethyl-BLAHol
@<TRIPOS>ATOM
      1 C1         -6.1807    6.7631   -4.0595 C.3       1 <0>        -0.1546
      2 C2         -5.9468    6.1156   -2.6931 C.3       1 <0>        -0.0889
      3 H1         -6.7377    5.3945   -2.4870 H         1 <0>         0.1007
      4 C3         -4.5906    5.4108   -2.6819 C.3       1 <0>         0.0346
      5 H2         -4.6349    4.5919   -3.3999 H         1 <0>         0.1316
      6 C4         -3.5092    6.3650   -3.1582 C.3       1 <0>        -0.0897
      7 C5         -3.6465    7.7289   -2.5364 C.ar      1 <0>        -0.1107
      8 C6         -2.5909    8.6197   -2.6985 C.ar      1 <0>        -0.0940
      9 C7         -2.6576    9.8912   -2.1710 C.ar      1 <0>        -0.1365
     10 C8         -3.7874   10.2892   -1.4705 C.ar      1 <0>         0.1242
     11 C9         -4.8366    9.4006   -1.3038 C.ar      1 <0>        -0.1399
     12 C10        -4.7623    8.1209   -1.8326 C.ar      1 <0>        -0.0594
     13 C11        -5.9342    7.1946   -1.6050 C.3       1 <0>        -0.0212
     14 C12        -5.7094    6.4962   -0.2519 C.3       1 <0>        -0.1336
     15 C13        -4.3282    5.8326   -0.2934 C.3       1 <0>        -0.0147
     16 C14        -3.0120    4.1248   -1.3898 C.3       1 <0>        -0.0078
     17 C15        -2.6934    3.6179    0.0181 C.3       1 <0>        -0.1009
     18 C16        -1.3782    2.8822    0.0015 C.ar      1 <0>        -0.1072
     19 C17        -1.3496    1.5232   -0.2498 C.ar      1 <0>        -0.1104
     20 C18        -0.1437    0.8474   -0.2593 C.ar      1 <0>        -0.1138
     21 C19         1.0344    1.5325   -0.0284 C.ar      1 <0>        -0.1047
     22 C20         1.0063    2.8926    0.2172 C.ar      1 <0>        -0.1137
     23 C21        -0.2000    3.5675    0.2320 C.ar      1 <0>        -0.1103
     24 C22        -7.2542    7.9682   -1.5991 C.3       1 <0>        -0.1466
     25 O1         -3.8640   11.5429   -0.9518 O.3       1 <0>        -0.4967
     26 H3         -6.1665    5.9950   -4.8327 H         1 <0>         0.0685
     27 H4         -7.1486    7.2644   -4.0631 H         1 <0>         0.0798
     28 H5         -5.3937    7.4911   -4.2561 H         1 <0>         0.0721
     29 H6         -2.5339    5.9536   -2.8983 H         1 <0>         0.0949
     30 H7         -3.5740    6.4616   -4.2420 H         1 <0>         0.1216
     31 H8         -1.7105    8.3122   -3.2433 H         1 <0>         0.1315
     32 H9         -1.8330   10.5761   -2.3028 H         1 <0>         0.1364
     33 H10        -5.7178    9.7063   -0.7593 H         1 <0>         0.1372
     34 H11        -5.7423    7.2305    0.5529 H         1 <0>         0.1139
     35 H12        -6.4788    5.7404   -0.0939 H         1 <0>         0.0945
     36 H13        -4.1336    5.3388    0.6586 H         1 <0>         0.1305
     37 H14        -3.5660    6.5910   -0.4718 H         1 <0>         0.1348
     38 H15        -2.2224    4.7996   -1.7204 H         1 <0>         0.1346
     39 H16        -3.0774    3.2791   -2.0744 H         1 <0>         0.1304
     40 H17        -3.4830    2.9431    0.3487 H         1 <0>         0.0945
     41 H18        -2.6280    4.4636    0.7027 H         1 <0>         0.0961
     42 H19        -2.2697    0.9887   -0.4346 H         1 <0>         0.1238
     43 H20        -0.1217   -0.2152   -0.4515 H         1 <0>         0.1292
     44 H21         1.9769    1.0053   -0.0403 H         1 <0>         0.1295
     45 H22         1.9268    3.4279    0.3973 H         1 <0>         0.1290
     46 H23        -0.2220    4.6301    0.4239 H         1 <0>         0.1230
     47 H24        -8.0775    7.2806   -1.4053 H         1 <0>         0.0702
     48 H25        -7.2257    8.7297   -0.8197 H         1 <0>         0.0711
     49 H26        -7.3999    8.4455   -2.5682 H         1 <0>         0.0733
     50 H27        -4.2504   12.1944   -1.5530 H         1 <0>         0.4006
     51 N1         -4.3150    4.8038   -1.3632 N.4       1 <0>        -0.3844
     52 H28        -5.0456    4.1112   -1.1613 H         1 <0>         0.4275
@<TRIPOS>BOND
     1    1    2 1
     2    1   26 1
     3    1   27 1
     4    1   28 1
     5    2    3 1
     6    2   13 1
     7    2    4 1
     8    4    5 1
     9    4    6 1
    10    4   51 1
    11    6    7 1
    12    6   29 1
    13    6   30 1
    14    7   12 ar
    15    7    8 ar
    16    8    9 ar
    17    8   31 1
    18    9   10 ar
    19    9   32 1
    20   10   11 ar
    21   10   25 1
    22   11   12 ar
    23   11   33 1
    24   12   13 1
    25   13   14 1
    26   13   24 1
    27   14   15 1
    28   14   34 1
    29   14   35 1
    30   15   36 1
    31   15   37 1
    32   15   51 1
    33   16   17 1
    34   16   38 1
    35   16   39 1
    36   16   51 1
    37   17   18 1
    38   17   40 1
    39   17   41 1
    40   18   23 ar
    41   18   19 ar
    42   19   20 ar
    43   19   42 1
    44   20   21 ar
    45   20   43 1
    46   21   22 ar
    47   21   44 1
    48   22   23 ar
    49   22   45 1
    50   23   46 1
    51   24   47 1
    52   24   48 1
    53   24   49 1
    54   25   50 1
    55   51   52 1
@<TRIPOS>MOLECULE
ZINC00001600
   40    41     0     0     0
SMALL
USER_CHARGES
1-[4-(3-hydroxyphenyl)-1-methyl-4-piperidyl]propan-1-one
@<TRIPOS>ATOM
      1 C1         -2.6767    6.0824    2.8361 C.3       1 <0>        -0.1504
      2 C2         -2.2062    5.4601    1.5200 C.3       1 <0>        -0.1788
      3 C3         -0.7694    5.8400    1.2701 C.2       1 <0>         0.3647
      4 O1         -0.1824    6.5366    2.0629 O.2       1 <0>        -0.4337
      5 C4         -0.0652    5.3506    0.0309 C.3       1 <0>        -0.0694
      6 C5         -0.8008    5.8613   -1.2111 C.3       1 <0>        -0.1332
      7 C6         -0.7596    7.3911   -1.2294 C.3       1 <0>        -0.0080
      8 C7          1.3493    7.4070   -0.0357 C.3       1 <0>        -0.0137
      9 C8          1.3723    5.8777    0.0174 C.3       1 <0>        -0.1324
     10 C9          0.7143    9.3041   -1.3990 C.3       1 <0>        -0.0423
     11 C10        -0.0492    3.8437    0.0227 C.ar      1 <0>        -0.0752
     12 C11         1.1560    3.1657    0.0080 C.ar      1 <0>        -0.1229
     13 C12         1.1741    1.7834    0.0004 C.ar      1 <0>        -0.0914
     14 C13        -0.0126    1.0758    0.0080 C.ar      1 <0>        -0.1325
     15 C14        -1.2228    1.7536    0.0174 C.ar      1 <0>         0.1202
     16 C15        -1.2382    3.1410    0.0302 C.ar      1 <0>        -0.1495
     17 O2         -2.3914    1.0598    0.0191 O.3       1 <0>        -0.4957
     18 H1         -2.5931    7.1675    2.7753 H         1 <0>         0.0609
     19 H2         -3.7159    5.8076    3.0169 H         1 <0>         0.0711
     20 H3         -2.0564    5.7154    3.6538 H         1 <0>         0.0652
     21 H4         -2.7754    5.7968    0.7699 H         1 <0>         0.0927
     22 H5         -2.2898    4.3750    1.5808 H         1 <0>         0.1132
     23 H6         -0.3148    5.4743   -2.1067 H         1 <0>         0.1072
     24 H7         -1.8372    5.5246   -1.1844 H         1 <0>         0.1214
     25 H8         -1.2589    7.7776   -0.3409 H         1 <0>         0.1260
     26 H9         -1.2691    7.7574   -2.1206 H         1 <0>         0.1395
     27 H10         0.8401    7.7934    0.8472 H         1 <0>         0.1453
     28 H11         2.3714    7.7850   -0.0601 H         1 <0>         0.1343
     29 H12         1.8876    5.5527    0.9212 H         1 <0>         0.1213
     30 H13         1.8937    5.4905   -0.8580 H         1 <0>         0.1015
     31 H14         1.7585    9.6057   -1.4806 H         1 <0>         0.1239
     32 H15         0.1786    9.6018   -2.3004 H         1 <0>         0.1234
     33 H16         0.2633    9.7869   -0.5321 H         1 <0>         0.1226
     34 H17         2.0847    3.7171    0.0021 H         1 <0>         0.1309
     35 H18         2.1166    1.2562   -0.0110 H         1 <0>         0.1360
     36 H19         0.0021   -0.0041    0.0020 H         1 <0>         0.1372
     37 H20        -2.1792    3.6709    0.0421 H         1 <0>         0.1380
     38 H21        -2.7254    0.8543    0.9030 H         1 <0>         0.3988
     39 N1          0.6506    7.8339   -1.2666 N.4       1 <0>        -0.3950
     40 H22         1.1128    7.4058   -2.0773 H         1 <0>         0.4288
@<TRIPOS>BOND
     1    1    2 1
     2    1   18 1
     3    1   19 1
     4    1   20 1
     5    2    3 1
     6    2   21 1
     7    2   22 1
     8    3    4 2
     9    3    5 1
    10    5    9 1
    11    5    6 1
    12    5   11 1
    13    6    7 1
    14    6   23 1
    15    6   24 1
    16    7   25 1
    17    7   26 1
    18    7   39 1
    19    8    9 1
    20    8   27 1
    21    8   28 1
    22    8   39 1
    23    9   29 1
    24    9   30 1
    25   10   31 1
    26   10   32 1
    27   10   33 1
    28   10   39 1
    29   11   16 ar
    30   11   12 ar
    31   12   13 ar
    32   12   34 1
    33   13   14 ar
    34   13   35 1
    35   14   15 ar
    36   14   36 1
    37   15   16 ar
    38   15   17 1
    39   16   37 1
    40   17   38 1
    41   39   40 1
@<TRIPOS>MOLECULE
ZINC03874479
   58    65     0     0     0
SMALL
USER_CHARGES
cyclopropylmethylBLAHdiol
@<TRIPOS>ATOM
      1 C1          2.9104    3.8420   -0.0057 C.ar      1 <0>        -0.1324
      2 C2          3.3419    2.5263   -0.0286 C.ar      1 <0>        -0.0968
      3 C3          2.4593    1.4607   -0.0259 C.ar      1 <0>        -0.1183
      4 C4          1.1008    1.7658    0.0010 C.ar      1 <0>         0.0897
      5 C5          0.6593    3.1181    0.0309 C.ar      1 <0>        -0.0740
      6 C6          1.5800    4.1739    0.0245 C.ar      1 <0>        -0.0773
      7 C7         -0.7700    3.0646    0.0598 C.2       1 <0>        -0.1678
      8 C8         -1.1262    1.7230    0.0162 C.2       1 <0>         0.0837
      9 N1         -0.0111    0.9658    0.0074 N.pl3     1 <0>        -0.5457
     10 H1          0.0021   -0.0041    0.0020 H         1 <0>         0.4221
     11 C9         -2.5816    1.5112   -0.0422 C.3       1 <0>         0.1626
     12 H2         -2.9244    2.0520   -0.9243 H         1 <0>         0.0952
     13 C10        -3.2046    2.2676    1.1373 C.3       1 <0>        -0.0563
     14 C11        -3.1720    1.6846    2.5425 C.3       1 <0>        -0.0910
     15 C12        -4.2373    2.5141    3.2967 C.3       1 <0>         0.0044
     16 C13        -3.9101    4.5273    1.8149 C.3       1 <0>         0.0571
     17 H3         -3.6274    5.5791    1.8584 H         1 <0>         0.1526
     18 C14        -2.7672    3.7006    1.2598 C.3       1 <0>         0.1355
     19 C15        -1.8510    4.1372    0.1494 C.3       1 <0>        -0.0443
     20 O1         -1.8811    3.6185    2.3779 O.3       1 <0>        -0.5614
     21 C16        -5.2504    4.4002    1.1160 C.3       1 <0>        -0.0933
     22 C17        -5.6062    3.0317    0.6566 C.ar      1 <0>        -0.0633
     23 C18        -4.6108    2.0940    0.6387 C.ar      1 <0>        -0.1732
     24 C19        -4.6380    0.8223    0.0560 C.ar      1 <0>         0.0717
     25 C20        -5.8678    0.3938   -0.4305 C.ar      1 <0>         0.1324
     26 C21        -6.9291    1.2962   -0.3389 C.ar      1 <0>        -0.1100
     27 C22        -6.8205    2.5836    0.1710 C.ar      1 <0>        -0.0947
     28 O2         -6.0291   -0.8442   -0.9698 O.3       1 <0>        -0.4801
     29 O3         -3.3534    0.3148    0.0205 O.3       1 <0>        -0.2585
     30 C23        -5.1376    4.6559    3.9286 C.3       1 <0>         0.0229
     31 C24        -5.1135    4.2203    5.3951 C.3       1 <0>        -0.2112
     32 C25        -6.3404    3.4811    5.9328 C.3       1 <0>        -0.1672
     33 C26        -6.0703    4.9267    6.3577 C.3       1 <0>        -0.1500
     34 H4          3.6459    4.6329   -0.0115 H         1 <0>         0.1235
     35 H5          4.4028    2.3253   -0.0496 H         1 <0>         0.1274
     36 H6          2.8081    0.4388   -0.0442 H         1 <0>         0.1326
     37 H7          1.2564    5.2041    0.0422 H         1 <0>         0.1293
     38 H8         -3.4418    0.6286    2.5279 H         1 <0>         0.1075
     39 H9         -2.1901    1.8240    2.9948 H         1 <0>         0.1214
     40 H10        -4.2192    2.2407    4.3517 H         1 <0>         0.1228
     41 H11        -5.2110    2.2438    2.8880 H         1 <0>         0.1230
     42 H12        -1.4044    5.1025    0.3877 H         1 <0>         0.1001
     43 H13        -2.4004    4.1970   -0.7902 H         1 <0>         0.0913
     44 H14        -1.4455    4.4537    2.5967 H         1 <0>         0.3794
     45 H15        -5.2463    5.0605    0.2487 H         1 <0>         0.1291
     46 H16        -6.0293    4.7446    1.7963 H         1 <0>         0.1068
     47 H17        -7.8984    0.9720   -0.6879 H         1 <0>         0.1444
     48 H18        -7.6832    3.2331    0.1888 H         1 <0>         0.1420
     49 H19        -6.2794   -1.5231   -0.3283 H         1 <0>         0.4014
     50 H20        -4.9723    5.7314    3.8662 H         1 <0>         0.1285
     51 H21        -6.1063    4.4113    3.4928 H         1 <0>         0.1331
     52 H22        -4.1382    3.9245    5.7816 H         1 <0>         0.1236
     53 H23        -7.1648    3.3051    5.2418 H         1 <0>         0.1050
     54 H24        -6.1724    2.6992    6.6734 H         1 <0>         0.1089
     55 H25        -5.7246    5.0952    7.3776 H         1 <0>         0.1113
     56 H26        -6.7166    5.7020    5.9462 H         1 <0>         0.1072
     57 N2         -4.0325    3.9897    3.2451 N.4       1 <0>        -0.3911
     58 H27        -3.1604    4.2067    3.7417 H         1 <0>         0.4282
@<TRIPOS>BOND
     1    1    6 ar
     2    1    2 ar
     3    1   34 1
     4    2    3 ar
     5    2   35 1
     6    3    4 ar
     7    3   36 1
     8    4    9 1
     9    4    5 ar
    10    5    6 ar
    11    5    7 1
    12    6   37 1
    13    7   19 1
    14    7    8 2
    15    8    9 1
    16    8   11 1
    17    9   10 1
    18   11   12 1
    19   11   29 1
    20   11   13 1
    21   13   18 1
    22   13   23 1
    23   13   14 1
    24   14   15 1
    25   14   38 1
    26   14   39 1
    27   15   40 1
    28   15   41 1
    29   15   57 1
    30   16   17 1
    31   16   18 1
    32   16   21 1
    33   16   57 1
    34   18   19 1
    35   18   20 1
    36   19   42 1
    37   19   43 1
    38   20   44 1
    39   21   22 1
    40   21   45 1
    41   21   46 1
    42   22   27 ar
    43   22   23 ar
    44   23   24 ar
    45   24   25 ar
    46   24   29 1
    47   25   26 ar
    48   25   28 1
    49   26   27 ar
    50   26   47 1
    51   27   48 1
    52   28   49 1
    53   30   31 1
    54   30   50 1
    55   30   51 1
    56   30   57 1
    57   31   33 1
    58   31   32 1
    59   31   52 1
    60   32   33 1
    61   32   53 1
    62   32   54 1
    63   33   55 1
    64   33   56 1
    65   57   58 1
@<TRIPOS>MOLECULE
ZINC03812984
   43    46     0     0     0
SMALL
USER_CHARGES
methylBLAHol
@<TRIPOS>ATOM
      1 C1         -2.7983    1.5746    2.5117 C.3       1 <0>        -0.0492
      2 C2         -2.8836    1.5590    0.0946 C.3       1 <0>        -0.0137
      3 C3         -2.1794    1.0201   -1.2058 C.3       1 <0>        -0.1260
      4 C4         -0.7576    1.5994   -1.2263 C.3       1 <0>        -0.0184
      5 C5         -0.0471    1.1494   -2.4971 C.3       1 <0>        -0.1096
      6 C6          1.3879    1.6819   -2.5009 C.3       1 <0>        -0.1248
      7 C7          2.1311    1.1511   -1.2732 C.3       1 <0>        -0.1197
      8 C8          1.4200    1.6218   -0.0028 C.3       1 <0>        -0.1140
      9 C9         -0.0127    1.0858    0.0080 C.3       1 <0>        -0.0868
     10 H1          0.0021   -0.0041    0.0020 H         1 <0>         0.1005
     11 C10        -0.7376    1.5857    1.2587 C.3       1 <0>         0.0368
     12 H2         -0.2470    1.1454    2.1268 H         1 <0>         0.1322
     13 C11        -0.6296    3.0942    1.3559 C.3       1 <0>        -0.0906
     14 C12        -0.8275    3.7825    0.0324 C.ar      1 <0>        -0.1118
     15 C13        -0.8645    3.1019   -1.1649 C.ar      1 <0>        -0.0525
     16 C14        -1.0059    3.7971   -2.3554 C.ar      1 <0>        -0.1389
     17 C15        -1.1227    5.1776   -2.3507 C.ar      1 <0>         0.1246
     18 C16        -1.1001    5.8624   -1.1445 C.ar      1 <0>        -0.1373
     19 C17        -0.9542    5.1667    0.0366 C.ar      1 <0>        -0.0934
     20 O1         -1.2582    5.8565   -3.5201 O.3       1 <0>        -0.4965
     21 H3         -2.7772    2.6625    2.5756 H         1 <0>         0.1254
     22 H4         -3.8328    1.2313    2.5006 H         1 <0>         0.1236
     23 H5         -2.2838    1.1498    3.3736 H         1 <0>         0.1231
     24 H6         -3.8977    1.1640    0.1553 H         1 <0>         0.1274
     25 H7         -2.9199    2.6475    0.0505 H         1 <0>         0.1324
     26 H8         -2.7194    1.3346   -2.0989 H         1 <0>         0.1139
     27 H9         -2.1344   -0.0682   -1.1643 H         1 <0>         0.0929
     28 H10        -0.5796    1.5352   -3.3664 H         1 <0>         0.0775
     29 H11        -0.0300    0.0602   -2.5361 H         1 <0>         0.0764
     30 H12         1.3713    2.7714   -2.4727 H         1 <0>         0.0675
     31 H13         1.8966    1.3495   -3.4057 H         1 <0>         0.0729
     32 H14         3.1542    1.5269   -1.2774 H         1 <0>         0.0739
     33 H15         2.1443    0.0615   -1.2996 H         1 <0>         0.0675
     34 H16         1.4005    2.7114    0.0201 H         1 <0>         0.0786
     35 H17         1.9539    1.2495    0.8716 H         1 <0>         0.0744
     36 H18         0.3629    3.3369    1.7355 H         1 <0>         0.1193
     37 H19        -1.3763    3.4612    2.0602 H         1 <0>         0.0962
     38 H20        -1.0247    3.2597   -3.2921 H         1 <0>         0.1368
     39 H21        -1.1963    6.9380   -1.1308 H         1 <0>         0.1364
     40 H22        -0.9386    5.7022    0.9743 H         1 <0>         0.1313
     41 H23        -0.4191    6.1273   -3.9172 H         1 <0>         0.4003
     42 N1         -2.1333    1.0997    1.2905 N.4       1 <0>        -0.3877
     43 H24        -2.1230    0.0730    1.2965 H         1 <0>         0.4294
@<TRIPOS>BOND
     1    1   21 1
     2    1   22 1
     3    1   23 1
     4    1   42 1
     5    2    3 1
     6    2   24 1
     7    2   25 1
     8    2   42 1
     9    3    4 1
    10    3   26 1
    11    3   27 1
    12    4    9 1
    13    4   15 1
    14    4    5 1
    15    5    6 1
    16    5   28 1
    17    5   29 1
    18    6    7 1
    19    6   30 1
    20    6   31 1
    21    7    8 1
    22    7   32 1
    23    7   33 1
    24    8    9 1
    25    8   34 1
    26    8   35 1
    27    9   10 1
    28    9   11 1
    29   11   12 1
    30   11   13 1
    31   11   42 1
    32   13   14 1
    33   13   36 1
    34   13   37 1
    35   14   19 ar
    36   14   15 ar
    37   15   16 ar
    38   16   17 ar
    39   16   38 1
    40   17   18 ar
    41   17   20 1
    42   18   19 ar
    43   18   39 1
    44   19   40 1
    45   20   41 1
    46   42   43 1
@<TRIPOS>MOLECULE
ZINC00001681
   40    41     0     0     0
SMALL
USER_CHARGES
ethyl 1-methyl-4-phenyl-piperidine-4-carboxylate
@<TRIPOS>ATOM
      1 C1          3.5677    2.0652   -0.0209 C.3       1 <0>        -0.1571
      2 C2          2.3672    1.1168   -0.0145 C.3       1 <0>         0.0617
      3 O1          1.1389    1.8910    0.0013 O.3       1 <0>        -0.3457
      4 C3         -0.0143    1.2041    0.0087 C.2       1 <0>         0.4691
      5 O2          0.0021   -0.0041    0.0020 O.2       1 <0>        -0.4997
      6 C4         -1.3295    1.9397    0.0189 C.3       1 <0>        -0.0092
      7 C5         -1.4192    2.8101    1.2755 C.3       1 <0>        -0.1353
      8 C6         -1.3795    1.9111    2.5150 C.3       1 <0>        -0.0071
      9 C7         -2.4095    0.0867    1.2971 C.3       1 <0>        -0.0155
     10 C8         -2.4806    0.9300    0.0221 C.3       1 <0>        -0.1304
     11 C9         -2.5751    0.1785    3.7106 C.3       1 <0>        -0.0419
     12 C10        -1.4281    2.8121   -1.2060 C.ar      1 <0>        -0.1077
     13 C11        -2.4513    2.6149   -2.1144 C.ar      1 <0>        -0.1098
     14 C12        -2.5445    3.4182   -3.2355 C.ar      1 <0>        -0.1151
     15 C13        -1.6086    4.4119   -3.4536 C.ar      1 <0>        -0.1002
     16 C14        -0.5824    4.6057   -2.5478 C.ar      1 <0>        -0.1135
     17 C15        -0.4922    3.8058   -1.4241 C.ar      1 <0>        -0.0965
     18 H1          3.5259    2.6984   -0.9071 H         1 <0>         0.0712
     19 H2          3.5429    2.6889    0.8727 H         1 <0>         0.0689
     20 H3          4.4898    1.4841   -0.0328 H         1 <0>         0.0877
     21 H4          2.4091    0.4836    0.8717 H         1 <0>         0.0733
     22 H5          2.3921    0.4932   -0.9082 H         1 <0>         0.0766
     23 H6         -0.5779    3.5027    1.2993 H         1 <0>         0.1270
     24 H7         -2.3533    3.3716    1.2633 H         1 <0>         0.1104
     25 H8         -1.4581    2.5258    3.4117 H         1 <0>         0.1406
     26 H9         -0.4392    1.3601    2.5336 H         1 <0>         0.1245
     27 H10        -3.2361   -0.6236    1.3093 H         1 <0>         0.1363
     28 H11        -1.4643   -0.4555    1.3217 H         1 <0>         0.1477
     29 H12        -3.4314    1.4620   -0.0098 H         1 <0>         0.1089
     30 H13        -2.3971    0.2803   -0.8491 H         1 <0>         0.1247
     31 H14        -1.6814   -0.4384    3.8039 H         1 <0>         0.1222
     32 H15        -2.6420    0.8527    4.5645 H         1 <0>         0.1236
     33 H16        -3.4571   -0.4613    3.6829 H         1 <0>         0.1244
     34 H17        -3.1799    1.8356   -1.9463 H         1 <0>         0.1276
     35 H18        -3.3460    3.2666   -3.9433 H         1 <0>         0.1307
     36 H19        -1.6789    5.0366   -4.3317 H         1 <0>         0.1305
     37 H20         0.1490    5.3818   -2.7184 H         1 <0>         0.1310
     38 H21         0.3097    3.9569   -0.7166 H         1 <0>         0.1329
     39 N1         -2.5265    0.9792    2.4698 N.4       1 <0>        -0.3958
     40 H22        -3.3940    1.5225    2.3895 H         1 <0>         0.4289
@<TRIPOS>BOND
     1    1    2 1
     2    1   18 1
     3    1   19 1
     4    1   20 1
     5    2    3 1
     6    2   21 1
     7    2   22 1
     8    3    4 1
     9    4    5 2
    10    4    6 1
    11    6   10 1
    12    6    7 1
    13    6   12 1
    14    7    8 1
    15    7   23 1
    16    7   24 1
    17    8   25 1
    18    8   26 1
    19    8   39 1
    20    9   10 1
    21    9   27 1
    22    9   28 1
    23    9   39 1
    24   10   29 1
    25   10   30 1
    26   11   31 1
    27   11   32 1
    28   11   33 1
    29   11   39 1
    30   12   17 ar
    31   12   13 ar
    32   13   14 ar
    33   13   34 1
    34   14   15 ar
    35   14   35 1
    36   15   16 ar
    37   15   36 1
    38   16   17 ar
    39   16   37 1
    40   17   38 1
    41   39   40 1
@<TRIPOS>MOLECULE
ZINC01842633
   41    42     0     0     0
SMALL
USER_CHARGES

@<TRIPOS>ATOM
      1 C1          0.0943    1.4874    0.0010 C.3       1 <0>        -0.1118
      2 C2          0.2588   -0.0106    0.0133 C.ar      1 <0>        -0.1080
      3 C3          0.4584   -0.6940   -1.1708 C.ar      1 <0>        -0.0766
      4 C4          0.6089   -2.0681   -1.1602 C.ar      1 <0>        -0.1439
      5 C5          0.5606   -2.7622    0.0349 C.ar      1 <0>        -0.0842
      6 C6          0.3617   -2.0836    1.2214 C.ar      1 <0>        -0.2263
      7 C7          0.2157   -0.7038    1.2140 C.ar      1 <0>         0.1132
      8 O1          0.0255   -0.0332    2.3806 O.3       1 <0>        -0.2959
      9 C8         -0.0636   -0.8168    3.5723 C.3       1 <0>         0.1358
     10 H1          0.4733   -1.7549    3.4312 H         1 <0>         0.0962
     11 C9         -1.5330   -1.1114    3.8803 C.3       1 <0>        -0.1666
     12 C10        -2.1199   -1.9897    2.7735 C.3       1 <0>        -0.0209
     13 N1         -3.5308   -2.2726    3.0692 N.4       1 <0>        -0.5077
     14 C11        -4.0943   -3.1158    2.0066 C.3       1 <0>        -0.0479
     15 C12         0.5477   -0.0561    4.7206 C.ar      1 <0>        -0.1113
     16 C13         0.3309    1.3037    4.8422 C.ar      1 <0>        -0.0896
     17 C14         0.8915    2.0015    5.8956 C.ar      1 <0>        -0.1188
     18 C15         1.6687    1.3395    6.8276 C.ar      1 <0>        -0.1021
     19 C16         1.8848   -0.0205    6.7065 C.ar      1 <0>        -0.1166
     20 C17         1.3206   -0.7191    5.6555 C.ar      1 <0>        -0.1047
     21 H2          1.0711    1.9610    0.0995 H         1 <0>         0.0741
     22 H3         -0.3654    1.7947   -0.9383 H         1 <0>         0.0693
     23 H4         -0.5417    1.7899    0.8329 H         1 <0>         0.0691
     24 H5          0.4965   -0.1542   -2.1055 H         1 <0>         0.1347
     25 H6          0.7641   -2.6006   -2.0870 H         1 <0>         0.1297
     26 H7          0.6780   -3.8358    0.0405 H         1 <0>         0.1279
     27 H8          0.3240   -2.6261    2.1545 H         1 <0>         0.1274
     28 H9         -1.6067   -1.6323    4.8350 H         1 <0>         0.1068
     29 H10        -2.0879   -0.1748    3.9336 H         1 <0>         0.1028
     30 H11        -2.0462   -1.4689    1.8188 H         1 <0>         0.1357
     31 H12        -1.5650   -2.9264    2.7202 H         1 <0>         0.1344
     32 H13        -3.5991   -2.7547    3.9530 H         1 <0>         0.4300
     33 H14        -5.1412   -3.3257    2.2260 H         1 <0>         0.1285
     34 H15        -4.0206   -2.5950    1.0519 H         1 <0>         0.1237
     35 H16        -3.5394   -4.0525    1.9533 H         1 <0>         0.1240
     36 H17        -0.2763    1.8210    4.1141 H         1 <0>         0.1266
     37 H18         0.7227    3.0641    5.9902 H         1 <0>         0.1289
     38 H19         2.1073    1.8848    7.6502 H         1 <0>         0.1293
     39 H20         2.4922   -0.5377    7.4344 H         1 <0>         0.1300
     40 H21         1.4863   -1.7823    5.5629 H         1 <0>         0.1236
     41 H22        -4.0445   -1.4055    3.1186 H         1 <0>         0.4310
@<TRIPOS>BOND
     1    1    2 1
     2    1   21 1
     3    1   22 1
     4    1   23 1
     5    2    7 ar
     6    2    3 ar
     7    3    4 ar
     8    3   24 1
     9    4    5 ar
    10    4   25 1
    11    5    6 ar
    12    5   26 1
    13    6    7 ar
    14    6   27 1
    15    7    8 1
    16    8    9 1
    17    9   10 1
    18    9   11 1
    19    9   15 1
    20   11   12 1
    21   11   28 1
    22   11   29 1
    23   12   13 1
    24   12   30 1
    25   12   31 1
    26   13   14 1
    27   13   32 1
    28   13   41 1
    29   14   33 1
    30   14   34 1
    31   14   35 1
    32   15   20 ar
    33   15   16 ar
    34   16   17 ar
    35   16   36 1
    36   17   18 ar
    37   17   37 1
    38   18   19 ar
    39   18   38 1
    40   19   20 ar
    41   19   39 1
    42   20   40 1
@<TRIPOS>MOLECULE
ZINC03812983
   41    45     0     0     0
SMALL
USER_CHARGES
methylBLAHdiol
@<TRIPOS>ATOM
      1 C1          2.5532   -4.0281   -1.2929 C.3       1 <0>        -0.0484
      2 C2          3.5947   -1.8745   -0.9415 C.3       1 <0>        -0.0043
      3 C3          3.6019   -0.5992   -0.0995 C.3       1 <0>        -0.1260
      4 C4          2.2189    0.0434   -0.2379 C.3       1 <0>        -0.0574
      5 C5          1.9436    0.2694   -1.7033 C.ar      1 <0>        -0.1864
      6 C6          1.3321   -0.5987   -2.5755 C.ar      1 <0>        -0.0564
      7 C7          1.2190   -0.1564   -3.8812 C.ar      1 <0>        -0.1265
      8 C8          1.6669    1.1083   -4.2290 C.ar      1 <0>        -0.1009
      9 C9          2.2257    2.0020   -3.3175 C.ar      1 <0>         0.1075
     10 C10         2.3451    1.5675   -1.9939 C.ar      1 <0>         0.1517
     11 O1          2.7949    2.1721   -0.8702 O.3       1 <0>        -0.2745
     12 C11         2.1727    1.4792    0.2740 C.3       1 <0>         0.1100
     13 H1          2.6983    1.6223    1.2181 H         1 <0>         0.1502
     14 C12         0.7367    2.0155    0.2661 C.3       1 <0>         0.1097
     15 H2          0.6482    2.7733    1.0446 H         1 <0>         0.0803
     16 C13        -0.3150    0.9908    0.4879 C.2       1 <0>        -0.1525
     17 C14        -0.1527   -0.2942    0.4717 C.2       1 <0>        -0.1355
     18 C15         1.1799   -0.9197    0.2862 C.3       1 <0>        -0.0479
     19 H3          1.5192   -1.2471    1.2689 H         1 <0>         0.1004
     20 C16         1.1821   -2.1468   -0.6151 C.3       1 <0>         0.0590
     21 H4          0.4619   -2.8606   -0.2153 H         1 <0>         0.1363
     22 C17         0.8134   -1.9003   -2.0558 C.3       1 <0>        -0.0882
     23 O2          0.4964    2.6425   -0.9953 O.3       1 <0>        -0.5359
     24 O3          2.6371    3.2410   -3.6984 O.3       1 <0>        -0.4796
     25 H5          2.4612   -3.8104   -2.3570 H         1 <0>         0.1267
     26 H6          3.4994   -4.5361   -1.1065 H         1 <0>         0.1256
     27 H7          1.7289   -4.6694   -0.9807 H         1 <0>         0.1244
     28 H8          4.5493   -2.3884   -0.8287 H         1 <0>         0.1314
     29 H9          3.4563   -1.6019   -1.9877 H         1 <0>         0.1340
     30 H10         4.3670    0.0825   -0.4709 H         1 <0>         0.1194
     31 H11         3.7955   -0.8428    0.9451 H         1 <0>         0.0984
     32 H12         0.7809   -0.7981   -4.6314 H         1 <0>         0.1324
     33 H13         1.5779    1.4173   -5.2600 H         1 <0>         0.1363
     34 H14        -1.3148    1.3526    0.6772 H         1 <0>         0.1225
     35 H15        -1.0158   -0.9312    0.5970 H         1 <0>         0.1292
     36 H16        -0.2725   -1.9066   -2.1492 H         1 <0>         0.1227
     37 H17         1.2210   -2.7075   -2.6645 H         1 <0>         0.1017
     38 H18        -0.3623    3.0826   -1.0586 H         1 <0>         0.3865
     39 H19         3.5594    3.2780   -3.9865 H         1 <0>         0.3923
     40 N1          2.5173   -2.7921   -0.4927 N.4       1 <0>        -0.3970
     41 H20         2.6774   -3.0298    0.4933 H         1 <0>         0.4294
@<TRIPOS>BOND
     1    1   25 1
     2    1   26 1
     3    1   27 1
     4    1   40 1
     5    2    3 1
     6    2   28 1
     7    2   29 1
     8    2   40 1
     9    3    4 1
    10    3   30 1
    11    3   31 1
    12    4   12 1
    13    4   18 1
    14    4    5 1
    15    5   10 ar
    16    5    6 ar
    17    6   22 1
    18    6    7 ar
    19    7    8 ar
    20    7   32 1
    21    8    9 ar
    22    8   33 1
    23    9   10 ar
    24    9   24 1
    25   10   11 1
    26   11   12 1
    27   12   13 1
    28   12   14 1
    29   14   15 1
    30   14   16 1
    31   14   23 1
    32   16   17 2
    33   16   34 1
    34   17   18 1
    35   17   35 1
    36   18   19 1
    37   18   20 1
    38   20   21 1
    39   20   22 1
    40   20   40 1
    41   22   36 1
    42   22   37 1
    43   23   38 1
    44   24   39 1
    45   40   41 1
@<TRIPOS>MOLECULE
ZINC14952116
   76    77     0     0     0
SMALL
USER_CHARGES

@<TRIPOS>ATOM
      1 C1         -0.0187    1.5258    0.0104 C.3       1 <0>        -0.1447
      2 C2          0.0021   -0.0041    0.0020 C.3       1 <0>        -0.0967
      3 C3          0.7421   -0.5109    1.2415 C.3       1 <0>        -0.1473
      4 C4         -1.4333   -0.5336    0.0129 C.3       1 <0>        -0.1054
      5 C5         -1.4157   -2.0577   -0.1212 C.3       1 <0>         0.0745
      6 H1         -0.7891   -2.4841    0.6622 H         1 <0>         0.0870
      7 C6         -2.8192   -2.5900    0.0125 C.2       1 <0>         0.4905
      8 O1         -3.3892   -3.0569   -0.9588 O.co2     1 <0>        -0.6874
      9 O2         -3.3846   -2.5537    1.0921 O.co2     1 <0>        -0.6962
     10 N1         -0.8765   -2.4263   -1.4325 N.am      1 <0>        -0.6830
     11 C7         -0.2982   -3.6308   -1.6090 C.2       1 <0>         0.5110
     12 O3         -0.2242   -4.4096   -0.6822 O.2       1 <0>        -0.5434
     13 C8          0.2565   -4.0101   -2.9579 C.3       1 <0>         0.1410
     14 H2          1.0331   -3.3007   -3.2439 H         1 <0>         0.1113
     15 C9         -0.8664   -3.9833   -3.9969 C.3       1 <0>        -0.0906
     16 C10        -0.2907   -4.2419   -5.3654 C.ar      1 <0>        -0.0564
     17 C11         0.1466   -3.1854   -6.1422 C.ar      1 <0>        -0.1049
     18 C12         0.6746   -3.4227   -7.3975 C.ar      1 <0>        -0.1132
     19 C13         0.7657   -4.7164   -7.8758 C.ar      1 <0>        -0.1244
     20 C14         0.3292   -5.7730   -7.0986 C.ar      1 <0>        -0.1144
     21 C15        -0.1948   -5.5361   -5.8416 C.ar      1 <0>        -0.1104
     22 N2          0.8270   -5.3577   -2.8901 N.am      1 <0>        -0.7019
     23 C16         1.7936   -5.7246   -3.7546 C.2       1 <0>         0.5103
     24 O4          2.1912   -4.9391   -4.5888 O.2       1 <0>        -0.5220
     25 C17         2.3805   -7.1108   -3.6848 C.3       1 <0>         0.1013
     26 N3          3.4040   -7.2606   -4.7222 N.am      1 <0>        -0.7065
     27 C18         4.0686   -8.4262   -4.8498 C.2       1 <0>         0.5125
     28 O5          3.8194   -9.3510   -4.1058 O.2       1 <0>        -0.5389
     29 C19         5.1215   -8.5803   -5.9170 C.3       1 <0>         0.1024
     30 N4          5.6920   -9.9279   -5.8491 N.am      1 <0>        -0.7178
     31 C20         6.6587  -10.2948   -6.7136 C.2       1 <0>         0.5243
     32 O6          7.0562   -9.5093   -7.5478 O.2       1 <0>        -0.5267
     33 C21         7.2456  -11.6811   -6.6438 C.3       1 <0>         0.0854
     34 H3          6.4524  -12.4018   -6.4452 H         1 <0>         0.1063
     35 C22         8.2817  -11.7402   -5.5196 C.3       1 <0>        -0.1125
     36 C23         8.7791  -13.1547   -5.3688 C.ar      1 <0>        -0.0942
     37 C24         8.1319  -14.0263   -4.5124 C.ar      1 <0>        -0.0953
     38 C25         8.5862  -15.3233   -4.3721 C.ar      1 <0>        -0.1400
     39 C26         9.6924  -15.7513   -5.0916 C.ar      1 <0>         0.1037
     40 C27        10.3397  -14.8750   -5.9506 C.ar      1 <0>        -0.1404
     41 C28         9.8784  -13.5805   -6.0913 C.ar      1 <0>        -0.1033
     42 O7         10.1415  -17.0266   -4.9550 O.3       1 <0>        -0.5002
     43 N5          7.8918  -12.0042   -7.9228 N.3       1 <0>        -0.8255
     44 H4          1.0039    1.9031    0.0027 H         1 <0>         0.0490
     45 H5         -0.5459    1.8868   -0.8726 H         1 <0>         0.0520
     46 H6         -0.5289    1.8773    0.9072 H         1 <0>         0.0538
     47 H7          0.5123   -0.3556   -0.8948 H         1 <0>         0.0651
     48 H8          0.7568   -1.6008    1.2356 H         1 <0>         0.0579
     49 H9          1.7647   -0.1336    1.2338 H         1 <0>         0.0467
     50 H10         0.2319   -0.1594    2.1383 H         1 <0>         0.0546
     51 H11        -1.9156   -0.2570    0.9504 H         1 <0>         0.0807
     52 H12        -1.9862   -0.1019   -0.8214 H         1 <0>         0.0611
     53 H13        -0.9356   -1.8035   -2.1738 H         1 <0>         0.3916
     54 H14        -1.5995   -4.7542   -3.7595 H         1 <0>         0.0864
     55 H15        -1.3495   -3.0063   -3.9847 H         1 <0>         0.0914
     56 H16         0.0754   -2.1747   -5.7685 H         1 <0>         0.1162
     57 H17         1.0157   -2.5972   -8.0047 H         1 <0>         0.1146
     58 H18         1.1776   -4.9017   -8.8569 H         1 <0>         0.1130
     59 H19         0.4001   -6.7838   -7.4725 H         1 <0>         0.1117
     60 H20        -0.5324   -6.3619   -5.2329 H         1 <0>         0.1103
     61 H21         0.5090   -5.9859   -2.2229 H         1 <0>         0.4131
     62 H22         2.8314   -7.2656   -2.7045 H         1 <0>         0.1015
     63 H23         1.5926   -7.8473   -3.8427 H         1 <0>         0.1009
     64 H24         3.6034   -6.5210   -5.3172 H         1 <0>         0.4161
     65 H25         4.6706   -8.4255   -6.8972 H         1 <0>         0.1029
     66 H26         5.9094   -7.8438   -5.7591 H         1 <0>         0.1017
     67 H27         5.3741  -10.5561   -5.1819 H         1 <0>         0.4123
     68 H28         9.1183  -11.0848   -5.7617 H         1 <0>         0.0822
     69 H29         7.8235  -11.4147   -4.5857 H         1 <0>         0.0865
     70 H30         7.2708  -13.6926   -3.9525 H         1 <0>         0.1304
     71 H31         8.0808  -16.0035   -3.7025 H         1 <0>         0.1306
     72 H32        11.2012  -15.2058   -6.5118 H         1 <0>         0.1298
     73 H33        10.3793  -12.8992   -6.7631 H         1 <0>         0.1258
     74 H34         9.7431  -17.6525   -5.5751 H         1 <0>         0.3917
     75 H35         8.6314  -11.3498   -8.1298 H         1 <0>         0.3515
     76 H36         8.2370  -12.9523   -7.9242 H         1 <0>         0.3495
@<TRIPOS>BOND
     1    1    2 1
     2    1   44 1
     3    1   45 1
     4    1   46 1
     5    2    3 1
     6    2    4 1
     7    2   47 1
     8    3   48 1
     9    3   49 1
    10    3   50 1
    11    4    5 1
    12    4   51 1
    13    4   52 1
    14    5    6 1
    15    5    7 1
    16    5   10 1
    17    7    8 2
    18    7    9 1
    19   10   11 am
    20   10   53 1
    21   11   12 2
    22   11   13 1
    23   13   14 1
    24   13   15 1
    25   13   22 1
    26   15   16 1
    27   15   54 1
    28   15   55 1
    29   16   21 ar
    30   16   17 ar
    31   17   18 ar
    32   17   56 1
    33   18   19 ar
    34   18   57 1
    35   19   20 ar
    36   19   58 1
    37   20   21 ar
    38   20   59 1
    39   21   60 1
    40   22   23 am
    41   22   61 1
    42   23   24 2
    43   23   25 1
    44   25   26 1
    45   25   62 1
    46   25   63 1
    47   26   27 am
    48   26   64 1
    49   27   28 2
    50   27   29 1
    51   29   30 1
    52   29   65 1
    53   29   66 1
    54   30   31 am
    55   30   67 1
    56   31   32 2
    57   31   33 1
    58   33   34 1
    59   33   35 1
    60   33   43 1
    61   35   36 1
    62   35   68 1
    63   35   69 1
    64   36   41 ar
    65   36   37 ar
    66   37   38 ar
    67   37   70 1
    68   38   39 ar
    69   38   71 1
    70   39   40 ar
    71   39   42 1
    72   40   41 ar
    73   40   72 1
    74   41   73 1
    75   42   74 1
    76   43   75 1
    77   43   76 1
@<TRIPOS>MOLECULE
ZINC26500782
   37    38     0     0     0
SMALL
USER_CHARGES
ethyl (3S,4S)-4-phenylpiperidine-3-carboxylate
@<TRIPOS>ATOM
      1 C1         -0.7093    6.3038    3.3374 C.3       1 <0>        -0.1610
      2 C2         -0.3384    5.5605    2.0525 C.3       1 <0>         0.0601
      3 O1         -0.5801    4.1396    2.2284 O.3       1 <0>        -0.3320
      4 C3         -0.3036    3.3408    1.1857 C.2       1 <0>         0.4790
      5 O2          0.1261    3.8133    0.1600 O.2       1 <0>        -0.5229
      6 C4         -0.5292    1.8548    1.2944 C.3       1 <0>        -0.1062
      7 H1         -0.8066    1.6185    2.3323 H         1 <0>         0.1494
      8 C5          0.7548    1.1139    0.9145 C.3       1 <0>         0.0133
      9 N1          1.1166    1.4378   -0.4714 N.4       1 <0>        -0.5418
     10 C6          0.0723    1.0035   -1.4081 C.3       1 <0>         0.0017
     11 C7         -1.2321    1.7410   -1.0975 C.3       1 <0>        -0.1599
     12 C8         -1.6539    1.4376    0.3428 C.3       1 <0>        -0.0399
     13 H2         -1.8655    0.3642    0.4566 H         1 <0>         0.1190
     14 C9         -2.9066    2.2073    0.6735 C.ar      1 <0>        -0.1125
     15 C10        -3.6919    1.8225    1.7440 C.ar      1 <0>        -0.1048
     16 C11        -4.8384    2.5315    2.0503 C.ar      1 <0>        -0.1111
     17 C12        -5.2052    3.6188    1.2796 C.ar      1 <0>        -0.1050
     18 C13        -4.4227    4.0004    0.2059 C.ar      1 <0>        -0.1140
     19 C14        -3.2734    3.2947   -0.0972 C.ar      1 <0>        -0.1182
     20 H3         -0.5262    7.3802    3.2041 H         1 <0>         0.0906
     21 H4         -0.0952    5.9276    4.1689 H         1 <0>         0.0716
     22 H5         -1.7731    6.1380    3.5629 H         1 <0>         0.0720
     23 H6         -0.9525    5.9367    1.2210 H         1 <0>         0.0793
     24 H7          0.7254    5.7263    1.8270 H         1 <0>         0.0785
     25 H8          1.5687    1.4223    1.5871 H         1 <0>         0.1382
     26 H9          0.5936    0.0297    1.0071 H         1 <0>         0.1484
     27 H10         1.2476    2.5254   -0.5715 H         1 <0>         0.4533
     28 H11         0.3855    1.2312   -2.4377 H         1 <0>         0.1351
     29 H12        -0.0859   -0.0801   -1.3042 H         1 <0>         0.1272
     30 H13        -1.0783    2.8237   -1.2160 H         1 <0>         0.1081
     31 H14        -2.0176    1.4043   -1.7901 H         1 <0>         0.1173
     32 H15        -3.4077    0.9702    2.3434 H         1 <0>         0.1255
     33 H16        -5.4500    2.2331    2.8890 H         1 <0>         0.1297
     34 H17        -6.1034    4.1700    1.5162 H         1 <0>         0.1288
     35 H18        -4.7095    4.8498   -0.3965 H         1 <0>         0.1269
     36 H19        -2.6623    3.5926   -0.9363 H         1 <0>         0.1230
     37 H20         2.0564    0.9297   -0.7334 H         1 <0>         0.4535
@<TRIPOS>BOND
     1    1    2 1
     2    1   20 1
     3    1   21 1
     4    1   22 1
     5    2    3 1
     6    2   23 1
     7    2   24 1
     8    3    4 1
     9    4    5 2
    10    4    6 1
    11    6    7 1
    12    6   12 1
    13    6    8 1
    14    8    9 1
    15    8   25 1
    16    8   26 1
    17    9   10 1
    18    9   27 1
    19    9   37 1
    20   10   11 1
    21   10   28 1
    22   10   29 1
    23   11   12 1
    24   11   30 1
    25   11   31 1
    26   12   13 1
    27   12   14 1
    28   14   19 ar
    29   14   15 ar
    30   15   16 ar
    31   15   32 1
    32   16   17 ar
    33   16   33 1
    34   17   18 ar
    35   17   34 1
    36   18   19 ar
    37   18   35 1
    38   19   36 1
