@<TRIPOS>MOLECULE
ZINC49036447
   55    59     0     0     0
SMALL
USER_CHARGES

@<TRIPOS>ATOM
      1 C1          2.8284    1.1185    0.4497 C.3       1 <0>        -0.1169
      2 C2          1.7343    0.0887    0.3337 C.ar      1 <0>        -0.0820
      3 C3          0.9424    0.0492   -0.8018 C.ar      1 <0>        -0.0836
      4 C4         -0.0637   -0.8897   -0.9195 C.ar      1 <0>        -0.1051
      5 C5         -0.2868   -1.8013    0.1021 C.ar      1 <0>         0.1815
      6 C6          0.5131   -1.7645    1.2526 C.ar      1 <0>        -0.1156
      7 C7          1.5299   -0.8135    1.3561 C.ar      1 <0>        -0.0773
      8 C8          0.2847   -2.7293    2.3467 C.2       1 <0>         0.5682
      9 O1          0.3290   -3.9235    2.1232 O.2       1 <0>        -0.4814
     10 N1          0.0272   -2.2861    3.5931 N.am      1 <0>        -0.6005
     11 C9         -0.1415   -0.8242    3.8174 C.3       1 <0>         0.0859
     12 C10        -1.2854   -0.5879    4.8343 C.3       1 <0>         0.1057
     13 N2         -2.3900   -1.4844    4.6376 N.pl3     1 <0>        -0.5528
     14 C11        -2.4280   -2.7832    5.3506 C.3       1 <0>         0.1421
     15 C12        -1.5263   -3.7489    4.7029 C.3       1 <0>        -0.1626
     16 C13        -0.0815   -3.2390    4.6601 C.3       1 <0>         0.1563
     17 H1          0.1686   -2.7615    5.6075 H         1 <0>         0.0816
     18 C14         0.8670   -4.4120    4.4047 C.3       1 <0>        -0.1598
     19 C15        -3.4145   -1.1369    3.7865 C.2       1 <0>         0.5153
     20 N3         -4.4672   -1.8742    3.5400 N.2       1 <0>        -0.5336
     21 C16        -5.2642   -1.2149    2.6547 C.ar      1 <0>         0.0813
     22 C17        -6.4853   -1.5146    2.0494 C.ar      1 <0>        -0.0741
     23 C18        -7.0523   -0.6150    1.1718 C.ar      1 <0>        -0.0228
     24 C19        -6.4152    0.5845    0.8881 C.ar      1 <0>        -0.1067
     25 C20        -5.2072    0.8921    1.4805 C.ar      1 <0>        -0.0645
     26 C21        -4.6242   -0.0008    2.3649 C.ar      1 <0>        -0.0089
     27 O2         -3.4826    0.0120    3.0914 O.3       1 <0>        -0.2323
     28 Cl1        -8.5713   -0.9852    0.4174 Cl        1 <0>        -0.0548
     29 N4         -1.3051   -2.7521   -0.0152 N.pl3     1 <0>        -0.1162
     30 N5         -1.5624   -3.6584    0.8601 N.2       1 <0>        -0.2462
     31 C22        -2.5763   -4.3783    0.4364 C.2       1 <0>        -0.0176
     32 C23        -2.9393   -3.8370   -0.8006 C.2       1 <0>        -0.0094
     33 N6         -2.1152   -2.8356   -1.0104 N.2       1 <0>        -0.2936
     34 H2          3.7523    0.7154    0.0348 H         1 <0>         0.0774
     35 H3          2.5435    2.0149   -0.1011 H         1 <0>         0.0733
     36 H4          2.9808    1.3701    1.4993 H         1 <0>         0.0713
     37 H5          1.1123    0.7568   -1.5998 H         1 <0>         0.1417
     38 H6         -0.6777   -0.9140   -1.8077 H         1 <0>         0.1479
     39 H7          2.1528   -0.7817    2.2378 H         1 <0>         0.1390
     40 H8          0.7859   -0.4073    4.2101 H         1 <0>         0.0857
     41 H9         -0.3879   -0.3378    2.8736 H         1 <0>         0.0835
     42 H10        -0.8948   -0.7255    5.8426 H         1 <0>         0.0959
     43 H11        -1.6411    0.4375    4.7329 H         1 <0>         0.0907
     44 H12        -2.1164   -2.6363    6.3847 H         1 <0>         0.0829
     45 H13        -3.4456   -3.1735    5.3352 H         1 <0>         0.1001
     46 H14        -1.5563   -4.6882    5.2551 H         1 <0>         0.0900
     47 H15        -1.8696   -3.9268    3.6837 H         1 <0>         0.0858
     48 H16         1.8366   -4.0319    4.0829 H         1 <0>         0.0521
     49 H17         0.9887   -4.9873    5.3225 H         1 <0>         0.0547
     50 H18         0.4515   -5.0525    3.6268 H         1 <0>         0.0954
     51 H19        -6.9839   -2.4476    2.2671 H         1 <0>         0.1442
     52 H20        -6.8675    1.2820    0.1987 H         1 <0>         0.1488
     53 H21        -4.7170    1.8276    1.2549 H         1 <0>         0.1409
     54 H22        -3.0350   -5.2164    0.9400 H         1 <0>         0.1978
     55 H23        -3.7360   -4.1711   -1.4487 H         1 <0>         0.2018
@<TRIPOS>BOND
     1    1    2 1
     2    1   34 1
     3    1   35 1
     4    1   36 1
     5    2    7 ar
     6    2    3 ar
     7    3    4 ar
     8    3   37 1
     9    4    5 ar
    10    4   38 1
    11    5    6 ar
    12    5   29 1
    13    6    7 ar
    14    6    8 1
    15    7   39 1
    16    8    9 2
    17    8   10 am
    18   10   16 1
    19   10   11 1
    20   11   12 1
    21   11   40 1
    22   11   41 1
    23   12   13 1
    24   12   42 1
    25   12   43 1
    26   13   14 1
    27   13   19 1
    28   14   15 1
    29   14   44 1
    30   14   45 1
    31   15   16 1
    32   15   46 1
    33   15   47 1
    34   16   17 1
    35   16   18 1
    36   18   48 1
    37   18   49 1
    38   18   50 1
    39   19   27 1
    40   19   20 2
    41   20   21 1
    42   21   26 ar
    43   21   22 ar
    44   22   23 ar
    45   22   51 1
    46   23   24 ar
    47   23   28 1
    48   24   25 ar
    49   24   52 1
    50   25   26 ar
    51   25   53 1
    52   26   27 1
    53   29   33 1
    54   29   30 1
    55   30   31 2
    56   31   32 1
    57   31   54 1
    58   32   33 2
    59   32   55 1
@<TRIPOS>MOLECULE
ZINC13588112
   57    60     0     0     0
SMALL
USER_CHARGES
(2S)-1-(6,7-dimethoxy-3,4-dihydro-1H-isoquinolin-2-yl)-2,3-diphenyl-propan-1-one
@<TRIPOS>ATOM
      1 C1         -4.6588   -5.5548    7.2849 C.3       1 <0>         0.0254
      2 O1         -3.9567   -4.3556    7.6180 O.3       1 <0>        -0.3053
      3 C2         -4.0098   -3.3384    6.7170 C.ar      1 <0>         0.1068
      4 C3         -4.7202   -3.4888    5.5406 C.ar      1 <0>        -0.1740
      5 C4         -4.7805   -2.4556    4.6130 C.ar      1 <0>        -0.0636
      6 C5         -4.1351   -1.2671    4.8742 C.ar      1 <0>        -0.0961
      7 C6         -3.4169   -1.1124    6.0524 C.ar      1 <0>        -0.1671
      8 C7         -3.3497   -2.1407    6.9747 C.ar      1 <0>         0.1030
      9 O2         -2.6435   -1.9823    8.1261 O.3       1 <0>        -0.3048
     10 C8         -1.9932   -0.7248    8.3205 C.3       1 <0>         0.0252
     11 C9         -4.1752   -0.1006    3.9189 C.3       1 <0>         0.1532
     12 N1         -4.7337   -0.5334    2.6335 N.am      1 <0>        -0.6074
     13 C10        -5.9361   -1.3822    2.6706 C.3       1 <0>         0.1111
     14 C11        -5.5506   -2.7047    3.3426 C.3       1 <0>        -0.0933
     15 C12        -4.1720   -0.1642    1.4653 C.2       1 <0>         0.5309
     16 O3         -4.6541   -0.5362    0.4164 O.2       1 <0>        -0.5317
     17 C13        -2.9450    0.7107    1.4624 C.3       1 <0>        -0.0614
     18 H1         -2.1383    0.2069    1.9949 H         1 <0>         0.1050
     19 C14        -2.5137    0.9795    0.0193 C.3       1 <0>        -0.0580
     20 C15        -1.2190    1.7506    0.0173 C.ar      1 <0>        -0.0814
     21 C16        -0.0126    1.0758    0.0080 C.ar      1 <0>        -0.1165
     22 C17         1.1750    1.7832    0.0004 C.ar      1 <0>        -0.1193
     23 C18         1.1563    3.1654    0.0076 C.ar      1 <0>        -0.1221
     24 C19        -0.0501    3.8402    0.0223 C.ar      1 <0>        -0.1184
     25 C20        -1.2377    3.1328    0.0299 C.ar      1 <0>        -0.1043
     26 C21        -3.2582    2.0174    2.1448 C.ar      1 <0>        -0.0733
     27 C22        -4.2498    2.8391    1.6425 C.ar      1 <0>        -0.1092
     28 C23        -4.5401    4.0357    2.2710 C.ar      1 <0>        -0.1135
     29 C24        -3.8325    4.4147    3.3964 C.ar      1 <0>        -0.1164
     30 C25        -2.8374    3.5954    3.8956 C.ar      1 <0>        -0.1139
     31 C26        -2.5500    2.3968    3.2697 C.ar      1 <0>        -0.1113
     32 H2         -4.2589   -5.9641    6.3572 H         1 <0>         0.0553
     33 H3         -4.5349   -6.2830    8.0864 H         1 <0>         0.1022
     34 H4         -5.7181   -5.3320    7.1568 H         1 <0>         0.0556
     35 H5         -5.2332   -4.4180    5.3405 H         1 <0>         0.1363
     36 H6         -2.9063   -0.1815    6.2500 H         1 <0>         0.1369
     37 H7         -2.7365    0.0724    8.3208 H         1 <0>         0.0556
     38 H8         -1.4673   -0.7316    9.2752 H         1 <0>         0.1020
     39 H9         -1.2798   -0.5561    7.5139 H         1 <0>         0.0552
     40 H10        -3.1646    0.2780    3.7661 H         1 <0>         0.0987
     41 H11        -4.7985    0.6897    4.3374 H         1 <0>         0.0818
     42 H12        -6.7189   -0.8880    3.2460 H         1 <0>         0.0758
     43 H13        -6.2863   -1.5700    1.6556 H         1 <0>         0.1006
     44 H14        -4.9354   -3.2902    2.6594 H         1 <0>         0.0821
     45 H15        -6.4570   -3.2631    3.5766 H         1 <0>         0.0869
     46 H16        -3.2837    1.5610   -0.4877 H         1 <0>         0.0820
     47 H17        -2.3729    0.0317   -0.5003 H         1 <0>         0.0856
     48 H18         0.0021   -0.0041    0.0020 H         1 <0>         0.1202
     49 H19         2.1175    1.2560   -0.0115 H         1 <0>         0.1207
     50 H20         2.0841    3.7181    0.0014 H         1 <0>         0.1197
     51 H21        -0.0647    4.9201    0.0276 H         1 <0>         0.1195
     52 H22        -2.1802    3.6600    0.0410 H         1 <0>         0.1189
     53 H23        -4.8001    2.5448    0.7610 H         1 <0>         0.1213
     54 H24        -5.3178    4.6756    1.8811 H         1 <0>         0.1229
     55 H25        -4.0575    5.3508    3.8858 H         1 <0>         0.1221
     56 H26        -2.2846    3.8915    4.7749 H         1 <0>         0.1230
     57 H27        -1.7725    1.7567    3.6597 H         1 <0>         0.1211
@<TRIPOS>BOND
     1    1    2 1
     2    1   32 1
     3    1   33 1
     4    1   34 1
     5    2    3 1
     6    3    8 ar
     7    3    4 ar
     8    4    5 ar
     9    4   35 1
    10    5   14 1
    11    5    6 ar
    12    6    7 ar
    13    6   11 1
    14    7    8 ar
    15    7   36 1
    16    8    9 1
    17    9   10 1
    18   10   37 1
    19   10   38 1
    20   10   39 1
    21   11   12 1
    22   11   40 1
    23   11   41 1
    24   12   13 1
    25   12   15 am
    26   13   14 1
    27   13   42 1
    28   13   43 1
    29   14   44 1
    30   14   45 1
    31   15   16 2
    32   15   17 1
    33   17   18 1
    34   17   19 1
    35   17   26 1
    36   19   20 1
    37   19   46 1
    38   19   47 1
    39   20   25 ar
    40   20   21 ar
    41   21   22 ar
    42   21   48 1
    43   22   23 ar
    44   22   49 1
    45   23   24 ar
    46   23   50 1
    47   24   25 ar
    48   24   51 1
    49   25   52 1
    50   26   31 ar
    51   26   27 ar
    52   27   28 ar
    53   27   53 1
    54   28   29 ar
    55   28   54 1
    56   29   30 ar
    57   29   55 1
    58   30   31 ar
    59   30   56 1
    60   31   57 1
@<TRIPOS>MOLECULE
ZINC13588113
   57    60     0     0     0
SMALL
USER_CHARGES
(2R)-1-(6,7-dimethoxy-3,4-dihydro-1H-isoquinolin-2-yl)-2,3-diphenyl-propan-1-one
@<TRIPOS>ATOM
      1 C1          0.0325    1.0242   -0.0293 C.3       1 <0>         0.0254
      2 O1         -0.6475    1.4898    1.1382 O.3       1 <0>        -0.3053
      3 C2         -0.1223    1.1348    2.3414 C.ar      1 <0>         0.1072
      4 C3          1.0163    0.3528    2.3988 C.ar      1 <0>        -0.1740
      5 C4          1.5639   -0.0114    3.6232 C.ar      1 <0>        -0.0618
      6 C5          0.9646    0.4099    4.7897 C.ar      1 <0>        -0.0936
      7 C6         -0.1843    1.1876    4.7375 C.ar      1 <0>        -0.1666
      8 C7         -0.7315    1.5523    3.5209 C.ar      1 <0>         0.1032
      9 O2         -1.8576    2.3134    3.4774 O.3       1 <0>        -0.3048
     10 C8         -2.4258    2.7034    4.7293 C.3       1 <0>         0.0252
     11 C9          1.5200    0.0696    6.1502 C.3       1 <0>         0.1513
     12 N1          2.5590   -0.9571    6.0172 N.am      1 <0>        -0.6111
     13 C10         3.5435   -0.7862    4.9360 C.3       1 <0>         0.1119
     14 C11         2.7992   -0.8730    3.6047 C.3       1 <0>        -0.0938
     15 C12         2.6106   -2.0144    6.8515 C.2       1 <0>         0.5326
     16 O3          3.4196   -2.8978    6.6616 O.2       1 <0>        -0.5288
     17 C13         1.6631   -2.0988    8.0204 C.3       1 <0>        -0.0601
     18 H1          1.3454   -1.0954    8.3037 H         1 <0>         0.0981
     19 C14         2.3705   -2.7629    9.2033 C.3       1 <0>        -0.0612
     20 C15         1.4661   -2.7369   10.4085 C.ar      1 <0>        -0.0811
     21 C16         1.5130   -1.6689   11.2849 C.ar      1 <0>        -0.1170
     22 C17         0.6799   -1.6428   12.3877 C.ar      1 <0>        -0.1196
     23 C18        -0.1926   -2.6895   12.6198 C.ar      1 <0>        -0.1217
     24 C19        -0.2358   -3.7600   11.7462 C.ar      1 <0>        -0.1180
     25 C20         0.5936   -3.7837   10.6406 C.ar      1 <0>        -0.1037
     26 C21         0.4582   -2.9164    7.6322 C.ar      1 <0>        -0.0726
     27 C22         0.6027   -4.2553    7.3205 C.ar      1 <0>        -0.1045
     28 C23        -0.5033   -5.0063    6.9687 C.ar      1 <0>        -0.1173
     29 C24        -1.7523   -4.4161    6.9194 C.ar      1 <0>        -0.1160
     30 C25        -1.8961   -3.0760    7.2265 C.ar      1 <0>        -0.1159
     31 C26        -0.7908   -2.3260    7.5825 C.ar      1 <0>        -0.1072
     32 H2          0.0517   -0.0656   -0.0282 H         1 <0>         0.0552
     33 H3          1.0535    1.4056   -0.0314 H         1 <0>         0.0557
     34 H4         -0.4892    1.3775   -0.9187 H         1 <0>         0.1022
     35 H5          1.4868    0.0248    1.4837 H         1 <0>         0.1360
     36 H6         -0.6548    1.5102    5.6546 H         1 <0>         0.1367
     37 H7         -2.6952    1.8140    5.2988 H         1 <0>         0.0552
     38 H8         -1.6983    3.2886    5.2918 H         1 <0>         0.0555
     39 H9         -3.3172    3.3051    4.5520 H         1 <0>         0.1019
     40 H10         1.9498    0.9643    6.6006 H         1 <0>         0.0833
     41 H11         0.7181   -0.3062    6.7857 H         1 <0>         0.0951
     42 H12         4.2931   -1.5756    4.9916 H         1 <0>         0.1001
     43 H13         4.0251    0.1875    5.0264 H         1 <0>         0.0767
     44 H14         2.5114   -1.9083    3.4218 H         1 <0>         0.0816
     45 H15         3.4582   -0.5375    2.8039 H         1 <0>         0.0870
     46 H16         2.6093   -3.7959    8.9505 H         1 <0>         0.0875
     47 H17         3.2899   -2.2218    9.4273 H         1 <0>         0.0794
     48 H18         2.1978   -0.8532   11.1060 H         1 <0>         0.1200
     49 H19         0.7139   -0.8066   13.0705 H         1 <0>         0.1208
     50 H20        -0.8403   -2.6712   13.4839 H         1 <0>         0.1199
     51 H21        -0.9172   -4.5780   11.9277 H         1 <0>         0.1200
     52 H22         0.5601   -4.6201    9.9582 H         1 <0>         0.1200
     53 H23         1.5791   -4.7155    7.3550 H         1 <0>         0.1268
     54 H24        -0.3910   -6.0534    6.7291 H         1 <0>         0.1227
     55 H25        -2.6159   -5.0020    6.6413 H         1 <0>         0.1215
     56 H26        -2.8719   -2.6148    7.1880 H         1 <0>         0.1218
     57 H27        -0.9031   -1.2789    7.8221 H         1 <0>         0.1180
@<TRIPOS>BOND
     1    1    2 1
     2    1   32 1
     3    1   33 1
     4    1   34 1
     5    2    3 1
     6    3    8 ar
     7    3    4 ar
     8    4    5 ar
     9    4   35 1
    10    5   14 1
    11    5    6 ar
    12    6    7 ar
    13    6   11 1
    14    7    8 ar
    15    7   36 1
    16    8    9 1
    17    9   10 1
    18   10   37 1
    19   10   38 1
    20   10   39 1
    21   11   12 1
    22   11   40 1
    23   11   41 1
    24   12   13 1
    25   12   15 am
    26   13   14 1
    27   13   42 1
    28   13   43 1
    29   14   44 1
    30   14   45 1
    31   15   16 2
    32   15   17 1
    33   17   18 1
    34   17   19 1
    35   17   26 1
    36   19   20 1
    37   19   46 1
    38   19   47 1
    39   20   25 ar
    40   20   21 ar
    41   21   22 ar
    42   21   48 1
    43   22   23 ar
    44   22   49 1
    45   23   24 ar
    46   23   50 1
    47   24   25 ar
    48   24   51 1
    49   25   52 1
    50   26   31 ar
    51   26   27 ar
    52   27   28 ar
    53   27   53 1
    54   28   29 ar
    55   28   54 1
    56   29   30 ar
    57   29   55 1
    58   30   31 ar
    59   30   56 1
    60   31   57 1
@<TRIPOS>MOLECULE
ZINC13588117
   61    64     0     0     0
SMALL
USER_CHARGES
N-[(1R)-1-benzyl-2-(6,7-dimethoxy-3,4-dihydro-1H-isoquinolin-2-yl)-2-oxo-ethyl]benzamide
@<TRIPOS>ATOM
      1 C1          9.8003    1.8604    3.2104 C.3       1 <0>         0.0252
      2 O1          8.9391    0.9140    2.5743 O.3       1 <0>        -0.3049
      3 C2          8.0861    1.3930    1.6296 C.ar      1 <0>         0.1085
      4 C3          8.0771    2.7405    1.3209 C.ar      1 <0>        -0.1739
      5 C4          7.2090    3.2401    0.3574 C.ar      1 <0>        -0.0631
      6 C5          6.3579    2.3821   -0.3033 C.ar      1 <0>        -0.0963
      7 C6          6.3601    1.0285    0.0059 C.ar      1 <0>        -0.1666
      8 C7          7.2182    0.5290    0.9685 C.ar      1 <0>         0.1046
      9 O2          7.2143   -0.7978    1.2669 O.3       1 <0>        -0.3045
     10 C8          6.2959   -1.6221    0.5462 C.3       1 <0>         0.0246
     11 C9          5.4040    2.8559   -1.3714 C.3       1 <0>         0.1479
     12 N1          5.3452    4.3215   -1.3666 N.am      1 <0>        -0.6063
     13 C10         6.6215    5.0488   -1.2687 C.3       1 <0>         0.1117
     14 C11         7.2381    4.7233    0.0962 C.3       1 <0>        -0.0935
     15 C12         4.1703    4.9761   -1.4540 C.2       1 <0>         0.5218
     16 O3          4.1550    6.1859   -1.5378 O.2       1 <0>        -0.5292
     17 C13         2.8757    4.2048   -1.4476 C.3       1 <0>         0.1368
     18 H1          3.0135    3.2592   -1.9719 H         1 <0>         0.1131
     19 C14         2.4528    3.9301   -0.0031 C.3       1 <0>        -0.0873
     20 C15         1.2362    3.0409    0.0037 C.ar      1 <0>        -0.0675
     21 C16         1.3844    1.6668    0.0298 C.ar      1 <0>        -0.1058
     22 C17         0.2684    0.8511    0.0361 C.ar      1 <0>        -0.1127
     23 C18        -0.9959    1.4095    0.0109 C.ar      1 <0>        -0.1168
     24 C19        -1.1443    2.7838   -0.0099 C.ar      1 <0>        -0.1108
     25 C20        -0.0282    3.5994   -0.0157 C.ar      1 <0>        -0.1045
     26 N2          1.8367    4.9889   -2.1198 N.am      1 <0>        -0.7147
     27 C21         0.7818    4.3674   -2.6832 C.2       1 <0>         0.5622
     28 O4          0.6925    3.1562   -2.6335 O.2       1 <0>        -0.5130
     29 C22        -0.2667    5.1587   -3.3616 C.ar      1 <0>        -0.1340
     30 C23        -0.1700    6.5501   -3.4154 C.ar      1 <0>        -0.0876
     31 C24        -1.1492    7.2823   -4.0545 C.ar      1 <0>        -0.1269
     32 C25        -2.2308    6.6411   -4.6318 C.ar      1 <0>        -0.0929
     33 C26        -2.3355    5.2625   -4.5770 C.ar      1 <0>        -0.1282
     34 C27        -1.3604    4.5181   -3.9459 C.ar      1 <0>        -0.0572
     35 H2         10.4315    2.3383    2.4612 H         1 <0>         0.0558
     36 H3          9.1992    2.6168    3.7151 H         1 <0>         0.0556
     37 H4         10.4272    1.3480    3.9402 H         1 <0>         0.1024
     38 H5          8.7509    3.4112    1.8332 H         1 <0>         0.1366
     39 H6          5.6860    0.3603   -0.5094 H         1 <0>         0.1383
     40 H7          5.2780   -1.2777    0.7290 H         1 <0>         0.0562
     41 H8          6.5137   -1.5623   -0.5201 H         1 <0>         0.0560
     42 H9          6.3956   -2.6549    0.8801 H         1 <0>         0.1023
     43 H10         4.4106    2.4525   -1.1754 H         1 <0>         0.0973
     44 H11         5.7495    2.5100   -2.3456 H         1 <0>         0.0878
     45 H12         7.2920    4.7260   -2.0652 H         1 <0>         0.0794
     46 H13         6.4421    6.1209   -1.3487 H         1 <0>         0.1020
     47 H14         6.6761    5.2359    0.8770 H         1 <0>         0.0827
     48 H15         8.2715    5.0698    0.1123 H         1 <0>         0.0887
     49 H16         2.2172    4.8722    0.4919 H         1 <0>         0.0836
     50 H17         3.2673    3.4354    0.5261 H         1 <0>         0.0868
     51 H18         2.3723    1.2304    0.0450 H         1 <0>         0.1135
     52 H19         0.3842   -0.2224    0.0562 H         1 <0>         0.1174
     53 H20        -1.8678    0.7722    0.0113 H         1 <0>         0.1167
     54 H21        -2.1321    3.2201   -0.0254 H         1 <0>         0.1154
     55 H22        -0.1441    4.6730   -0.0357 H         1 <0>         0.1104
     56 H23         1.9080    5.9555   -2.1595 H         1 <0>         0.4086
     57 H24         0.6715    7.0521   -2.9613 H         1 <0>         0.1257
     58 H25        -1.0733    8.3586   -4.1007 H         1 <0>         0.1293
     59 H26        -2.9965    7.2191   -5.1276 H         1 <0>         0.1276
     60 H27        -3.1823    4.7681   -5.0296 H         1 <0>         0.1299
     61 H28        -1.4433    3.4422   -3.9039 H         1 <0>         0.1356
@<TRIPOS>BOND
     1    1    2 1
     2    1   35 1
     3    1   36 1
     4    1   37 1
     5    2    3 1
     6    3    8 ar
     7    3    4 ar
     8    4    5 ar
     9    4   38 1
    10    5   14 1
    11    5    6 ar
    12    6    7 ar
    13    6   11 1
    14    7    8 ar
    15    7   39 1
    16    8    9 1
    17    9   10 1
    18   10   40 1
    19   10   41 1
    20   10   42 1
    21   11   12 1
    22   11   43 1
    23   11   44 1
    24   12   13 1
    25   12   15 am
    26   13   14 1
    27   13   45 1
    28   13   46 1
    29   14   47 1
    30   14   48 1
    31   15   16 2
    32   15   17 1
    33   17   18 1
    34   17   19 1
    35   17   26 1
    36   19   20 1
    37   19   49 1
    38   19   50 1
    39   20   25 ar
    40   20   21 ar
    41   21   22 ar
    42   21   51 1
    43   22   23 ar
    44   22   52 1
    45   23   24 ar
    46   23   53 1
    47   24   25 ar
    48   24   54 1
    49   25   55 1
    50   26   27 am
    51   26   56 1
    52   27   28 2
    53   27   29 1
    54   29   34 ar
    55   29   30 ar
    56   30   31 ar
    57   30   57 1
    58   31   32 ar
    59   31   58 1
    60   32   33 ar
    61   32   59 1
    62   33   34 ar
    63   33   60 1
    64   34   61 1
@<TRIPOS>MOLECULE
ZINC13588118
   61    64     0     0     0
SMALL
USER_CHARGES
N-[(1S)-1-benzyl-2-(6,7-dimethoxy-3,4-dihydro-1H-isoquinolin-2-yl)-2-oxo-ethyl]benzamide
@<TRIPOS>ATOM
      1 C1         12.7738   -3.4674    4.8865 C.3       1 <0>         0.0252
      2 O1         12.2216   -4.2466    3.8234 O.3       1 <0>        -0.3048
      3 C2         11.3996   -3.6052    2.9503 C.ar      1 <0>         0.1086
      4 C3         11.1303   -2.2588    3.1110 C.ar      1 <0>        -0.1740
      5 C4         10.2926   -1.5936    2.2236 C.ar      1 <0>        -0.0632
      6 C5          9.7330   -2.2814    1.1696 C.ar      1 <0>        -0.0984
      7 C6          9.9960   -3.6349    1.0068 C.ar      1 <0>        -0.1662
      8 C7         10.8257   -4.3008    1.8904 C.ar      1 <0>         0.1043
      9 O2         11.0793   -5.6266    1.7245 O.3       1 <0>        -0.3045
     10 C8         10.4547   -6.2725    0.6133 C.3       1 <0>         0.0245
     11 C9          8.8387   -1.6158    0.1595 C.3       1 <0>         0.1461
     12 N1          8.4698   -0.2750    0.6257 N.am      1 <0>        -0.6058
     13 C10         9.5385    0.5580    1.2016 C.3       1 <0>         0.1123
     14 C11        10.0376   -0.1299    2.4712 C.3       1 <0>        -0.0944
     15 C12         7.2023    0.1744    0.5357 C.2       1 <0>         0.5210
     16 O3          6.9232    1.2856    0.9336 O.2       1 <0>        -0.5286
     17 C13         6.1319   -0.7039   -0.0592 C.3       1 <0>         0.1376
     18 H1          6.0459   -1.6192    0.5265 H         1 <0>         0.1177
     19 C14         6.5031   -1.0544   -1.5015 C.3       1 <0>        -0.1002
     20 C15         5.4976   -2.0303   -2.0560 C.ar      1 <0>        -0.0680
     21 C16         5.7073   -3.3900   -1.9218 C.ar      1 <0>        -0.1068
     22 C17         4.7826   -4.2852   -2.4262 C.ar      1 <0>        -0.1116
     23 C18         3.6532   -3.8207   -3.0741 C.ar      1 <0>        -0.1171
     24 C19         3.4461   -2.4610   -3.2130 C.ar      1 <0>        -0.1103
     25 C20         4.3682   -1.5658   -2.7039 C.ar      1 <0>        -0.1054
     26 N2          4.8516    0.0080   -0.0436 N.am      1 <0>        -0.7121
     27 C21         3.6955   -0.6847   -0.0363 C.2       1 <0>         0.5626
     28 O4          3.7151   -1.9000   -0.0427 O.2       1 <0>        -0.5135
     29 C22         2.4034    0.0337   -0.0207 C.ar      1 <0>        -0.1334
     30 C23         1.2043   -0.6806   -0.0131 C.ar      1 <0>        -0.0574
     31 C24         0.0021   -0.0041    0.0020 C.ar      1 <0>        -0.1283
     32 C25        -0.0167    1.3794    0.0096 C.ar      1 <0>        -0.0932
     33 C26         1.1684    2.0935    0.0021 C.ar      1 <0>        -0.1271
     34 C27         2.3774    1.4292   -0.0129 C.ar      1 <0>        -0.0872
     35 H2         13.3669   -2.6532    4.4700 H         1 <0>         0.0559
     36 H3         11.9666   -3.0559    5.4925 H         1 <0>         0.0555
     37 H4         13.4090   -4.0988    5.5077 H         1 <0>         0.1025
     38 H5         11.5747   -1.7188    3.9340 H         1 <0>         0.1367
     39 H6          9.5489   -4.1722    0.1835 H         1 <0>         0.1384
     40 H7         10.7399   -7.3244    0.5972 H         1 <0>         0.1023
     41 H8          9.3719   -6.1910    0.7074 H         1 <0>         0.0562
     42 H9         10.7760   -5.7947   -0.3122 H         1 <0>         0.0561
     43 H10         7.9374   -2.2136    0.0243 H         1 <0>         0.0996
     44 H11         9.3666   -1.5368   -0.7909 H         1 <0>         0.0895
     45 H12        10.3567    0.6535    0.4879 H         1 <0>         0.0798
     46 H13         9.1456    1.5449    1.4461 H         1 <0>         0.1019
     47 H14        10.9633    0.3453    2.7960 H         1 <0>         0.0893
     48 H15         9.2869   -0.0250    3.2545 H         1 <0>         0.0822
     49 H16         6.5023   -0.1482   -2.1073 H         1 <0>         0.0831
     50 H17         7.4957   -1.5043   -1.5221 H         1 <0>         0.0931
     51 H18         6.5919   -3.7530   -1.4195 H         1 <0>         0.1135
     52 H19         4.9446   -5.3474   -2.3180 H         1 <0>         0.1175
     53 H20         2.9329   -4.5201   -3.4721 H         1 <0>         0.1167
     54 H21         2.5639   -2.0982   -3.7195 H         1 <0>         0.1153
     55 H22         4.2066   -0.5036   -2.8128 H         1 <0>         0.1104
     56 H23         4.8360    0.9778   -0.0386 H         1 <0>         0.4084
     57 H24         1.2176   -1.7605   -0.0194 H         1 <0>         0.1354
     58 H25        -0.9265   -0.5556    0.0075 H         1 <0>         0.1298
     59 H26        -0.9606    1.9042    0.0169 H         1 <0>         0.1275
     60 H27         1.1468    3.1732    0.0081 H         1 <0>         0.1292
     61 H28         3.3017    1.9878   -0.0184 H         1 <0>         0.1257
@<TRIPOS>BOND
     1    1    2 1
     2    1   35 1
     3    1   36 1
     4    1   37 1
     5    2    3 1
     6    3    8 ar
     7    3    4 ar
     8    4    5 ar
     9    4   38 1
    10    5   14 1
    11    5    6 ar
    12    6    7 ar
    13    6   11 1
    14    7    8 ar
    15    7   39 1
    16    8    9 1
    17    9   10 1
    18   10   40 1
    19   10   41 1
    20   10   42 1
    21   11   12 1
    22   11   43 1
    23   11   44 1
    24   12   13 1
    25   12   15 am
    26   13   14 1
    27   13   45 1
    28   13   46 1
    29   14   47 1
    30   14   48 1
    31   15   16 2
    32   15   17 1
    33   17   18 1
    34   17   19 1
    35   17   26 1
    36   19   20 1
    37   19   49 1
    38   19   50 1
    39   20   25 ar
    40   20   21 ar
    41   21   22 ar
    42   21   51 1
    43   22   23 ar
    44   22   52 1
    45   23   24 ar
    46   23   53 1
    47   24   25 ar
    48   24   54 1
    49   25   55 1
    50   26   27 am
    51   26   56 1
    52   27   28 2
    53   27   29 1
    54   29   34 ar
    55   29   30 ar
    56   30   31 ar
    57   30   57 1
    58   31   32 ar
    59   31   58 1
    60   32   33 ar
    61   32   59 1
    62   33   34 ar
    63   33   60 1
    64   34   61 1
@<TRIPOS>MOLECULE
ZINC52607342
   60    62     0     0     0
SMALL
USER_CHARGES

@<TRIPOS>ATOM
      1 C1          0.1442    0.5498    0.8673 C.3       1 <0>        -0.1597
      2 C2          0.3191   -0.7876    0.1450 C.3       1 <0>        -0.0462
      3 C3          1.4966   -1.5481    0.7582 C.3       1 <0>        -0.1358
      4 C4         -0.9573   -1.6181    0.2933 C.3       1 <0>        -0.1389
      5 C5          0.5930   -0.5339   -1.3387 C.3       1 <0>         0.0789
      6 H1         -0.2636   -0.0288   -1.7852 H         1 <0>         0.0761
      7 C6          1.8178    0.3323   -1.4825 C.2       1 <0>         0.5159
      8 O1          2.9165   -0.1772   -1.5489 O.2       1 <0>        -0.5215
      9 N1          1.6924    1.6731   -1.5374 N.am      1 <0>        -0.6098
     10 C7          2.8550    2.5414   -1.7864 C.3       1 <0>         0.1108
     11 C8          2.6322    3.2532   -3.1198 C.3       1 <0>        -0.0934
     12 C9          1.2451    3.8362   -3.1914 C.ar      1 <0>        -0.0633
     13 C10         1.0223    4.8529   -4.1130 C.ar      1 <0>        -0.1742
     14 C11        -0.2285    5.4270   -4.2393 C.ar      1 <0>         0.1083
     15 C12        -1.2752    4.9815   -3.4370 C.ar      1 <0>         0.1040
     16 C13        -1.0494    3.9726   -2.5191 C.ar      1 <0>        -0.1681
     17 C14         0.2109    3.4030   -2.3921 C.ar      1 <0>        -0.0995
     18 C15         0.3911    2.3255   -1.3575 C.3       1 <0>         0.1490
     19 O2         -2.5116    5.5354   -3.5549 O.3       1 <0>        -0.3045
     20 C16        -3.5352    5.0261   -2.6976 C.3       1 <0>         0.0250
     21 O3         -0.4356    6.4223   -5.1425 O.3       1 <0>        -0.3049
     22 C17         0.6858    6.8271   -5.9304 C.3       1 <0>         0.0252
     23 N2          0.8165   -1.8152   -2.0215 N.3       1 <0>        -0.6579
     24 C18        -0.3534   -2.1948   -2.8247 C.3       1 <0>         0.0917
     25 C19        -0.1362   -3.5655   -3.4120 C.ar      1 <0>        -0.0374
     26 C20         0.4724   -3.7197   -4.6483 C.ar      1 <0>        -0.1672
     27 C21         0.6548   -4.9924   -5.1551 C.ar      1 <0>         0.0997
     28 N3          0.2574   -6.0516   -4.4775 N.ar      1 <0>        -0.4846
     29 C22        -0.3247   -5.9429   -3.2993 C.ar      1 <0>         0.0981
     30 C23        -0.5349   -4.7028   -2.7264 C.ar      1 <0>        -0.1498
     31 H2          1.0514    1.1438    0.7568 H         1 <0>         0.0586
     32 H3         -0.6982    1.0892    0.4342 H         1 <0>         0.0578
     33 H4         -0.0453    0.3693    1.9254 H         1 <0>         0.0652
     34 H5          1.3014   -1.7289    1.8153 H         1 <0>         0.0492
     35 H6          1.6212   -2.5009    0.2437 H         1 <0>         0.0722
     36 H7          2.4059   -0.9565    0.6526 H         1 <0>         0.0539
     37 H8         -1.7985   -1.0705   -0.1317 H         1 <0>         0.0490
     38 H9         -0.8375   -2.5653   -0.2324 H         1 <0>         0.0683
     39 H10        -1.1452   -1.8100    1.3497 H         1 <0>         0.0585
     40 H11         2.9445    3.2763   -0.9864 H         1 <0>         0.0769
     41 H12         3.7616    1.9383   -1.8373 H         1 <0>         0.1009
     42 H13         3.3636    4.0544   -3.2250 H         1 <0>         0.0884
     43 H14         2.7636    2.5398   -3.9333 H         1 <0>         0.0804
     44 H15         1.8345    5.1977   -4.7359 H         1 <0>         0.1365
     45 H16        -1.8597    3.6244   -1.8958 H         1 <0>         0.1374
     46 H17        -0.4029    1.5861   -1.4628 H         1 <0>         0.0963
     47 H18         0.3425    2.7698   -0.3634 H         1 <0>         0.0882
     48 H19        -4.4689    5.5530   -2.8937 H         1 <0>         0.1026
     49 H20        -3.6718    3.9615   -2.8876 H         1 <0>         0.0551
     50 H21        -3.2454    5.1753   -1.6574 H         1 <0>         0.0560
     51 H22         1.4793    7.1866   -5.2753 H         1 <0>         0.0560
     52 H23         1.0490    5.9776   -6.5088 H         1 <0>         0.0554
     53 H24         0.3843    7.6259   -6.6080 H         1 <0>         0.1028
     54 H25         1.6497   -1.7817   -2.5896 H         1 <0>         0.3556
     55 H26        -1.2404   -2.2073   -2.1913 H         1 <0>         0.0916
     56 H27        -0.4916   -1.4725   -3.6293 H         1 <0>         0.0439
     57 H28         0.7994   -2.8560   -5.2083 H         1 <0>         0.1305
     58 H29         1.1280   -5.1210   -6.1174 H         1 <0>         0.1554
     59 H30        -0.6371   -6.8333   -2.7740 H         1 <0>         0.1562
     60 H31        -1.0077   -4.6204   -1.7589 H         1 <0>         0.1356
@<TRIPOS>BOND
     1    1    2 1
     2    1   31 1
     3    1   32 1
     4    1   33 1
     5    2    3 1
     6    2    4 1
     7    2    5 1
     8    3   34 1
     9    3   35 1
    10    3   36 1
    11    4   37 1
    12    4   38 1
    13    4   39 1
    14    5    6 1
    15    5    7 1
    16    5   23 1
    17    7    8 2
    18    7    9 am
    19    9   18 1
    20    9   10 1
    21   10   11 1
    22   10   40 1
    23   10   41 1
    24   11   12 1
    25   11   42 1
    26   11   43 1
    27   12   17 ar
    28   12   13 ar
    29   13   14 ar
    30   13   44 1
    31   14   15 ar
    32   14   21 1
    33   15   16 ar
    34   15   19 1
    35   16   17 ar
    36   16   45 1
    37   17   18 1
    38   18   46 1
    39   18   47 1
    40   19   20 1
    41   20   48 1
    42   20   49 1
    43   20   50 1
    44   21   22 1
    45   22   51 1
    46   22   52 1
    47   22   53 1
    48   23   24 1
    49   23   54 1
    50   24   25 1
    51   24   55 1
    52   24   56 1
    53   25   30 ar
    54   25   26 ar
    55   26   27 ar
    56   26   57 1
    57   27   28 ar
    58   27   58 1
    59   28   29 ar
    60   29   30 ar
    61   29   59 1
    62   30   60 1
@<TRIPOS>MOLECULE
ZINC03960325
   46    48     0     0     0
SMALL
USER_CHARGES
3-(2,4-dibromophenyl)-1-(2,2-dimethyl-4-phenyl-1,3-dioxan-5-yl)-urea
@<TRIPOS>ATOM
      1 C1          9.0462    4.1448   -1.0653 C.3       1 <0>        -0.2084
      2 C2          7.7240    4.9059   -1.1800 C.3       1 <0>         0.2644
      3 O1          6.7543    4.0813   -1.8310 O.3       1 <0>        -0.3763
      4 C3          6.4617    2.8701   -1.1275 C.3       1 <0>         0.0416
      5 C4          5.9622    3.2197    0.2786 C.3       1 <0>         0.1086
      6 H1          5.8296    2.3053    0.8569 H         1 <0>         0.1128
      7 C5          6.9985    4.1177    0.9631 C.3       1 <0>         0.1214
      8 H2          7.9216    3.5586    1.1160 H         1 <0>         0.0909
      9 O2          7.2570    5.2496    0.1268 O.3       1 <0>        -0.3743
     10 C6          6.4625    4.5842    2.2921 C.ar      1 <0>        -0.0832
     11 C7          5.5721    5.6402    2.3460 C.ar      1 <0>        -0.0915
     12 C8          5.0771    6.0653    3.5647 C.ar      1 <0>        -0.1202
     13 C9          5.4799    5.4406    4.7302 C.ar      1 <0>        -0.1121
     14 C10         6.3740    4.3877    4.6766 C.ar      1 <0>        -0.1168
     15 C11         6.8657    3.9598    3.4576 C.ar      1 <0>        -0.1058
     16 N1          4.6842    3.9296    0.1830 N.am      1 <0>        -0.7154
     17 C12         3.5330    3.2352    0.0883 C.2       1 <0>         0.7109
     18 O3          3.5551    2.0195    0.0822 O.2       1 <0>        -0.5672
     19 N2          2.3573    3.8882    0.0004 N.am      1 <0>        -0.6793
     20 C13         1.1549    3.1711    0.0208 C.ar      1 <0>         0.2194
     21 C14         1.1001    1.9220    0.6245 C.ar      1 <0>        -0.1214
     22 C15        -0.0873    1.2168    0.6437 C.ar      1 <0>        -0.0501
     23 C16        -1.2209    1.7516    0.0573 C.ar      1 <0>        -0.1115
     24 C17        -1.1712    2.9981   -0.5405 C.ar      1 <0>        -0.0372
     25 C18         0.0143    3.7083   -0.5626 C.ar      1 <0>        -0.1294
     26 Br1         0.0838    5.4088   -1.3867 Br        1 <0>        -0.0320
     27 Br2        -2.8426    0.7793    0.0789 Br        1 <0>        -0.0375
     28 C19         7.9391    6.1818   -1.9967 C.3       1 <0>        -0.1282
     29 H3          9.4023    3.8827   -2.0616 H         1 <0>         0.0806
     30 H4          9.7855    4.7735   -0.5690 H         1 <0>         0.0800
     31 H5          8.8929    3.2359   -0.4835 H         1 <0>         0.0637
     32 H6          7.3645    2.2638   -1.0537 H         1 <0>         0.0701
     33 H7          5.6910    2.3136   -1.6607 H         1 <0>         0.1092
     34 H8          5.2606    6.1310    1.4358 H         1 <0>         0.1203
     35 H9          4.3783    6.8877    3.6066 H         1 <0>         0.1242
     36 H10         5.0958    5.7749    5.6826 H         1 <0>         0.1239
     37 H11         6.6887    3.8996    5.5872 H         1 <0>         0.1258
     38 H12         7.5645    3.1374    3.4158 H         1 <0>         0.1238
     39 H13         4.6666    4.8994    0.1880 H         1 <0>         0.4031
     40 H14         2.3442    4.8551   -0.0769 H         1 <0>         0.4117
     41 H15         1.9853    1.5022    1.0792 H         1 <0>         0.1658
     42 H16        -0.1300    0.2451    1.1129 H         1 <0>         0.1437
     43 H17        -2.0585    3.4151   -0.9935 H         1 <0>         0.1468
     44 H18         6.9971    6.7240   -2.0784 H         1 <0>         0.0723
     45 H19         8.6784    6.8105   -1.5003 H         1 <0>         0.0810
     46 H20         8.2951    5.9197   -2.9930 H         1 <0>         0.0817
@<TRIPOS>BOND
     1    1    2 1
     2    1   29 1
     3    1   30 1
     4    1   31 1
     5    2    9 1
     6    2    3 1
     7    2   28 1
     8    3    4 1
     9    4    5 1
    10    4   32 1
    11    4   33 1
    12    5    6 1
    13    5    7 1
    14    5   16 1
    15    7    8 1
    16    7    9 1
    17    7   10 1
    18   10   15 ar
    19   10   11 ar
    20   11   12 ar
    21   11   34 1
    22   12   13 ar
    23   12   35 1
    24   13   14 ar
    25   13   36 1
    26   14   15 ar
    27   14   37 1
    28   15   38 1
    29   16   17 am
    30   16   39 1
    31   17   18 2
    32   17   19 am
    33   19   20 1
    34   19   40 1
    35   20   25 ar
    36   20   21 ar
    37   21   22 ar
    38   21   41 1
    39   22   23 ar
    40   22   42 1
    41   23   24 ar
    42   23   27 1
    43   24   25 ar
    44   24   43 1
    45   25   26 1
    46   28   44 1
    47   28   45 1
    48   28   46 1
@<TRIPOS>MOLECULE
ZINC29128227
   60    64     0     0     0
SMALL
USER_CHARGES
(2S)-1-[2-(1-methylbenzimidazol-2-yl)sulfanylacetyl]-N-(2-phenylphenyl)pyrrolidine-2-carboxamide
@<TRIPOS>ATOM
      1 C1         -2.4516    2.0634    0.0516 C.3       1 <0>         0.0704
      2 N1         -1.0115    2.3316    0.0356 N.pl3     1 <0>        -0.4757
      3 C2          0.0005    1.3855    0.0202 C.ar      1 <0>         0.0532
      4 C3          0.0200   -0.0008    0.0150 C.ar      1 <0>        -0.1094
      5 C4          1.2261   -0.6706   -0.0084 C.ar      1 <0>        -0.1011
      6 C5          2.4207    0.0339   -0.0267 C.ar      1 <0>        -0.1250
      7 C6          2.4201    1.4108   -0.0218 C.ar      1 <0>        -0.0668
      8 C7          1.2072    2.1041    0.0017 C.ar      1 <0>         0.0564
      9 N2          0.8872    3.4245    0.0115 N.2       1 <0>        -0.4980
     10 C8         -0.4160    3.5614    0.0344 C.2       1 <0>         0.2452
     11 S1         -1.2723    5.1011    0.0541 S.3       1 <0>         0.0778
     12 C9          0.1324    6.2423    0.0343 C.3       1 <0>        -0.1381
     13 C10        -0.3733    7.6619    0.0477 C.2       1 <0>         0.5577
     14 O1         -1.5661    7.8805    0.0685 O.2       1 <0>        -0.5095
     15 N3          0.4999    8.6885    0.0365 N.am      1 <0>        -0.6004
     16 C11         1.9689    8.5667    0.0108 C.3       1 <0>         0.0888
     17 C12         2.4874    9.8941    0.6182 C.3       1 <0>        -0.1308
     18 C13         1.4647   10.9154    0.0540 C.3       1 <0>        -0.1207
     19 C14         0.1451   10.1152    0.0415 C.3       1 <0>         0.1291
     20 H1         -0.4839   10.3235    0.9195 H         1 <0>         0.1089
     21 C15        -0.6489   10.4502   -1.1949 C.2       1 <0>         0.5049
     22 O2         -0.8989    9.5855   -2.0078 O.2       1 <0>        -0.4977
     23 N4         -1.0810   11.7106   -1.3973 N.am      1 <0>        -0.6791
     24 C16        -1.7163   12.0475   -2.5954 C.ar      1 <0>         0.1730
     25 C17        -1.4694   11.3118   -3.7455 C.ar      1 <0>        -0.1335
     26 C18        -2.1025   11.6432   -4.9277 C.ar      1 <0>        -0.0943
     27 C19        -2.9769   12.7150   -4.9755 C.ar      1 <0>        -0.1393
     28 C20        -3.2278   13.4593   -3.8408 C.ar      1 <0>        -0.0847
     29 C21        -2.5996   13.1318   -2.6415 C.ar      1 <0>        -0.0849
     30 C22        -2.8661   13.9282   -1.4191 C.ar      1 <0>        -0.0450
     31 C23        -3.2136   13.2895   -0.2301 C.ar      1 <0>        -0.1151
     32 C24        -3.4558   14.0354    0.9056 C.ar      1 <0>        -0.1161
     33 C25        -3.3645   15.4150    0.8626 C.ar      1 <0>        -0.1173
     34 C26        -3.0252   16.0546   -0.3160 C.ar      1 <0>        -0.1160
     35 C27        -2.7756   15.3185   -1.4565 C.ar      1 <0>        -0.1050
     36 H2         -2.6222    0.9767    0.0484 H         1 <0>         0.0944
     37 H3         -2.9177    2.5104   -0.8389 H         1 <0>         0.0862
     38 H4         -2.8961    2.5017    0.9573 H         1 <0>         0.0858
     39 H5         -0.9067   -0.5552    0.0295 H         1 <0>         0.1224
     40 H6          1.2400   -1.7505   -0.0128 H         1 <0>         0.1317
     41 H7          3.3585   -0.5016   -0.0445 H         1 <0>         0.1313
     42 H8          3.3540    1.9531   -0.0365 H         1 <0>         0.1297
     43 H9          0.7590    6.0679    0.9214 H         1 <0>         0.1279
     44 H10         0.7287    6.0741   -0.8746 H         1 <0>         0.1287
     45 H11         2.2752    7.6970    0.6107 H         1 <0>         0.0864
     46 H12         2.3077    8.4338   -1.0272 H         1 <0>         0.0755
     47 H13         2.4723    9.8256    1.7160 H         1 <0>         0.0848
     48 H14         3.5169   10.0763    0.2763 H         1 <0>         0.0936
     49 H15         1.4204   11.7933    0.7153 H         1 <0>         0.0988
     50 H16         1.7778   11.2300   -0.9525 H         1 <0>         0.0873
     51 H17        -0.9336   12.4742   -0.6193 H         1 <0>         0.4329
     52 H18        -0.7847   10.4772   -3.7155 H         1 <0>         0.1440
     53 H19        -1.9113   11.0654   -5.8199 H         1 <0>         0.1251
     54 H20        -3.4647   12.9701   -5.9047 H         1 <0>         0.1247
     55 H21        -3.9108   14.2949   -3.8825 H         1 <0>         0.1263
     56 H22        -3.2896   12.2127   -0.1965 H         1 <0>         0.1230
     57 H23        -3.7208   13.5412    1.8286 H         1 <0>         0.1246
     58 H24        -3.5593   15.9949    1.7526 H         1 <0>         0.1233
     59 H25        -2.9550   17.1319   -0.3437 H         1 <0>         0.1249
     60 H26        -2.5111   15.8190   -2.3763 H         1 <0>         0.1248
@<TRIPOS>BOND
     1    1    2 1
     2    1   36 1
     3    1   37 1
     4    1   38 1
     5    2   10 1
     6    2    3 1
     7    3    8 ar
     8    3    4 ar
     9    4    5 ar
    10    4   39 1
    11    5    6 ar
    12    5   40 1
    13    6    7 ar
    14    6   41 1
    15    7    8 ar
    16    7   42 1
    17    8    9 1
    18    9   10 2
    19   10   11 1
    20   11   12 1
    21   12   13 1
    22   12   43 1
    23   12   44 1
    24   13   14 2
    25   13   15 am
    26   15   19 1
    27   15   16 1
    28   16   17 1
    29   16   45 1
    30   16   46 1
    31   17   18 1
    32   17   47 1
    33   17   48 1
    34   18   19 1
    35   18   49 1
    36   18   50 1
    37   19   20 1
    38   19   21 1
    39   21   22 2
    40   21   23 am
    41   23   24 1
    42   23   51 1
    43   24   29 ar
    44   24   25 ar
    45   25   26 ar
    46   25   52 1
    47   26   27 ar
    48   26   53 1
    49   27   28 ar
    50   27   54 1
    51   28   29 ar
    52   28   55 1
    53   29   30 1
    54   30   35 ar
    55   30   31 ar
    56   31   32 ar
    57   31   56 1
    58   32   33 ar
    59   32   57 1
    60   33   34 ar
    61   33   58 1
    62   34   35 ar
    63   34   59 1
    64   35   60 1
@<TRIPOS>MOLECULE
ZINC29128228
   62    66     0     0     0
SMALL
USER_CHARGES
(2S)-1-[3-(1-methylbenzimidazol-2-yl)propanoyl]-N-(2-phenylphenyl)pyrrolidine-2-carboxamide
@<TRIPOS>ATOM
      1 C1         -3.0735    4.9227    0.0218 C.3       1 <0>         0.0733
      2 N1         -2.5612    3.5502    0.0198 N.pl3     1 <0>        -0.4911
      3 C2         -1.2334    3.1724    0.0082 C.ar      1 <0>         0.0458
      4 C3         -0.0309    3.8661   -0.0051 C.ar      1 <0>        -0.1120
      5 C4          1.1589    3.1698   -0.0145 C.ar      1 <0>        -0.1011
      6 C5          1.1618    1.7820   -0.0114 C.ar      1 <0>        -0.1285
      7 C6         -0.0117    1.0829    0.0021 C.ar      1 <0>        -0.0631
      8 C7         -1.2300    1.7674    0.0064 C.ar      1 <0>         0.0456
      9 N2         -2.5279    1.3687    0.0252 N.2       1 <0>        -0.4867
     10 C8         -3.3057    2.4117    0.0298 C.2       1 <0>         0.2844
     11 C9         -4.8119    2.3653    0.0447 C.3       1 <0>        -0.0278
     12 C10        -5.3358    2.3461   -1.3927 C.3       1 <0>        -0.1276
     13 C11        -6.8420    2.2996   -1.3778 C.2       1 <0>         0.5407
     14 O1         -7.4378    2.2835   -0.3215 O.2       1 <0>        -0.5196
     15 N3         -7.5270    2.2760   -2.5382 N.am      1 <0>        -0.6077
     16 C12        -6.9328    2.2979   -3.8873 C.3       1 <0>         0.0932
     17 C13        -8.0038    1.6455   -4.8004 C.3       1 <0>        -0.1346
     18 C14        -9.3155    2.1911   -4.1766 C.3       1 <0>        -0.1211
     19 C15        -8.9907    2.2306   -2.6685 C.3       1 <0>         0.1270
     20 H1         -9.4206    3.1092   -2.1653 H         1 <0>         0.1056
     21 C16        -9.5270    0.9931   -1.9961 C.2       1 <0>         0.5055
     22 O2         -8.7659    0.2177   -1.4571 O.2       1 <0>        -0.4945
     23 N4        -10.8522    0.7480   -1.9937 N.am      1 <0>        -0.6812
     24 C17       -11.3396   -0.4536   -1.4729 C.ar      1 <0>         0.1734
     25 C18       -10.5271   -1.5776   -1.4370 C.ar      1 <0>        -0.1331
     26 C19       -11.0108   -2.7645   -0.9218 C.ar      1 <0>        -0.0942
     27 C20       -12.3056   -2.8404   -0.4387 C.ar      1 <0>        -0.1394
     28 C21       -13.1251   -1.7304   -0.4676 C.ar      1 <0>        -0.0850
     29 C22       -12.6473   -0.5266   -0.9802 C.ar      1 <0>        -0.0856
     30 C23       -13.5220    0.6707   -1.0083 C.ar      1 <0>        -0.0445
     31 C24       -13.0621    1.8850   -0.5017 C.ar      1 <0>        -0.1146
     32 C25       -13.8786    2.9972   -0.5353 C.ar      1 <0>        -0.1164
     33 C26       -15.1551    2.9058   -1.0603 C.ar      1 <0>        -0.1176
     34 C27       -15.6188    1.7018   -1.5592 C.ar      1 <0>        -0.1161
     35 C28       -14.8091    0.5845   -1.5361 C.ar      1 <0>        -0.1052
     36 H2         -2.2301    5.6289    0.0118 H         1 <0>         0.0903
     37 H3         -3.6785    5.0869    0.9257 H         1 <0>         0.0827
     38 H4         -3.6964    5.0828   -0.8706 H         1 <0>         0.0800
     39 H5         -0.0275    4.9461   -0.0076 H         1 <0>         0.1209
     40 H6          2.0952    3.7080   -0.0248 H         1 <0>         0.1303
     41 H7          2.1013    1.2494   -0.0192 H         1 <0>         0.1300
     42 H8          0.0020    0.0030    0.0048 H         1 <0>         0.1293
     43 H9         -5.1456    1.4575    0.5688 H         1 <0>         0.1120
     44 H10        -5.2010    3.2530    0.5650 H         1 <0>         0.0931
     45 H11        -5.0021    3.2539   -1.9167 H         1 <0>         0.0925
     46 H12        -4.9467    1.4585   -1.9130 H         1 <0>         0.1051
     47 H13        -6.7255    3.3378   -4.1798 H         1 <0>         0.0751
     48 H14        -5.9944    1.7239   -3.8840 H         1 <0>         0.0810
     49 H15        -7.8476    1.9714   -5.8393 H         1 <0>         0.0932
     50 H16        -7.9171    0.5504   -4.7427 H         1 <0>         0.0800
     51 H17        -9.5310    3.1877   -4.5894 H         1 <0>         0.0957
     52 H18       -10.1454    1.5090   -4.4131 H         1 <0>         0.0904
     53 H19       -11.5502    1.4939   -2.4017 H         1 <0>         0.4321
     54 H20        -9.5156   -1.5244   -1.8119 H         1 <0>         0.1442
     55 H21       -10.3754   -3.6374   -0.8955 H         1 <0>         0.1253
     56 H22       -12.6761   -3.7721   -0.0372 H         1 <0>         0.1246
     57 H23       -14.1347   -1.7939   -0.0893 H         1 <0>         0.1261
     58 H24       -12.0671    1.9566   -0.0878 H         1 <0>         0.1229
     59 H25       -13.5217    3.9397   -0.1471 H         1 <0>         0.1243
     60 H26       -15.7919    3.7778   -1.0811 H         1 <0>         0.1232
     61 H27       -16.6163    1.6362   -1.9679 H         1 <0>         0.1248
     62 H28       -15.1719   -0.3548   -1.9265 H         1 <0>         0.1248
@<TRIPOS>BOND
     1    1    2 1
     2    1   36 1
     3    1   37 1
     4    1   38 1
     5    2   10 1
     6    2    3 1
     7    3    8 ar
     8    3    4 ar
     9    4    5 ar
    10    4   39 1
    11    5    6 ar
    12    5   40 1
    13    6    7 ar
    14    6   41 1
    15    7    8 ar
    16    7   42 1
    17    8    9 1
    18    9   10 2
    19   10   11 1
    20   11   12 1
    21   11   43 1
    22   11   44 1
    23   12   13 1
    24   12   45 1
    25   12   46 1
    26   13   14 2
    27   13   15 am
    28   15   19 1
    29   15   16 1
    30   16   17 1
    31   16   47 1
    32   16   48 1
    33   17   18 1
    34   17   49 1
    35   17   50 1
    36   18   19 1
    37   18   51 1
    38   18   52 1
    39   19   20 1
    40   19   21 1
    41   21   22 2
    42   21   23 am
    43   23   24 1
    44   23   53 1
    45   24   29 ar
    46   24   25 ar
    47   25   26 ar
    48   25   54 1
    49   26   27 ar
    50   26   55 1
    51   27   28 ar
    52   27   56 1
    53   28   29 ar
    54   28   57 1
    55   29   30 1
    56   30   35 ar
    57   30   31 ar
    58   31   32 ar
    59   31   58 1
    60   32   33 ar
    61   32   59 1
    62   33   34 ar
    63   33   60 1
    64   34   35 ar
    65   34   61 1
    66   35   62 1
@<TRIPOS>MOLECULE
ZINC29128228
   63    67     0     0     0
SMALL
USER_CHARGES
(2S)-1-[3-(1-methylbenzimidazol-2-yl)propanoyl]-N-(2-phenylphenyl)pyrrolidine-2-carboxamide
@<TRIPOS>ATOM
      1 C1         -3.0735    4.9227    0.0218 C.3       1 <0>         0.0539
      2 N1         -2.5612    3.5502    0.0198 N.pl3     1 <0>        -0.4304
      3 C2         -1.2334    3.1724    0.0082 C.ar      1 <0>         0.0738
      4 C3         -0.0309    3.8661   -0.0051 C.ar      1 <0>        -0.0907
      5 C4          1.1589    3.1698   -0.0145 C.ar      1 <0>        -0.0670
      6 C5          1.1618    1.7820   -0.0114 C.ar      1 <0>        -0.0809
      7 C6         -0.0117    1.0829    0.0021 C.ar      1 <0>        -0.0770
      8 C7         -1.2300    1.7674    0.0064 C.ar      1 <0>         0.0410
      9 N2         -2.5279    1.3687    0.0252 N.pl3     1 <0>        -0.5054
     10 C8         -3.3057    2.4117    0.0298 C.cat     1 <0>         0.3995
     11 C9         -4.8119    2.3653    0.0447 C.3       1 <0>        -0.0681
     12 C10        -5.3358    2.3461   -1.3927 C.3       1 <0>        -0.1374
     13 C11        -6.8420    2.2996   -1.3778 C.2       1 <0>         0.5386
     14 O1         -7.4378    2.2835   -0.3215 O.2       1 <0>        -0.5152
     15 N3         -7.5270    2.2760   -2.5382 N.am      1 <0>        -0.6017
     16 C12        -6.9328    2.2979   -3.8873 C.3       1 <0>         0.0923
     17 C13        -8.0038    1.6455   -4.8004 C.3       1 <0>        -0.1349
     18 C14        -9.3155    2.1911   -4.1766 C.3       1 <0>        -0.1237
     19 C15        -8.9907    2.2306   -2.6685 C.3       1 <0>         0.1263
     20 H1         -9.4206    3.1092   -2.1653 H         1 <0>         0.1099
     21 C16        -9.5270    0.9931   -1.9961 C.2       1 <0>         0.5087
     22 O2         -8.7659    0.2177   -1.4571 O.2       1 <0>        -0.5058
     23 N4        -10.8522    0.7480   -1.9937 N.am      1 <0>        -0.6772
     24 C17       -11.3396   -0.4536   -1.4729 C.ar      1 <0>         0.1671
     25 C18       -10.5271   -1.5776   -1.4370 C.ar      1 <0>        -0.1329
     26 C19       -11.0108   -2.7645   -0.9218 C.ar      1 <0>        -0.0966
     27 C20       -12.3056   -2.8404   -0.4387 C.ar      1 <0>        -0.1349
     28 C21       -13.1251   -1.7304   -0.4676 C.ar      1 <0>        -0.0841
     29 C22       -12.6473   -0.5266   -0.9802 C.ar      1 <0>        -0.0794
     30 C23       -13.5220    0.6707   -1.0083 C.ar      1 <0>        -0.0492
     31 C24       -13.0621    1.8850   -0.5017 C.ar      1 <0>        -0.1162
     32 C25       -13.8786    2.9972   -0.5353 C.ar      1 <0>        -0.1171
     33 C26       -15.1551    2.9058   -1.0603 C.ar      1 <0>        -0.1148
     34 C27       -15.6188    1.7018   -1.5592 C.ar      1 <0>        -0.1138
     35 C28       -14.8091    0.5845   -1.5361 C.ar      1 <0>        -0.1034
     36 H2         -2.2301    5.6289    0.0118 H         1 <0>         0.1190
     37 H3         -3.6785    5.0869    0.9257 H         1 <0>         0.1117
     38 H4         -3.6964    5.0828   -0.8706 H         1 <0>         0.1088
     39 H5         -0.0275    4.9461   -0.0076 H         1 <0>         0.1495
     40 H6          2.0952    3.7080   -0.0248 H         1 <0>         0.1559
     41 H7          2.1013    1.2494   -0.0192 H         1 <0>         0.1557
     42 H8          0.0020    0.0030    0.0048 H         1 <0>         0.1520
     43 H9         -5.1456    1.4575    0.5688 H         1 <0>         0.1366
     44 H10        -5.2010    3.2530    0.5650 H         1 <0>         0.1334
     45 H11        -5.0021    3.2539   -1.9167 H         1 <0>         0.1060
     46 H12        -4.9467    1.4585   -1.9130 H         1 <0>         0.1083
     47 H13        -6.7255    3.3378   -4.1798 H         1 <0>         0.0789
     48 H14        -5.9944    1.7239   -3.8840 H         1 <0>         0.0776
     49 H15        -7.8476    1.9714   -5.8393 H         1 <0>         0.0970
     50 H16        -7.9171    0.5504   -4.7427 H         1 <0>         0.0812
     51 H17        -9.5310    3.1877   -4.5894 H         1 <0>         0.0993
     52 H18       -10.1454    1.5090   -4.4131 H         1 <0>         0.0947
     53 H19       -11.5502    1.4939   -2.4017 H         1 <0>         0.4349
     54 H20        -9.5156   -1.5244   -1.8119 H         1 <0>         0.1419
     55 H21       -10.3754   -3.6374   -0.8955 H         1 <0>         0.1252
     56 H22       -12.6761   -3.7721   -0.0372 H         1 <0>         0.1267
     57 H23       -14.1347   -1.7939   -0.0893 H         1 <0>         0.1285
     58 H24       -12.0671    1.9566   -0.0878 H         1 <0>         0.1207
     59 H25       -13.5217    3.9397   -0.1471 H         1 <0>         0.1243
     60 H26       -15.7919    3.7778   -1.0811 H         1 <0>         0.1250
     61 H27       -16.6163    1.6362   -1.9679 H         1 <0>         0.1270
     62 H28       -15.1719   -0.3548   -1.9265 H         1 <0>         0.1259
     63 H29        -2.7739    0.2966    0.0339 H         1 <0>         0.5008
@<TRIPOS>BOND
     1    1    2 1
     2    1   36 1
     3    1   37 1
     4    1   38 1
     5    2   10 1
     6    2    3 1
     7    3    8 ar
     8    3    4 ar
     9    4    5 ar
    10    4   39 1
    11    5    6 ar
    12    5   40 1
    13    6    7 ar
    14    6   41 1
    15    7    8 ar
    16    7   42 1
    17    8    9 1
    18    9   10 2
    19    9   63 1
    20   10   11 1
    21   11   12 1
    22   11   43 1
    23   11   44 1
    24   12   13 1
    25   12   45 1
    26   12   46 1
    27   13   14 2
    28   13   15 am
    29   15   19 1
    30   15   16 1
    31   16   17 1
    32   16   47 1
    33   16   48 1
    34   17   18 1
    35   17   49 1
    36   17   50 1
    37   18   19 1
    38   18   51 1
    39   18   52 1
    40   19   20 1
    41   19   21 1
    42   21   22 2
    43   21   23 am
    44   23   24 1
    45   23   53 1
    46   24   29 ar
    47   24   25 ar
    48   25   26 ar
    49   25   54 1
    50   26   27 ar
    51   26   55 1
    52   27   28 ar
    53   27   56 1
    54   28   29 ar
    55   28   57 1
    56   29   30 1
    57   30   35 ar
    58   30   31 ar
    59   31   32 ar
    60   31   58 1
    61   32   33 ar
    62   32   59 1
    63   33   34 ar
    64   33   60 1
    65   34   35 ar
    66   34   61 1
    67   35   62 1
@<TRIPOS>MOLECULE
ZINC35953488
   68    71     0     0     0
SMALL
USER_CHARGES

@<TRIPOS>ATOM
      1 C1          0.1332    0.8106    1.1210 C.3       1 <0>         0.0834
      2 N1          0.0460   -0.5520    0.5901 N.am      1 <0>        -0.7316
      3 C2          0.5894   -0.8446   -0.6080 C.2       1 <0>         0.4902
      4 O1          1.1506    0.0202   -1.2467 O.2       1 <0>        -0.5293
      5 C3          0.4997   -2.2463   -1.1540 C.3       1 <0>         0.1007
      6 H1          1.2127   -2.8855   -0.6332 H         1 <0>         0.1247
      7 C4         -0.8954   -2.7776   -0.9475 C.ar      1 <0>        -0.0779
      8 C5         -1.7254   -2.9809   -2.0340 C.ar      1 <0>        -0.0992
      9 C6         -3.0051   -3.4682   -1.8445 C.ar      1 <0>        -0.1162
     10 C7         -3.4545   -3.7526   -0.5686 C.ar      1 <0>        -0.1161
     11 C8         -2.6241   -3.5502    0.5179 C.ar      1 <0>        -0.1128
     12 C9         -1.3430   -3.0669    0.3280 C.ar      1 <0>        -0.1277
     13 N2          0.8112   -2.2335   -2.5895 N.3       1 <0>        -0.4910
     14 C10         0.0949   -1.1460   -3.2750 C.3       1 <0>         0.0202
     15 C11         0.1568   -1.3983   -4.7816 C.3       1 <0>        -0.0712
     16 C12         1.5804   -1.6621   -5.2013 C.ar      1 <0>        -0.0613
     17 C13         1.9011   -1.5591   -6.5470 C.ar      1 <0>        -0.1735
     18 C14         3.1937   -1.7964   -6.9785 C.ar      1 <0>         0.1022
     19 C15         4.1762   -2.1409   -6.0545 C.ar      1 <0>         0.0999
     20 C16         3.8516   -2.2406   -4.7137 C.ar      1 <0>        -0.1696
     21 C17         2.5539   -1.9991   -4.2852 C.ar      1 <0>        -0.0598
     22 C18         2.2551   -2.1101   -2.8128 C.3       1 <0>         0.1205
     23 H2          2.6230   -1.2197   -2.3030 H         1 <0>         0.0802
     24 C19         2.9609   -3.3435   -2.2459 C.3       1 <0>        -0.1063
     25 C20         2.3650   -4.6054   -2.8731 C.3       1 <0>        -0.0793
     26 C21         2.9776   -5.8231   -2.2305 C.ar      1 <0>        -0.0441
     27 C22         4.1289   -6.3776   -2.7577 C.ar      1 <0>        -0.1203
     28 C23         4.6908   -7.4946   -2.1682 C.ar      1 <0>        -0.0668
     29 C24         4.1015   -8.0569   -1.0512 C.ar      1 <0>        -0.1903
     30 C25         2.9507   -7.5019   -0.5235 C.ar      1 <0>        -0.0670
     31 C26         2.3912   -6.3823   -1.1105 C.ar      1 <0>        -0.1186
     32 C27         4.7135   -9.2752   -0.4092 C.3       1 <0>         0.5076
     33 F1          5.6338   -8.8758    0.5659 F         1 <0>        -0.1773
     34 F2          3.7074  -10.0437    0.1861 F         1 <0>        -0.1775
     35 F3          5.3675  -10.0370   -1.3834 F         1 <0>        -0.1774
     36 O2          5.4496   -2.3790   -6.4684 O.3       1 <0>        -0.3058
     37 C28         6.4039   -2.7275   -5.4635 C.3       1 <0>         0.0261
     38 O3          3.5033   -1.6933   -8.2987 O.3       1 <0>        -0.3068
     39 C29         2.4433   -1.3352   -9.1876 C.3       1 <0>         0.0265
     40 H3          1.1806    1.0912    1.2313 H         1 <0>         0.0612
     41 H4         -0.3573    1.5003    0.4339 H         1 <0>         0.0607
     42 H5         -0.3590    0.8543    2.0925 H         1 <0>         0.0760
     43 H6         -0.4029   -1.2437    1.1010 H         1 <0>         0.4016
     44 H7         -1.3743   -2.7587   -3.0308 H         1 <0>         0.1434
     45 H8         -3.6539   -3.6263   -2.6933 H         1 <0>         0.1237
     46 H9         -4.4545   -4.1326   -0.4205 H         1 <0>         0.1226
     47 H10        -2.9753   -3.7721    1.5148 H         1 <0>         0.1248
     48 H11        -0.6929   -2.9123    1.1765 H         1 <0>         0.1197
     49 H12        -0.9450   -1.1299   -2.9488 H         1 <0>         0.0842
     50 H13         0.5692   -0.1923   -3.0435 H         1 <0>         0.0825
     51 H14        -0.4595   -2.2624   -5.0294 H         1 <0>         0.0811
     52 H15        -0.2202   -0.5231   -5.3108 H         1 <0>         0.0783
     53 H16         1.1369   -1.2924   -7.2621 H         1 <0>         0.1340
     54 H17         4.6128   -2.5083   -3.9958 H         1 <0>         0.1356
     55 H18         4.0250   -3.2910   -2.4761 H         1 <0>         0.0730
     56 H19         2.8241   -3.3757   -1.1650 H         1 <0>         0.0658
     57 H20         1.2865   -4.6150   -2.7155 H         1 <0>         0.0944
     58 H21         2.5760   -4.6140   -3.9425 H         1 <0>         0.0779
     59 H22         4.5892   -5.9383   -3.6303 H         1 <0>         0.1318
     60 H23         5.5899   -7.9281   -2.5805 H         1 <0>         0.1344
     61 H24         2.4902   -7.9414    0.3489 H         1 <0>         0.1343
     62 H25         1.4942   -5.9465   -0.6960 H         1 <0>         0.1334
     63 H26         7.3768   -2.8903   -5.9272 H         1 <0>         0.1007
     64 H27         6.4785   -1.9183   -4.7370 H         1 <0>         0.0542
     65 H28         6.0844   -3.6398   -4.9597 H         1 <0>         0.0537
     66 H29         1.6524   -2.0831   -9.1298 H         1 <0>         0.0547
     67 H30         2.0441   -0.3616   -8.9034 H         1 <0>         0.0544
     68 H31         2.8247   -1.2879  -10.2075 H         1 <0>         0.1004
@<TRIPOS>BOND
     1    1    2 1
     2    1   40 1
     3    1   41 1
     4    1   42 1
     5    2    3 am
     6    2   43 1
     7    3    4 2
     8    3    5 1
     9    5    6 1
    10    5    7 1
    11    5   13 1
    12    7   12 ar
    13    7    8 ar
    14    8    9 ar
    15    8   44 1
    16    9   10 ar
    17    9   45 1
    18   10   11 ar
    19   10   46 1
    20   11   12 ar
    21   11   47 1
    22   12   48 1
    23   13   22 1
    24   13   14 1
    25   14   15 1
    26   14   49 1
    27   14   50 1
    28   15   16 1
    29   15   51 1
    30   15   52 1
    31   16   21 ar
    32   16   17 ar
    33   17   18 ar
    34   17   53 1
    35   18   19 ar
    36   18   38 1
    37   19   20 ar
    38   19   36 1
    39   20   21 ar
    40   20   54 1
    41   21   22 1
    42   22   23 1
    43   22   24 1
    44   24   25 1
    45   24   55 1
    46   24   56 1
    47   25   26 1
    48   25   57 1
    49   25   58 1
    50   26   31 ar
    51   26   27 ar
    52   27   28 ar
    53   27   59 1
    54   28   29 ar
    55   28   60 1
    56   29   30 ar
    57   29   32 1
    58   30   31 ar
    59   30   61 1
    60   31   62 1
    61   32   33 1
    62   32   34 1
    63   32   35 1
    64   36   37 1
    65   37   63 1
    66   37   64 1
    67   37   65 1
    68   38   39 1
    69   39   66 1
    70   39   67 1
    71   39   68 1
@<TRIPOS>MOLECULE
ZINC35953488
   69    72     0     0     0
SMALL
USER_CHARGES

@<TRIPOS>ATOM
      1 C1         -0.5693    0.5729   -1.2642 C.3       1 <0>         0.0772
      2 N1         -0.4546   -0.8338   -0.8716 N.am      1 <0>        -0.6940
      3 C2         -1.5644   -1.5549   -0.6168 C.2       1 <0>         0.5131
      4 O1         -2.6579   -1.0393   -0.7125 O.2       1 <0>        -0.5148
      5 C3         -1.4464   -3.0020   -0.2130 C.3       1 <0>         0.0581
      6 H1         -0.9454   -3.5603   -1.0038 H         1 <0>         0.1683
      7 C4         -0.6453   -3.1048    1.0593 C.ar      1 <0>        -0.1366
      8 C5         -1.1300   -2.5483    2.2282 C.ar      1 <0>        -0.1157
      9 C6         -0.3952   -2.6426    3.3952 C.ar      1 <0>        -0.0950
     10 C7          0.8242   -3.2938    3.3936 C.ar      1 <0>        -0.0802
     11 C8          1.3085   -3.8511    2.2249 C.ar      1 <0>        -0.0993
     12 C9          0.5716   -3.7605    1.0588 C.ar      1 <0>        -0.0987
     13 N2         -2.7874   -3.5601    0.0064 N.4       1 <0>        -0.3621
     14 C10        -3.6423   -3.2566   -1.1515 C.3       1 <0>        -0.0526
     15 C11        -5.0931   -3.5668   -0.7810 C.3       1 <0>        -0.0943
     16 C12        -5.1869   -4.9576   -0.2066 C.ar      1 <0>        -0.0802
     17 C13        -6.4334   -5.5603   -0.1295 C.ar      1 <0>        -0.1671
     18 C14        -6.5625   -6.8342    0.3946 C.ar      1 <0>         0.1325
     19 C15        -5.4331   -7.5115    0.8457 C.ar      1 <0>         0.1152
     20 C16        -4.1920   -6.9062    0.7647 C.ar      1 <0>        -0.1618
     21 C17        -4.0672   -5.6289    0.2372 C.ar      1 <0>        -0.1231
     22 C18        -2.6940   -5.0144    0.1621 C.3       1 <0>         0.0908
     23 H2         -2.1588   -5.4334   -0.6900 H         1 <0>         0.1419
     24 C19        -1.9268   -5.3359    1.4462 C.3       1 <0>        -0.1920
     25 C20        -1.1450   -6.6380    1.2607 C.3       1 <0>        -0.0825
     26 C21        -0.4332   -6.9835    2.5433 C.ar      1 <0>        -0.0570
     27 C22         0.8988   -6.6514    2.7055 C.ar      1 <0>        -0.1165
     28 C23         1.5518   -6.9684    3.8820 C.ar      1 <0>        -0.0657
     29 C24         0.8727   -7.6170    4.8963 C.ar      1 <0>        -0.1737
     30 C25        -0.4596   -7.9483    4.7344 C.ar      1 <0>        -0.0626
     31 C26        -1.1137   -7.6275    3.5596 C.ar      1 <0>        -0.1172
     32 C27         1.5848   -7.9635    6.1785 C.3       1 <0>         0.5049
     33 F1          1.4540   -6.9059    7.0850 F         1 <0>        -0.1747
     34 F2          1.0210   -9.1203    6.7271 F         1 <0>        -0.1738
     35 F3          2.9404   -8.1857    5.9136 F         1 <0>        -0.1743
     36 O2         -5.5495   -8.7632    1.3645 O.3       1 <0>        -0.2949
     37 C28        -4.3474   -9.3964    1.8072 C.3       1 <0>         0.0207
     38 O3         -7.7867   -7.4217    0.4690 O.3       1 <0>        -0.2964
     39 C29        -8.8995   -6.6657   -0.0128 C.3       1 <0>         0.0210
     40 H3          0.4258    0.9870   -1.4269 H         1 <0>         0.0924
     41 H4         -1.1487    0.6473   -2.1844 H         1 <0>         0.0753
     42 H5         -1.0703    1.1312   -0.4733 H         1 <0>         0.0744
     43 H6          0.4200   -1.2462   -0.7951 H         1 <0>         0.4134
     44 H7         -2.0827   -2.0395    2.2295 H         1 <0>         0.1270
     45 H8         -0.7736   -2.2071    4.3083 H         1 <0>         0.1391
     46 H9          1.3986   -3.3668    4.3052 H         1 <0>         0.1382
     47 H10         2.2613   -4.3596    2.2235 H         1 <0>         0.1415
     48 H11         0.9483   -4.1992    0.1466 H         1 <0>         0.1401
     49 H12        -3.5480   -2.2018   -1.4096 H         1 <0>         0.1898
     50 H13        -3.3416   -3.8718   -1.9996 H         1 <0>         0.1249
     51 H14        -5.4405   -2.8452   -0.0416 H         1 <0>         0.1030
     52 H15        -5.7169   -3.5000   -1.6723 H         1 <0>         0.1222
     53 H16        -7.3080   -5.0324   -0.4800 H         1 <0>         0.1472
     54 H17        -3.3150   -7.4306    1.1145 H         1 <0>         0.1515
     55 H18        -1.2337   -4.5245    1.6681 H         1 <0>         0.1360
     56 H19        -2.6302   -5.4488    2.2711 H         1 <0>         0.0965
     57 H20        -1.8339   -7.4413    0.9997 H         1 <0>         0.0868
     58 H21        -0.4141   -6.5123    0.4620 H         1 <0>         0.0868
     59 H22         1.4295   -6.1447    1.9131 H         1 <0>         0.1364
     60 H23         2.5927   -6.7096    4.0085 H         1 <0>         0.1393
     61 H24        -0.9901   -8.4554    5.5268 H         1 <0>         0.1397
     62 H25        -2.1556   -7.8830    3.4346 H         1 <0>         0.1303
     63 H26        -3.6562   -9.4897    0.9696 H         1 <0>         0.0583
     64 H27        -3.8881   -8.7956    2.5921 H         1 <0>         0.0555
     65 H28        -4.5810  -10.3869    2.1975 H         1 <0>         0.1113
     66 H29        -8.9837   -5.7400    0.5566 H         1 <0>         0.0602
     67 H30        -8.7506   -6.4315   -1.0669 H         1 <0>         0.0605
     68 H31        -9.8129   -7.2487    0.1043 H         1 <0>         0.1106
     69 H32        -3.1891   -3.1564    0.8393 H         1 <0>         0.4255
@<TRIPOS>BOND
     1    1    2 1
     2    1   40 1
     3    1   41 1
     4    1   42 1
     5    2    3 am
     6    2   43 1
     7    3    4 2
     8    3    5 1
     9    5    6 1
    10    5    7 1
    11    5   13 1
    12    7   12 ar
    13    7    8 ar
    14    8    9 ar
    15    8   44 1
    16    9   10 ar
    17    9   45 1
    18   10   11 ar
    19   10   46 1
    20   11   12 ar
    21   11   47 1
    22   12   48 1
    23   13   22 1
    24   13   14 1
    25   13   69 1
    26   14   15 1
    27   14   49 1
    28   14   50 1
    29   15   16 1
    30   15   51 1
    31   15   52 1
    32   16   21 ar
    33   16   17 ar
    34   17   18 ar
    35   17   53 1
    36   18   19 ar
    37   18   38 1
    38   19   20 ar
    39   19   36 1
    40   20   21 ar
    41   20   54 1
    42   21   22 1
    43   22   23 1
    44   22   24 1
    45   24   25 1
    46   24   55 1
    47   24   56 1
    48   25   26 1
    49   25   57 1
    50   25   58 1
    51   26   31 ar
    52   26   27 ar
    53   27   28 ar
    54   27   59 1
    55   28   29 ar
    56   28   60 1
    57   29   30 ar
    58   29   32 1
    59   30   31 ar
    60   30   61 1
    61   31   62 1
    62   32   33 1
    63   32   34 1
    64   32   35 1
    65   36   37 1
    66   37   63 1
    67   37   64 1
    68   37   65 1
    69   38   39 1
    70   39   66 1
    71   39   67 1
    72   39   68 1
@<TRIPOS>MOLECULE
ZINC02061133
   49    50     0     0     0
SMALL
USER_CHARGES

@<TRIPOS>ATOM
      1 C1          1.1702   -0.2059    4.5458 C.3       1 <0>        -0.1669
      2 C2          0.8498   -1.5903    3.9787 C.3       1 <0>         0.1118
      3 N1         -0.1187   -1.4589    2.8874 N.am      1 <0>        -0.6109
      4 C3          0.3488   -1.2733    1.5114 C.3       1 <0>         0.0979
      5 C4          0.5283   -2.6389    0.8453 C.3       1 <0>        -0.1779
      6 C5         -1.4399   -1.5086    3.1492 C.2       1 <0>         0.4887
      7 O1         -1.8270   -1.6622    4.2883 O.2       1 <0>        -0.5131
      8 C6         -2.4362   -1.3733    2.0267 C.3       1 <0>         0.0903
      9 N2         -3.7952   -1.4599    2.5668 N.pl3     1 <0>        -0.9274
     10 C7         -4.4177   -0.3187    3.0777 C.ar      1 <0>         0.1338
     11 C8         -4.6844   -0.2209    4.4375 C.ar      1 <0>        -0.1026
     12 C9         -5.2996    0.9091    4.9394 C.ar      1 <0>        -0.1077
     13 C10        -5.6504    1.9423    4.0899 C.ar      1 <0>        -0.0790
     14 C11        -5.3864    1.8482    2.7357 C.ar      1 <0>        -0.1101
     15 C12        -4.7663    0.7235    2.2280 C.ar      1 <0>        -0.1087
     16 C13        -6.3225    3.1734    4.6410 C.3       1 <0>        -0.1175
     17 S1         -4.5934   -2.9109    2.5716 S.o2      1 <0>         2.6877
     18 O2         -5.9722   -2.6153    2.7466 O.2       1 <0>        -0.9355
     19 O3         -4.1073   -3.6455    1.4566 O.2       1 <0>        -0.9484
     20 C14        -4.0786   -3.7838    4.0130 C.ar      1 <0>        -0.6790
     21 C15        -2.9009   -4.5077    3.9983 C.ar      1 <0>         0.0231
     22 C16        -2.4959   -5.1924    5.1284 C.ar      1 <0>        -0.1697
     23 C17        -3.2702   -5.1533    6.2756 C.ar      1 <0>         0.1600
     24 C18        -4.4495   -4.4279    6.2891 C.ar      1 <0>        -0.1721
     25 C19        -4.8498   -3.7397    5.1595 C.ar      1 <0>         0.0129
     26 F1         -2.8755   -5.8226    7.3807 F         1 <0>        -0.1295
     27 H1          1.8908   -0.3038    5.3577 H         1 <0>         0.0661
     28 H2          1.5917    0.4202    3.7594 H         1 <0>         0.0552
     29 H3          0.2564    0.2521    4.9242 H         1 <0>         0.0589
     30 H4          1.7636   -2.0484    3.6002 H         1 <0>         0.0772
     31 H5          0.4283   -2.2165    4.7651 H         1 <0>         0.0838
     32 H6         -0.3846   -0.6907    0.9540 H         1 <0>         0.0807
     33 H7          1.3022   -0.7450    1.5198 H         1 <0>         0.0848
     34 H8          0.8762   -2.5009   -0.1785 H         1 <0>         0.0731
     35 H9          1.2617   -3.2215    1.4028 H         1 <0>         0.0617
     36 H10        -0.4251   -3.1672    0.8369 H         1 <0>         0.0606
     37 H11        -2.3012   -0.4098    1.5352 H         1 <0>         0.1201
     38 H12        -2.2806   -2.1746    1.3043 H         1 <0>         0.1262
     39 H13        -4.4112   -1.0278    5.1013 H         1 <0>         0.1283
     40 H14        -5.5072    0.9858    5.9964 H         1 <0>         0.1279
     41 H15        -5.6617    2.6570    2.0750 H         1 <0>         0.1289
     42 H16        -4.5563    0.6526    1.1710 H         1 <0>         0.1284
     43 H17        -5.5654    3.9051    4.9232 H         1 <0>         0.0721
     44 H18        -6.9761    3.6016    3.8811 H         1 <0>         0.0687
     45 H19        -6.9120    2.9040    5.5174 H         1 <0>         0.0685
     46 H20        -2.2973   -4.5384    3.1032 H         1 <0>         0.1382
     47 H21        -1.5760   -5.7582    5.1165 H         1 <0>         0.1436
     48 H22        -5.0544   -4.3969    7.1833 H         1 <0>         0.1465
     49 H23        -5.7674   -3.1702    5.1712 H         1 <0>         0.1502
@<TRIPOS>BOND
     1    1    2 1
     2    1   27 1
     3    1   28 1
     4    1   29 1
     5    2    3 1
     6    2   30 1
     7    2   31 1
     8    3    4 1
     9    3    6 am
    10    4    5 1
    11    4   32 1
    12    4   33 1
    13    5   34 1
    14    5   35 1
    15    5   36 1
    16    6    7 2
    17    6    8 1
    18    8    9 1
    19    8   37 1
    20    8   38 1
    21    9   10 1
    22    9   17 1
    23   10   15 ar
    24   10   11 ar
    25   11   12 ar
    26   11   39 1
    27   12   13 ar
    28   12   40 1
    29   13   14 ar
    30   13   16 1
    31   14   15 ar
    32   14   41 1
    33   15   42 1
    34   16   43 1
    35   16   44 1
    36   16   45 1
    37   17   18 2
    38   17   19 2
    39   17   20 1
    40   20   25 ar
    41   20   21 ar
    42   21   22 ar
    43   21   46 1
    44   22   23 ar
    45   22   47 1
    46   23   24 ar
    47   23   26 1
    48   24   25 ar
    49   24   48 1
    50   25   49 1
@<TRIPOS>MOLECULE
ZINC04851561
   57    58     0     0     0
SMALL
USER_CHARGES

@<TRIPOS>ATOM
      1 C1          1.3433    1.5809    3.2429 C.3       1 <0>        -0.1778
      2 C2          1.5433    0.0719    3.3969 C.3       1 <0>         0.0983
      3 N1          2.9691   -0.2165    3.5710 N.am      1 <0>        -0.6117
      4 C3          3.5509   -0.2498    4.9151 C.3       1 <0>         0.1124
      5 C4          3.4571   -1.6700    5.4764 C.3       1 <0>        -0.1669
      6 C5          3.7454   -0.4512    2.4946 C.2       1 <0>         0.4886
      7 O1          4.9257   -0.6899    2.6387 O.2       1 <0>        -0.5100
      8 C6          3.1469   -0.4170    1.1120 C.3       1 <0>         0.0910
      9 N2          4.1884   -0.7017    0.1218 N.pl3     1 <0>        -0.9283
     10 C7          4.5082   -2.0240   -0.1948 C.ar      1 <0>         0.1355
     11 C8          5.7445   -2.5461    0.1639 C.ar      1 <0>        -0.1026
     12 C9          6.0573   -3.8541   -0.1503 C.ar      1 <0>        -0.1086
     13 C10         5.1417   -4.6436   -0.8216 C.ar      1 <0>        -0.0794
     14 C11         3.9101   -4.1269   -1.1801 C.ar      1 <0>        -0.1103
     15 C12         3.5886   -2.8215   -0.8640 C.ar      1 <0>        -0.1089
     16 C13         5.4870   -6.0700   -1.1636 C.3       1 <0>        -0.1171
     17 S1          4.9864    0.5441   -0.6221 S.o2      1 <0>         2.6882
     18 O2          5.6015   -0.0020   -1.7809 O.2       1 <0>        -0.9396
     19 O3          4.0735    1.6313   -0.6848 O.2       1 <0>        -0.9502
     20 C14         6.2906    1.0429    0.4526 C.ar      1 <0>        -0.6635
     21 C15         6.0312    1.9156    1.4931 C.ar      1 <0>         0.0032
     22 C16         7.0509    2.3099    2.3391 C.ar      1 <0>        -0.1908
     23 C17         8.3364    1.8301    2.1453 C.ar      1 <0>         0.1614
     24 C18         8.5973    0.9515    1.0983 C.ar      1 <0>         0.0846
     25 C19         7.5697    0.5564    0.2570 C.ar      1 <0>        -0.0737
     26 O4          9.8573    0.4778    0.9041 O.3       1 <0>        -0.3035
     27 C20        10.0512   -0.4204   -0.1902 C.3       1 <0>         0.0202
     28 O5          9.3408    2.2175    2.9764 O.3       1 <0>        -0.2995
     29 C21         8.9996    3.1217    4.0290 C.3       1 <0>         0.0222
     30 H1          1.8943    1.9334    2.3710 H         1 <0>         0.0608
     31 H2          0.2825    1.7955    3.1134 H         1 <0>         0.0728
     32 H3          1.7105    2.0890    4.1346 H         1 <0>         0.0613
     33 H4          0.9922   -0.2806    4.2688 H         1 <0>         0.0843
     34 H5          1.1761   -0.4362    2.5052 H         1 <0>         0.0804
     35 H6          4.5968    0.0531    4.8658 H         1 <0>         0.0834
     36 H7          3.0047    0.4343    5.5645 H         1 <0>         0.0766
     37 H8          3.8901   -1.6948    6.4764 H         1 <0>         0.0656
     38 H9          2.4112   -1.9729    5.5256 H         1 <0>         0.0551
     39 H10         4.0033   -2.3542    4.8270 H         1 <0>         0.0589
     40 H11         2.3602   -1.1678    1.0379 H         1 <0>         0.1192
     41 H12         2.7258    0.5704    0.9227 H         1 <0>         0.1257
     42 H13         6.4603   -1.9299    0.6875 H         1 <0>         0.1279
     43 H14         7.0183   -4.2607    0.1283 H         1 <0>         0.1271
     44 H15         3.1973   -4.7462   -1.7043 H         1 <0>         0.1288
     45 H16         2.6249   -2.4200   -1.1404 H         1 <0>         0.1283
     46 H17         5.1790   -6.7240   -0.3477 H         1 <0>         0.0720
     47 H18         4.9686   -6.3603   -2.0774 H         1 <0>         0.0686
     48 H19         6.5632   -6.1576   -1.3129 H         1 <0>         0.0681
     49 H20         5.0297    2.2902    1.6452 H         1 <0>         0.1329
     50 H21         6.8458    2.9923    3.1507 H         1 <0>         0.1429
     51 H22         7.7688   -0.1284   -0.5541 H         1 <0>         0.1506
     52 H23        11.0980   -0.7213   -0.2322 H         1 <0>         0.1055
     53 H24         9.4250   -1.3018   -0.0522 H         1 <0>         0.0573
     54 H25         9.7785    0.0769   -1.1211 H         1 <0>         0.0590
     55 H26         9.8897    3.3487    4.6157 H         1 <0>         0.1057
     56 H27         8.6010    4.0421    3.6024 H         1 <0>         0.0593
     57 H28         8.2477    2.6638    4.6718 H         1 <0>         0.0589
@<TRIPOS>BOND
     1    1    2 1
     2    1   30 1
     3    1   31 1
     4    1   32 1
     5    2    3 1
     6    2   33 1
     7    2   34 1
     8    3    4 1
     9    3    6 am
    10    4    5 1
    11    4   35 1
    12    4   36 1
    13    5   37 1
    14    5   38 1
    15    5   39 1
    16    6    7 2
    17    6    8 1
    18    8    9 1
    19    8   40 1
    20    8   41 1
    21    9   10 1
    22    9   17 1
    23   10   15 ar
    24   10   11 ar
    25   11   12 ar
    26   11   42 1
    27   12   13 ar
    28   12   43 1
    29   13   14 ar
    30   13   16 1
    31   14   15 ar
    32   14   44 1
    33   15   45 1
    34   16   46 1
    35   16   47 1
    36   16   48 1
    37   17   18 2
    38   17   19 2
    39   17   20 1
    40   20   25 ar
    41   20   21 ar
    42   21   22 ar
    43   21   49 1
    44   22   23 ar
    45   22   50 1
    46   23   24 ar
    47   23   28 1
    48   24   25 ar
    49   24   26 1
    50   25   51 1
    51   26   27 1
    52   27   52 1
    53   27   53 1
    54   27   54 1
    55   28   29 1
    56   29   55 1
    57   29   56 1
    58   29   57 1
@<TRIPOS>MOLECULE
ZINC02965966
   52    53     0     0     0
SMALL
USER_CHARGES

@<TRIPOS>ATOM
      1 C1          3.3473   -0.1217   -3.2752 C.3       1 <0>        -0.1668
      2 C2          3.0525   -1.5133   -2.7116 C.3       1 <0>         0.1123
      3 N1          2.5912   -1.3915   -1.3265 N.am      1 <0>        -0.6117
      4 C3          1.1621   -1.2416   -1.0408 C.3       1 <0>         0.0984
      5 C4          0.5304   -2.6233   -0.8601 C.3       1 <0>        -0.1778
      6 C5          3.4815   -1.4175   -0.3150 C.2       1 <0>         0.4890
      7 O1          4.6645   -1.5416   -0.5514 O.2       1 <0>        -0.5106
      8 C6          3.0069   -1.2922    1.1099 C.3       1 <0>         0.0911
      9 N2          4.1578   -1.3486    2.0146 N.pl3     1 <0>        -0.9284
     10 C7          4.8830   -0.1883    2.2952 C.ar      1 <0>         0.1355
     11 C8          6.1913   -0.0595    1.8464 C.ar      1 <0>        -0.1021
     12 C9          6.9053    1.0892    2.1252 C.ar      1 <0>        -0.1079
     13 C10         6.3196    2.1104    2.8508 C.ar      1 <0>        -0.0801
     14 C11         5.0174    1.9854    3.2991 C.ar      1 <0>        -0.1104
     15 C12         4.2957    0.8417    3.0189 C.ar      1 <0>        -0.1099
     16 C13         7.1022    3.3620    3.1539 C.3       1 <0>        -0.1169
     17 S1          4.5989   -2.7880    2.7046 S.o2      1 <0>         2.6846
     18 O2          5.4339   -2.4697    3.8094 O.2       1 <0>        -0.9394
     19 O3          3.4095   -3.5529    2.8440 O.2       1 <0>        -0.9523
     20 C14         5.6097   -3.6370    1.5375 C.ar      1 <0>        -0.6689
     21 C15         5.0256   -4.3782    0.5274 C.ar      1 <0>        -0.0014
     22 C16         5.8187   -5.0443   -0.3882 C.ar      1 <0>        -0.1375
     23 C17         7.1957   -4.9689   -0.2939 C.ar      1 <0>        -0.0250
     24 C18         7.7798   -4.2270    0.7157 C.ar      1 <0>        -0.1401
     25 C19         6.9867   -3.5574    1.6288 C.ar      1 <0>        -0.0125
     26 C20         8.0602   -5.6959   -1.2915 C.3       1 <0>        -0.1247
     27 H1          4.1213    0.3568   -2.6751 H         1 <0>         0.0588
     28 H2          3.6905   -0.2123   -4.3057 H         1 <0>         0.0657
     29 H3          2.4400    0.4817   -3.2461 H         1 <0>         0.0550
     30 H4          2.2784   -1.9918   -3.3116 H         1 <0>         0.0766
     31 H5          3.9597   -2.1167   -2.7407 H         1 <0>         0.0836
     32 H6          1.0331   -0.6608   -0.1275 H         1 <0>         0.0803
     33 H7          0.6779   -0.7264   -1.8704 H         1 <0>         0.0844
     34 H8         -0.5328   -2.5118   -0.6475 H         1 <0>         0.0728
     35 H9          0.6594   -3.2041   -1.7734 H         1 <0>         0.0614
     36 H10         1.0147   -3.1385   -0.0305 H         1 <0>         0.0606
     37 H11         2.4900   -0.3413    1.2384 H         1 <0>         0.1187
     38 H12         2.3244   -2.1107    1.3388 H         1 <0>         0.1252
     39 H13         6.6496   -0.8569    1.2803 H         1 <0>         0.1287
     40 H14         7.9225    1.1901    1.7765 H         1 <0>         0.1274
     41 H15         4.5629    2.7848    3.8655 H         1 <0>         0.1286
     42 H16         3.2773    0.7466    3.3655 H         1 <0>         0.1279
     43 H17         6.9503    4.0879    2.3551 H         1 <0>         0.0718
     44 H18         6.7602    3.7845    4.0987 H         1 <0>         0.0685
     45 H19         8.1622    3.1189    3.2272 H         1 <0>         0.0682
     46 H20         3.9498   -4.4371    0.4537 H         1 <0>         0.1268
     47 H21         5.3624   -5.6239   -1.1770 H         1 <0>         0.1287
     48 H22         8.8556   -4.1683    0.7896 H         1 <0>         0.1317
     49 H23         7.4430   -2.9747    2.4153 H         1 <0>         0.1388
     50 H24         8.2649   -5.0422   -2.1394 H         1 <0>         0.0789
     51 H25         8.9995   -5.9817   -0.8180 H         1 <0>         0.0727
     52 H26         7.5416   -6.5895   -1.6385 H         1 <0>         0.0719
@<TRIPOS>BOND
     1    1    2 1
     2    1   27 1
     3    1   28 1
     4    1   29 1
     5    2    3 1
     6    2   30 1
     7    2   31 1
     8    3    4 1
     9    3    6 am
    10    4    5 1
    11    4   32 1
    12    4   33 1
    13    5   34 1
    14    5   35 1
    15    5   36 1
    16    6    7 2
    17    6    8 1
    18    8    9 1
    19    8   37 1
    20    8   38 1
    21    9   10 1
    22    9   17 1
    23   10   15 ar
    24   10   11 ar
    25   11   12 ar
    26   11   39 1
    27   12   13 ar
    28   12   40 1
    29   13   14 ar
    30   13   16 1
    31   14   15 ar
    32   14   41 1
    33   15   42 1
    34   16   43 1
    35   16   44 1
    36   16   45 1
    37   17   18 2
    38   17   19 2
    39   17   20 1
    40   20   25 ar
    41   20   21 ar
    42   21   22 ar
    43   21   46 1
    44   22   23 ar
    45   22   47 1
    46   23   24 ar
    47   23   26 1
    48   24   25 ar
    49   24   48 1
    50   25   49 1
    51   26   50 1
    52   26   51 1
    53   26   52 1
@<TRIPOS>MOLECULE
ZINC06728311
   53    54     0     0     0
SMALL
USER_CHARGES

@<TRIPOS>ATOM
      1 C1         -3.4936    1.5378   -0.4245 C.3       1 <0>        -0.1780
      2 C2         -3.7027    0.0235   -0.3602 C.3       1 <0>         0.0984
      3 N1         -4.5632   -0.3027    0.7797 N.am      1 <0>        -0.6115
      4 C3         -6.0171   -0.3559    0.6084 C.3       1 <0>         0.1120
      5 C4         -6.4328   -1.7751    0.2162 C.3       1 <0>        -0.1667
      6 C5         -4.0171   -0.5538    1.9860 C.2       1 <0>         0.4888
      7 O1         -4.7294   -0.8239    2.9297 O.2       1 <0>        -0.5110
      8 C6         -2.5215   -0.4991    2.1623 C.3       1 <0>         0.0911
      9 N2         -2.1821   -0.8075    3.5537 N.pl3     1 <0>        -0.9290
     10 C7         -2.0471   -2.1366    3.9614 C.ar      1 <0>         0.1361
     11 C8         -2.9675   -2.6916    4.8415 C.ar      1 <0>        -0.1021
     12 C9         -2.8313   -4.0062    5.2423 C.ar      1 <0>        -0.1084
     13 C10        -1.7800   -4.7696    4.7689 C.ar      1 <0>        -0.0802
     14 C11        -0.8619   -4.2202    3.8927 C.ar      1 <0>        -0.1105
     15 C12        -0.9954   -2.9080    3.4834 C.ar      1 <0>        -0.1095
     16 C13        -1.6341   -6.2034    5.2093 C.3       1 <0>        -0.1170
     17 S1         -1.9585    0.4196    4.6430 S.o2      1 <0>         2.6880
     18 O2         -1.2548   -0.1382    5.7443 O.2       1 <0>        -0.9407
     19 O3         -1.4650    1.5307    3.9074 O.2       1 <0>        -0.9525
     20 C14        -3.5500    0.8798    5.2431 C.ar      1 <0>        -0.7009
     21 C15        -4.3349    1.7558    4.5163 C.ar      1 <0>         0.0322
     22 C16        -5.5828    2.1185    4.9849 C.ar      1 <0>        -0.1664
     23 C17        -6.0484    1.6028    6.1856 C.ar      1 <0>         0.1866
     24 C18        -5.2591    0.7237    6.9129 C.ar      1 <0>        -0.2268
     25 C19        -4.0140    0.3600    6.4374 C.ar      1 <0>         0.0248
     26 O4         -7.2755    1.9584    6.6490 O.3       1 <0>        -0.3114
     27 C20        -7.6897    1.3885    7.8922 C.3       1 <0>         0.0226
     28 H1         -2.8534    1.7805   -1.2726 H         1 <0>         0.0726
     29 H2         -4.4574    2.0330   -0.5433 H         1 <0>         0.0617
     30 H3         -3.0211    1.8788    0.4967 H         1 <0>         0.0608
     31 H4         -4.1752   -0.3174   -1.2814 H         1 <0>         0.0842
     32 H5         -2.7390   -0.4716   -0.2414 H         1 <0>         0.0803
     33 H6         -6.5036   -0.0803    1.5441 H         1 <0>         0.0842
     34 H7         -6.3163    0.3400   -0.1754 H         1 <0>         0.0768
     35 H8         -5.9464   -2.0507   -0.7195 H         1 <0>         0.0548
     36 H9         -6.1336   -2.4710    0.9999 H         1 <0>         0.0586
     37 H10        -7.5146   -1.8147    0.0887 H         1 <0>         0.0656
     38 H11        -2.0510   -1.2287    1.5032 H         1 <0>         0.1186
     39 H12        -2.1626    0.4997    1.9136 H         1 <0>         0.1256
     40 H13        -3.7884   -2.0957    5.2121 H         1 <0>         0.1285
     41 H14        -3.5465   -4.4383    5.9265 H         1 <0>         0.1269
     42 H15        -0.0420   -4.8192    3.5249 H         1 <0>         0.1285
     43 H16        -0.2807   -2.4809    2.7956 H         1 <0>         0.1281
     44 H17        -2.1764   -6.8519    4.5211 H         1 <0>         0.0717
     45 H18        -0.5790   -6.4773    5.2114 H         1 <0>         0.0685
     46 H19        -2.0413   -6.3183    6.2138 H         1 <0>         0.0680
     47 H20        -3.9720    2.1570    3.5815 H         1 <0>         0.1341
     48 H21        -6.1952    2.8033    4.4171 H         1 <0>         0.1380
     49 H22        -5.6193    0.3209    7.8479 H         1 <0>         0.1378
     50 H23        -3.4010   -0.3277    7.0009 H         1 <0>         0.1420
     51 H24        -7.7135    0.3023    7.8040 H         1 <0>         0.0604
     52 H25        -6.9870    1.6742    8.6749 H         1 <0>         0.0605
     53 H26        -8.6846    1.7543    8.1460 H         1 <0>         0.1053
@<TRIPOS>BOND
     1    1    2 1
     2    1   28 1
     3    1   29 1
     4    1   30 1
     5    2    3 1
     6    2   31 1
     7    2   32 1
     8    3    4 1
     9    3    6 am
    10    4    5 1
    11    4   33 1
    12    4   34 1
    13    5   35 1
    14    5   36 1
    15    5   37 1
    16    6    7 2
    17    6    8 1
    18    8    9 1
    19    8   38 1
    20    8   39 1
    21    9   10 1
    22    9   17 1
    23   10   15 ar
    24   10   11 ar
    25   11   12 ar
    26   11   40 1
    27   12   13 ar
    28   12   41 1
    29   13   14 ar
    30   13   16 1
    31   14   15 ar
    32   14   42 1
    33   15   43 1
    34   16   44 1
    35   16   45 1
    36   16   46 1
    37   17   18 2
    38   17   19 2
    39   17   20 1
    40   20   25 ar
    41   20   21 ar
    42   21   22 ar
    43   21   47 1
    44   22   23 ar
    45   22   48 1
    46   23   24 ar
    47   23   26 1
    48   24   25 ar
    49   24   49 1
    50   25   50 1
    51   26   27 1
    52   27   51 1
    53   27   52 1
    54   27   53 1
