@<TRIPOS>MOLECULE
ZINC09592675
   18    19     0     0     0
SMALL
USER_CHARGES

@<TRIPOS>ATOM
      1 C1         -0.0164    1.3615    0.0095 C.ar      1 <0>        -0.1322
      2 C2          1.1693    2.0832    0.0021 C.ar      1 <0>        -0.1522
      3 C3          2.3855    1.4358   -0.0130 C.ar      1 <0>        -0.1388
      4 C4          2.4295    0.0443   -0.0209 C.ar      1 <0>         0.0947
      5 C5          1.2261   -0.6835   -0.0134 C.ar      1 <0>         0.0015
      6 C6          0.0021   -0.0041    0.0020 C.ar      1 <0>        -0.1281
      7 C7          1.2681   -2.1469   -0.0217 C.2       1 <0>        -0.3706
      8 C8          2.4786   -2.7646   -0.0366 C.2       1 <0>         0.2265
      9 C9          3.6987   -1.9602   -0.0439 C.2       1 <0>         0.4990
     10 O1          4.7840   -2.5144   -0.0572 O.2       1 <0>        -0.5450
     11 N1          3.6400   -0.6166   -0.0365 N.am      1 <0>        -0.6326
     12 H1          4.4632   -0.1036   -0.0419 H         1 <0>         0.3951
     13 O2          2.5539   -4.1222   -0.0442 O.3       1 <0>        -0.6762
     14 H2         -0.9614    1.8842    0.0259 H         1 <0>         0.1087
     15 H3          1.1383    3.1627    0.0078 H         1 <0>         0.1102
     16 H4          3.3024    2.0064   -0.0191 H         1 <0>         0.1130
     17 H5         -0.9249   -0.5583    0.0076 H         1 <0>         0.1163
     18 H6          0.3553   -2.7241   -0.0157 H         1 <0>         0.1107
@<TRIPOS>BOND
     1    1    6 ar
     2    1    2 ar
     3    1   14 1
     4    2    3 ar
     5    2   15 1
     6    3    4 ar
     7    3   16 1
     8    4   11 1
     9    4    5 ar
    10    5    6 ar
    11    5    7 1
    12    6   17 1
    13    7    8 2
    14    7   18 1
    15    8    9 1
    16    8   13 1
    17    9   10 2
    18    9   11 am
    19   11   12 1
@<TRIPOS>MOLECULE
ZINC00145536
   18    19     0     0     0
SMALL
USER_CHARGES

@<TRIPOS>ATOM
      1 C1         -0.0164    1.3599    0.0095 C.ar      1 <0>        -0.1584
      2 C2          1.1697    2.0840    0.0021 C.ar      1 <0>        -0.1169
      3 C3          2.3857    1.4391   -0.0130 C.ar      1 <0>        -0.1272
      4 C4          2.4313    0.0473   -0.0209 C.ar      1 <0>         0.0792
      5 C5          1.2273   -0.6846   -0.0134 C.ar      1 <0>        -0.1063
      6 C6          0.0021   -0.0041    0.0020 C.ar      1 <0>        -0.0747
      7 C7          1.5765   -2.0555   -0.0246 C.2       1 <0>        -0.1859
      8 C8          2.9352   -2.1366   -0.0382 C.2       1 <0>         0.0472
      9 N1          3.4642   -0.8590   -0.0361 N.pl3     1 <0>        -0.5667
     10 H1          4.4088   -0.6387   -0.0446 H         1 <0>         0.4179
     11 C9          3.7129   -3.3792   -0.0533 C.2       1 <0>         0.5414
     12 O1          4.9364   -3.3355   -0.0649 O.co2     1 <0>        -0.6871
     13 O2          3.1390   -4.4607   -0.0543 O.co2     1 <0>        -0.6662
     14 H2         -0.9617    1.8819    0.0259 H         1 <0>         0.1136
     15 H3          1.1370    3.1634    0.0078 H         1 <0>         0.1165
     16 H4          3.3019    2.0110   -0.0190 H         1 <0>         0.1134
     17 H5         -0.9250   -0.5581    0.0079 H         1 <0>         0.1163
     18 H6          0.8886   -2.8881   -0.0226 H         1 <0>         0.1439
@<TRIPOS>BOND
     1    1    6 ar
     2    1    2 ar
     3    1   14 1
     4    2    3 ar
     5    2   15 1
     6    3    4 ar
     7    3   16 1
     8    4    9 1
     9    4    5 ar
    10    5    6 ar
    11    5    7 1
    12    6   17 1
    13    7    8 2
    14    7   18 1
    15    8    9 1
    16    8   11 1
    17    9   10 1
    18   11   12 2
    19   11   13 1
@<TRIPOS>MOLECULE
ZINC03982495
   14    14     0     0     0
SMALL
USER_CHARGES
5-methyl-2H-pyrazole-3-carboxylic acid
@<TRIPOS>ATOM
      1 C1          1.3382    4.8872    0.0155 C.3       1 <0>        -0.0570
      2 C2          0.5481    3.6040    0.0162 C.2       1 <0>         0.0055
      3 C3          1.0783    2.3122    0.0042 C.2       1 <0>        -0.2136
      4 C4         -0.0179    1.4658    0.0101 C.2       1 <0>         0.0052
      5 N1         -1.1217    2.2713    0.0190 N.pl3     1 <0>        -0.3769
      6 H1         -2.0690    1.9509    0.0185 H         1 <0>         0.4515
      7 N2         -0.7567    3.5027    0.0281 N.2       1 <0>        -0.3113
      8 C5          0.0021   -0.0041    0.0020 C.2       1 <0>         0.5176
      9 O1          1.0628   -0.5974   -0.0113 O.co2     1 <0>        -0.6130
     10 H2          1.5189    5.2021   -1.0122 H         1 <0>         0.0650
     11 H3          0.7759    5.6605    0.5389 H         1 <0>         0.0634
     12 H4          2.2914    4.7272    0.5194 H         1 <0>         0.0692
     13 H5          2.1214    2.0326   -0.0073 H         1 <0>         0.1500
     14 O2         -1.1562   -0.6940    0.0094 O.co2     1 <0>        -0.7557
@<TRIPOS>BOND
     1    1    2 1
     2    1   10 1
     3    1   11 1
     4    1   12 1
     5    2    7 2
     6    2    3 1
     7    3    4 2
     8    3   13 1
     9    4    5 1
    10    4    8 1
    11    5    6 1
    12    5    7 1
    13    8    9 2
    14    8   14 1
@<TRIPOS>MOLECULE
ZINC15923721
   14    15     0     0     0
SMALL
USER_CHARGES

@<TRIPOS>ATOM
      1 C1         -0.0168    1.3841    0.0097 C.ar      1 <0>        -0.1729
      2 C2          1.1516    2.0932    0.0023 C.ar      1 <0>        -0.0198
      3 C3          2.3728    1.4185   -0.0130 C.ar      1 <0>        -0.2139
      4 C4          2.3973    0.0146   -0.0208 C.ar      1 <0>         0.1009
      5 C5          1.1997   -0.6892   -0.0131 C.ar      1 <0>        -0.1436
      6 C6          0.0021   -0.0041    0.0020 C.ar      1 <0>         0.0074
      7 Cl1        -1.4936   -0.8853    0.0116 Cl        1 <0>        -0.0795
      8 O1          3.6923   -0.3618   -0.0356 O.3       1 <0>        -0.1302
      9 N1          4.5161    0.7867   -0.0376 N.2       1 <0>        -0.4329
     10 C7          3.7752    1.8578   -0.0245 C.2       1 <0>         0.3831
     11 O2          4.2160    3.1402   -0.0226 O.3       1 <0>        -0.6947
     12 H1         -0.9614    1.9074    0.0260 H         1 <0>         0.1298
     13 H2          1.1297    3.1730    0.0080 H         1 <0>         0.1319
     14 H3          1.2060   -1.7691   -0.0194 H         1 <0>         0.1346
@<TRIPOS>BOND
     1    1    6 ar
     2    1    2 ar
     3    1   12 1
     4    2    3 ar
     5    2   13 1
     6    3   10 1
     7    3    4 ar
     8    4    5 ar
     9    4    8 1
    10    5    6 ar
    11    5   14 1
    12    6    7 1
    13    8    9 1
    14    9   10 2
    15   10   11 1
@<TRIPOS>MOLECULE
ZINC40379914
   22    23     0     0     0
SMALL
USER_CHARGES

@<TRIPOS>ATOM
      1 C1         -0.0184    1.5028    0.0103 C.3       1 <0>        -0.1186
      2 C2          0.0021   -0.0041    0.0020 C.ar      1 <0>        -0.1180
      3 C3          0.0057   -0.6883   -1.1944 C.ar      1 <0>        -0.0796
      4 C4          0.0240   -2.0757   -1.2158 C.ar      1 <0>        -0.1339
      5 C5          0.0387   -2.7879   -0.0501 C.ar      1 <0>        -0.0713
      6 C6          0.0357   -2.1145    1.1768 C.ar      1 <0>        -0.0862
      7 C7          0.0230   -0.7080    1.2024 C.ar      1 <0>         0.1547
      8 N1          0.0253   -0.0359    2.4070 N.am      1 <0>        -0.6163
      9 H1          0.0121    0.9340    2.4117 H         1 <0>         0.4193
     10 C8          0.0449   -0.7023    3.5750 C.2       1 <0>         0.5142
     11 O1          0.0460   -0.0793    4.6225 O.2       1 <0>        -0.5342
     12 C9          0.0646   -2.1633    3.6053 C.2       1 <0>         0.0425
     13 C10         0.0512   -2.8586    2.4376 C.2       1 <0>        -0.0965
     14 O2          0.0844   -2.8228    4.7941 O.3       1 <0>        -0.4548
     15 H2          1.0042    1.8801    0.0026 H         1 <0>         0.0771
     16 H3         -0.5455    1.8639   -0.8728 H         1 <0>         0.0795
     17 H4         -0.5286    1.8543    0.9071 H         1 <0>         0.0619
     18 H5         -0.0061   -0.1393   -2.1244 H         1 <0>         0.1324
     19 H6          0.0263   -2.5967   -2.1618 H         1 <0>         0.1317
     20 H7          0.0521   -3.8675   -0.0753 H         1 <0>         0.1364
     21 H8          0.0648   -3.9385    2.4395 H         1 <0>         0.1514
     22 H9          0.0838   -2.2411    5.5666 H         1 <0>         0.4084
@<TRIPOS>BOND
     1    1    2 1
     2    1   15 1
     3    1   16 1
     4    1   17 1
     5    2    7 ar
     6    2    3 ar
     7    3    4 ar
     8    3   18 1
     9    4    5 ar
    10    4   19 1
    11    5    6 ar
    12    5   20 1
    13    6   13 1
    14    6    7 ar
    15    7    8 1
    16    8    9 1
    17    8   10 am
    18   10   11 2
    19   10   12 1
    20   12   13 2
    21   12   14 1
    22   13   21 1
    23   14   22 1
@<TRIPOS>MOLECULE
ZINC40955242
   19    20     0     0     0
SMALL
USER_CHARGES

@<TRIPOS>ATOM
      1 C1         -0.0168    1.3848    0.0097 C.ar      1 <0>        -0.0688
      2 C2          1.1590    2.1030    0.0023 C.ar      1 <0>        -0.1377
      3 C3          2.3810    1.4374   -0.0134 C.ar      1 <0>         0.1598
      4 C4          2.4027    0.0309   -0.0211 C.ar      1 <0>        -0.0763
      5 C5          1.1993   -0.6840   -0.0134 C.ar      1 <0>        -0.0569
      6 C6          0.0021   -0.0041    0.0020 C.ar      1 <0>        -0.0563
      7 Cl1        -1.4922   -0.8876    0.0115 Cl        1 <0>        -0.0585
      8 C7          3.6875   -0.6709   -0.0376 C.2       1 <0>        -0.0995
      9 C8          4.8316    0.0625   -0.0451 C.2       1 <0>         0.0509
     10 C9          4.7527    1.5218   -0.0365 C.2       1 <0>         0.5153
     11 O1          5.7788    2.1793   -0.0436 O.2       1 <0>        -0.5278
     12 N1          3.5632    2.1491   -0.0218 N.am      1 <0>        -0.6162
     13 H1          3.5358    3.1187   -0.0166 H         1 <0>         0.4227
     14 O2          6.0416   -0.5573   -0.0600 O.3       1 <0>        -0.4522
     15 H2         -0.9621    1.9067    0.0260 H         1 <0>         0.1443
     16 H3          1.1323    3.1826    0.0083 H         1 <0>         0.1443
     17 H4          1.2098   -1.7639   -0.0196 H         1 <0>         0.1483
     18 H5          3.7253   -1.7502   -0.0434 H         1 <0>         0.1545
     19 H6          6.7944    0.0497   -0.0643 H         1 <0>         0.4100
@<TRIPOS>BOND
     1    1    6 ar
     2    1    2 ar
     3    1   15 1
     4    2    3 ar
     5    2   16 1
     6    3   12 1
     7    3    4 ar
     8    4    5 ar
     9    4    8 1
    10    5    6 ar
    11    5   17 1
    12    6    7 1
    13    8    9 2
    14    8   18 1
    15    9   10 1
    16    9   14 1
    17   10   11 2
    18   10   12 am
    19   12   13 1
    20   14   19 1
@<TRIPOS>MOLECULE
ZINC39121468
   22    23     0     0     0
SMALL
USER_CHARGES

@<TRIPOS>ATOM
      1 C1         -0.0178    1.4608    0.0101 C.3       1 <0>         0.0622
      2 N1          0.0021   -0.0041    0.0020 N.am      1 <0>        -0.5146
      3 C2         -1.1899   -0.6981    0.0040 C.ar      1 <0>         0.1576
      4 C3         -2.4036   -0.0161    0.0131 C.ar      1 <0>        -0.1527
      5 C4         -3.5868   -0.7222    0.0146 C.ar      1 <0>        -0.0783
      6 C5         -3.5826   -2.1103    0.0076 C.ar      1 <0>        -0.1412
      7 C6         -2.4043   -2.8007   -0.0014 C.ar      1 <0>        -0.0690
      8 C7         -1.1897   -2.1045   -0.0036 C.ar      1 <0>        -0.0919
      9 C8          0.0845   -2.8255   -0.0132 C.2       1 <0>        -0.1613
     10 C9          1.2394   -2.1092   -0.0145 C.2       1 <0>         0.0614
     11 C10         1.1822   -0.6489   -0.0127 C.2       1 <0>         0.5458
     12 O1          2.2180   -0.0068   -0.0192 O.2       1 <0>        -0.5104
     13 O2          2.4402   -2.7470   -0.0229 O.3       1 <0>        -0.4516
     14 H1          1.0048    1.8381    0.0023 H         1 <0>         0.1034
     15 H2         -0.5450    1.8219   -0.8730 H         1 <0>         0.0794
     16 H3         -0.5280    1.8123    0.9069 H         1 <0>         0.0796
     17 H4         -2.4177    1.0637    0.0193 H         1 <0>         0.1345
     18 H5         -4.5267   -0.1904    0.0216 H         1 <0>         0.1318
     19 H6         -4.5188   -2.6487    0.0096 H         1 <0>         0.1298
     20 H7         -2.4095   -3.8807   -0.0064 H         1 <0>         0.1336
     21 H8          0.1061   -3.9053   -0.0188 H         1 <0>         0.1478
     22 H9          2.3731   -3.7117   -0.0275 H         1 <0>         0.4041
@<TRIPOS>BOND
     1    1    2 1
     2    1   14 1
     3    1   15 1
     4    1   16 1
     5    2   11 am
     6    2    3 1
     7    3    8 ar
     8    3    4 ar
     9    4    5 ar
    10    4   17 1
    11    5    6 ar
    12    5   18 1
    13    6    7 ar
    14    6   19 1
    15    7    8 ar
    16    7   20 1
    17    8    9 1
    18    9   10 2
    19    9   21 1
    20   10   11 1
    21   10   13 1
    22   11   12 2
    23   13   22 1
@<TRIPOS>MOLECULE
ZINC40878304
   17    18     0     0     0
SMALL
USER_CHARGES

@<TRIPOS>ATOM
      1 C1         -0.0164    1.3557    0.0095 C.2       1 <0>        -0.3617
      2 C2          1.2580    2.0729    0.0012 C.ar      1 <0>        -0.0006
      3 C3          1.2941    3.4754    0.0088 C.ar      1 <0>        -0.0634
      4 C4          2.5328    4.0945    0.0008 C.ar      1 <0>         0.0503
      5 C5          3.6820    3.3167   -0.0145 C.ar      1 <0>         0.0489
      6 N1          3.6235    2.0014   -0.0218 N.ar      1 <0>        -0.4704
      7 C6          2.4661    1.3521   -0.0142 C.ar      1 <0>         0.2978
      8 N2          2.4441   -0.0249   -0.0223 N.am      1 <0>        -0.6150
      9 H1          3.2817   -0.5140   -0.0326 H         1 <0>         0.4068
     10 C7          1.2841   -0.7043   -0.0158 C.2       1 <0>         0.5081
     11 O1          1.3023   -1.9228   -0.0229 O.2       1 <0>        -0.5236
     12 C8          0.0021   -0.0041    0.0020 C.2       1 <0>         0.2477
     13 O2         -1.1626   -0.7058    0.0098 O.3       1 <0>        -0.6433
     14 F1          2.6216    5.4426    0.0072 F         1 <0>        -0.1311
     15 Cl1        -0.1707    4.4070    0.0273 Cl        1 <0>        -0.0441
     16 H2         -0.9523    1.8945    0.0258 H         1 <0>         0.1272
     17 H3          4.6469    3.8017   -0.0208 H         1 <0>         0.1664
@<TRIPOS>BOND
     1    1   12 2
     2    1    2 1
     3    1   16 1
     4    2    7 ar
     5    2    3 ar
     6    3    4 ar
     7    3   15 1
     8    4    5 ar
     9    4   14 1
    10    5    6 ar
    11    5   17 1
    12    6    7 ar
    13    7    8 1
    14    8    9 1
    15    8   10 am
    16   10   11 2
    17   10   12 1
    18   12   13 1
@<TRIPOS>MOLECULE
ZINC40878304
   18    19     0     0     0
SMALL
USER_CHARGES

@<TRIPOS>ATOM
      1 C1         -0.0164    1.3557    0.0095 C.2       1 <0>        -0.1069
      2 C2          1.2580    2.0729    0.0012 C.ar      1 <0>        -0.0957
      3 C3          1.2941    3.4754    0.0088 C.ar      1 <0>         0.0063
      4 C4          2.5328    4.0945    0.0008 C.ar      1 <0>         0.0425
      5 C5          3.6820    3.3167   -0.0145 C.ar      1 <0>         0.1438
      6 N1          3.6235    2.0014   -0.0218 N.ar      1 <0>        -0.4736
      7 C6          2.4661    1.3521   -0.0142 C.ar      1 <0>         0.3566
      8 N2          2.4441   -0.0249   -0.0223 N.am      1 <0>        -0.5998
      9 C7          1.2841   -0.7043   -0.0158 C.2       1 <0>         0.5238
     10 O1          1.3023   -1.9228   -0.0229 O.2       1 <0>        -0.5110
     11 C8          0.0021   -0.0041    0.0020 C.2       1 <0>         0.0720
     12 O2         -1.1626   -0.7058    0.0098 O.3       1 <0>        -0.4439
     13 F1          2.6216    5.4426    0.0072 F         1 <0>        -0.1089
     14 Cl1        -0.1707    4.4070    0.0273 Cl        1 <0>        -0.0039
     15 H1         -0.9523    1.8945    0.0258 H         1 <0>         0.1618
     16 H2          4.6469    3.8017   -0.0208 H         1 <0>         0.1918
     17 H3         -1.0437   -1.6655    0.0035 H         1 <0>         0.4135
     18 H4          3.2817   -0.5140   -0.0332 H         1 <0>         0.4315
@<TRIPOS>BOND
     1    1   11 2
     2    1    2 1
     3    1   15 1
     4    2    7 ar
     5    2    3 ar
     6    3    4 ar
     7    3   14 1
     8    4    5 ar
     9    4   13 1
    10    5    6 ar
    11    5   16 1
    12    6    7 ar
    13    7    8 1
    14    8    9 am
    15    8   18 1
    16    9   10 2
    17    9   11 1
    18   11   12 1
    19   12   17 1
@<TRIPOS>MOLECULE
ZINC32915163
   18    19     0     0     0
SMALL
USER_CHARGES
3-hydroxy-1H-1,8-naphthyridin-2-one
@<TRIPOS>ATOM
      1 C1          1.2385    6.0086    0.0199 C.ar      1 <0>        -0.1953
      2 C2          0.0018    5.3924    0.0293 C.ar      1 <0>        -0.0254
      3 C3         -0.0370    3.9917    0.0234 C.ar      1 <0>        -0.1319
      4 C4         -1.3127    3.2761    0.0322 C.2       1 <0>        -0.1110
      5 C5         -1.2961    1.9166    0.0187 C.2       1 <0>         0.0674
      6 C6         -0.0144    1.2144    0.0087 C.2       1 <0>         0.5238
      7 O1          0.0021   -0.0041    0.0020 O.2       1 <0>        -0.5291
      8 N1          1.1464    1.8921    0.0013 N.am      1 <0>        -0.6196
      9 H1          2.1016    1.3467   -0.0103 H         1 <0>         0.4530
     10 C7          1.1705    3.2684    0.0080 C.ar      1 <0>         0.3522
     11 N2          2.3283    3.9165   -0.0005 N.ar      1 <0>        -0.5102
     12 C8          2.3864    5.2317    0.0052 C.ar      1 <0>         0.1499
     13 O2         -2.4616    1.2164    0.0200 O.3       1 <0>        -0.4840
     14 H2          1.3102    7.0862    0.0243 H         1 <0>         0.1457
     15 H3         -0.9085    5.9734    0.0404 H         1 <0>         0.1482
     16 H4         -2.2479    3.8162    0.0440 H         1 <0>         0.1515
     17 H5          3.3513    5.7168   -0.0022 H         1 <0>         0.1674
     18 H6         -2.4425    0.1166    0.0090 H         1 <0>         0.4475
@<TRIPOS>BOND
     1    1   12 ar
     2    1    2 ar
     3    1   14 1
     4    2    3 ar
     5    2   15 1
     6    3   10 ar
     7    3    4 1
     8    4    5 2
     9    4   16 1
    10    5    6 1
    11    5   13 1
    12    6    7 2
    13    6    8 am
    14    8    9 1
    15    8   10 1
    16   10   11 ar
    17   11   12 ar
    18   12   17 1
    19   13   18 1
@<TRIPOS>MOLECULE
ZINC40973758
   14    15     0     0     0
SMALL
USER_CHARGES

@<TRIPOS>ATOM
      1 C1         -0.0166    1.3704    0.0096 C.2       1 <0>        -0.0998
      2 C2          1.3300    1.8315   -0.0008 C.2       1 <0>        -0.0302
      3 C3          2.1153    0.6694   -0.0145 C.2       1 <0>        -0.0270
      4 N1          1.3232   -0.4212   -0.0125 N.pl3     1 <0>        -0.4782
      5 H1          1.6268   -1.3425   -0.0202 H         1 <0>         0.4269
      6 C4          0.0021   -0.0041    0.0020 C.2       1 <0>         0.0191
      7 C5         -1.1348   -0.8493    0.0089 C.2       1 <0>         0.5427
      8 O1         -0.9934   -2.0663    0.0010 O.co2     1 <0>        -0.6913
      9 O2         -2.2595   -0.3632    0.0229 O.co2     1 <0>        -0.6672
     10 S1          3.7624    1.3365   -0.0267 S.3       1 <0>        -0.0046
     11 C6          3.3064    3.0643   -0.0131 C.2       1 <0>         0.0839
     12 N2          2.0035    3.0052   -0.0006 N.2       1 <0>        -0.4529
     13 H2         -0.8994    1.9923    0.0254 H         1 <0>         0.1525
     14 H3          3.9459    3.9347   -0.0144 H         1 <0>         0.2261
@<TRIPOS>BOND
     1    1    6 2
     2    1    2 1
     3    1   13 1
     4    2   12 1
     5    2    3 2
     6    3    4 1
     7    3   10 1
     8    4    5 1
     9    4    6 1
    10    6    7 1
    11    7    8 2
    12    7    9 1
    13   10   11 1
    14   11   12 2
    15   11   14 1
@<TRIPOS>MOLECULE
ZINC04234975
   15    16     0     0     0
SMALL
USER_CHARGES
4H-furo[2,3-d]pyrrole-5-carboxylic acid
@<TRIPOS>ATOM
      1 C1         -1.1209    1.8374    0.0168 C.2       1 <0>        -0.1917
      2 C2         -0.0126    1.0758    0.0080 C.2       1 <0>        -0.0252
      3 O1          1.0738    1.8666    0.0018 O.3       1 <0>        -0.1758
      4 C3          0.6917    3.1627    0.0116 C.2       1 <0>        -0.0338
      5 C4         -0.6998    3.1875    0.0245 C.2       1 <0>        -0.0366
      6 N1         -1.1030    4.4977    0.0338 N.pl3     1 <0>        -0.5197
      7 H1         -2.0221    4.8077    0.0433 H         1 <0>         0.4217
      8 C5          0.0205    5.3025    0.0270 C.2       1 <0>         0.0622
      9 C6          1.1342    4.4895    0.0136 C.2       1 <0>        -0.1502
     10 C7          0.0271    6.7654    0.0329 C.2       1 <0>         0.5158
     11 O2          1.0833    7.3689    0.0258 O.co2     1 <0>        -0.6100
     12 H2         -2.1415    1.4841    0.0197 H         1 <0>         0.1443
     13 H3          0.0021   -0.0041    0.0020 H         1 <0>         0.2025
     14 H4          2.1630    4.8182    0.0058 H         1 <0>         0.1493
     15 O3         -1.1384    7.4452    0.0462 O.co2     1 <0>        -0.7529
@<TRIPOS>BOND
     1    1    5 1
     2    1    2 2
     3    1   12 1
     4    2    3 1
     5    2   13 1
     6    3    4 1
     7    4    9 1
     8    4    5 2
     9    5    6 1
    10    6    7 1
    11    6    8 1
    12    8    9 2
    13    8   10 1
    14    9   14 1
    15   10   11 2
    16   10   15 1
@<TRIPOS>MOLECULE
ZINC40430394
   19    20     0     0     0
SMALL
USER_CHARGES

@<TRIPOS>ATOM
      1 C1         -0.0167    1.3835    0.0096 C.ar      1 <0>        -0.1105
      2 C2          1.1497    2.0941    0.0023 C.ar      1 <0>        -0.0741
      3 C3          2.3766    1.4198   -0.0130 C.ar      1 <0>        -0.0628
      4 C4          3.6376    2.1637   -0.0200 C.2       1 <0>        -0.1014
      5 C5          4.8052    1.4685   -0.0340 C.2       1 <0>         0.0545
      6 C6          4.7748    0.0074   -0.0417 C.2       1 <0>         0.5159
      7 O1          5.8222   -0.6157   -0.0539 O.2       1 <0>        -0.5269
      8 N1          3.6066   -0.6589   -0.0351 N.am      1 <0>        -0.6152
      9 H1          3.6109   -1.6289   -0.0402 H         1 <0>         0.4240
     10 C7          2.4016    0.0140   -0.0209 C.ar      1 <0>         0.1246
     11 C8          1.1990   -0.6906   -0.0142 C.ar      1 <0>         0.0663
     12 C9          0.0021   -0.0041    0.0020 C.ar      1 <0>        -0.1118
     13 F1          1.2051   -2.0416   -0.0214 F         1 <0>        -0.1322
     14 O2          5.9941    2.1281   -0.0412 O.3       1 <0>        -0.4515
     15 H2         -0.9618    1.9060    0.0260 H         1 <0>         0.1427
     16 H3          1.1256    3.1738    0.0080 H         1 <0>         0.1449
     17 H4          3.6399    3.2437   -0.0144 H         1 <0>         0.1569
     18 H5         -0.9287   -0.5517    0.0084 H         1 <0>         0.1462
     19 H6          6.7666    1.5464   -0.0511 H         1 <0>         0.4105
@<TRIPOS>BOND
     1    1   12 ar
     2    1    2 ar
     3    1   15 1
     4    2    3 ar
     5    2   16 1
     6    3   10 ar
     7    3    4 1
     8    4    5 2
     9    4   17 1
    10    5    6 1
    11    5   14 1
    12    6    7 2
    13    6    8 am
    14    8    9 1
    15    8   10 1
    16   10   11 ar
    17   11   12 ar
    18   11   13 1
    19   12   18 1
    20   14   19 1
@<TRIPOS>MOLECULE
ZINC40953327
   21    22     0     0     0
SMALL
USER_CHARGES

@<TRIPOS>ATOM
      1 C1         -0.0184    1.5028    0.0103 C.3       1 <0>        -0.1046
      2 C2          0.0021   -0.0041    0.0020 C.ar      1 <0>        -0.1031
      3 C3          0.0056   -0.6858   -1.2072 C.ar      1 <0>        -0.1493
      4 C4          0.0237   -2.0632   -1.2369 C.ar      1 <0>        -0.1356
      5 C5          0.0392   -2.7816   -0.0446 C.ar      1 <0>         0.0913
      6 C6          0.0360   -2.0875    1.1786 C.ar      1 <0>         0.0053
      7 C7          0.0226   -0.6876    1.1842 C.ar      1 <0>        -0.1267
      8 C8          0.0521   -2.8395    2.4347 C.2       1 <0>        -0.3705
      9 C9          0.0698   -4.1974    2.3819 C.2       1 <0>         0.2269
     10 C10         0.0724   -4.8686    1.0838 C.2       1 <0>         0.4989
     11 N1          0.0569   -4.1608   -0.0597 N.am      1 <0>        -0.6323
     12 O1          0.0883   -6.0863    1.0367 O.2       1 <0>        -0.5455
     13 O2          0.0856   -4.9266    3.5293 O.3       1 <0>        -0.6764
     14 H1          1.0042    1.8801    0.0026 H         1 <0>         0.0605
     15 H2         -0.5455    1.8639   -0.8728 H         1 <0>         0.0571
     16 H3         -0.5286    1.8543    0.9071 H         1 <0>         0.0592
     17 H4         -0.0063   -0.1311   -2.1338 H         1 <0>         0.1102
     18 H5          0.0256   -2.5842   -2.1829 H         1 <0>         0.1134
     19 H6          0.0241   -0.1497    2.1207 H         1 <0>         0.1160
     20 H7          0.0503   -2.3252    3.3844 H         1 <0>         0.1104
     21 H8          0.0587   -4.6281   -0.9097 H         1 <0>         0.3949
@<TRIPOS>BOND
     1    1    2 1
     2    1   14 1
     3    1   15 1
     4    1   16 1
     5    2    7 ar
     6    2    3 ar
     7    3    4 ar
     8    3   17 1
     9    4    5 ar
    10    4   18 1
    11    5   11 1
    12    5    6 ar
    13    6    7 ar
    14    6    8 1
    15    7   19 1
    16    8    9 2
    17    8   20 1
    18    9   10 1
    19    9   13 1
    20   10   11 am
    21   10   12 2
    22   11   21 1
@<TRIPOS>MOLECULE
ZINC40954935
   22    23     0     0     0
SMALL
USER_CHARGES

@<TRIPOS>ATOM
      1 C1         -0.0184    1.5028    0.0103 C.3       1 <0>        -0.1232
      2 C2          0.0021   -0.0041    0.0020 C.ar      1 <0>        -0.0310
      3 C3          0.0058   -0.6825   -1.1836 C.ar      1 <0>        -0.1418
      4 C4          0.0250   -2.0700   -1.2023 C.ar      1 <0>        -0.0714
      5 C5          0.0403   -2.7882   -0.0261 C.ar      1 <0>        -0.1590
      6 C6          0.0369   -2.1189    1.1942 C.ar      1 <0>         0.1597
      7 C7          0.0232   -0.7123    1.2090 C.ar      1 <0>        -0.0920
      8 C8          0.0247   -0.0046    2.4907 C.2       1 <0>        -0.0973
      9 C9          0.0451   -0.7328    3.6380 C.2       1 <0>         0.0418
     10 C10         0.0649   -2.1923    3.5656 C.2       1 <0>         0.5146
     11 O1          0.0832   -2.8450    4.5947 O.2       1 <0>        -0.5340
     12 N1          0.0520   -2.8252    2.3789 N.am      1 <0>        -0.6167
     13 H1          0.0651   -3.7948    2.3557 H         1 <0>         0.4207
     14 O2          0.0475   -0.1075    4.8453 O.3       1 <0>        -0.4550
     15 H2          1.0042    1.8801    0.0026 H         1 <0>         0.0790
     16 H3         -0.5455    1.8639   -0.8728 H         1 <0>         0.0746
     17 H4         -0.5286    1.8543    0.9071 H         1 <0>         0.0730
     18 H5         -0.0067   -0.1346   -2.1142 H         1 <0>         0.1310
     19 H6          0.0277   -2.5920   -2.1477 H         1 <0>         0.1332
     20 H7          0.0545   -3.8678   -0.0513 H         1 <0>         0.1336
     21 H8          0.0102    1.0748    2.5238 H         1 <0>         0.1520
     22 H9          0.0627   -0.7110    5.6007 H         1 <0>         0.4084
@<TRIPOS>BOND
     1    1    2 1
     2    1   15 1
     3    1   16 1
     4    1   17 1
     5    2    7 ar
     6    2    3 ar
     7    3    4 ar
     8    3   18 1
     9    4    5 ar
    10    4   19 1
    11    5    6 ar
    12    5   20 1
    13    6   12 1
    14    6    7 ar
    15    7    8 1
    16    8    9 2
    17    8   21 1
    18    9   10 1
    19    9   14 1
    20   10   11 2
    21   10   12 am
    22   12   13 1
    23   14   22 1
@<TRIPOS>MOLECULE
ZINC40973756
   14    15     0     0     0
SMALL
USER_CHARGES

@<TRIPOS>ATOM
      1 C1         -0.0167    1.3778    0.0096 C.2       1 <0>        -0.1173
      2 C2          1.2956    1.8072   -0.0006 C.2       1 <0>        -0.2115
      3 C3          2.1471    0.6918   -0.0147 C.2       1 <0>         0.1577
      4 N1          1.3201   -0.4192   -0.0128 N.pl3     1 <0>        -0.5045
      5 H1          1.6186   -1.3420   -0.0201 H         1 <0>         0.4222
      6 C4          0.0021   -0.0041    0.0020 C.2       1 <0>         0.0674
      7 C5         -1.1338   -0.8492    0.0090 C.2       1 <0>         0.5393
      8 O1         -0.9919   -2.0663    0.0011 O.co2     1 <0>        -0.6865
      9 O2         -2.2588   -0.3635    0.0231 O.co2     1 <0>        -0.6640
     10 N2          3.4448    1.0007   -0.0258 N.2       1 <0>        -0.5003
     11 C6          3.8681    2.2367   -0.0236 C.2       1 <0>         0.0288
     12 S1          2.4542    3.1503   -0.0045 S.3       1 <0>         0.0982
     13 H2         -0.8952    2.0057    0.0254 H         1 <0>         0.1538
     14 H3          4.8885    2.5903   -0.0320 H         1 <0>         0.2166
@<TRIPOS>BOND
     1    1    6 2
     2    1    2 1
     3    1   13 1
     4    2   12 1
     5    2    3 2
     6    3    4 1
     7    3   10 1
     8    4    5 1
     9    4    6 1
    10    6    7 1
    11    7    8 2
    12    7    9 1
    13   10   11 2
    14   11   12 1
    15   11   14 1
@<TRIPOS>MOLECULE
ZINC08981465
   15    16     0     0     0
SMALL
USER_CHARGES
6H-thieno[3,2-d]pyrrole-5-carboxylic acid
@<TRIPOS>ATOM
      1 C1          2.9044    6.3545    0.0098 C.2       1 <0>        -0.0797
      2 C2          2.1789    7.4808    0.0231 C.2       1 <0>        -0.2111
      3 S1          0.4980    6.8877    0.0359 S.3       1 <0>         0.0604
      4 C3          0.8199    5.1428    0.0230 C.2       1 <0>        -0.0164
      5 C4          2.2169    5.0687    0.0092 C.2       1 <0>        -0.1956
      6 C5          2.5208    3.6764    0.0032 C.2       1 <0>        -0.1231
      7 C6          1.3471    2.9852    0.0052 C.2       1 <0>         0.0250
      8 N1          0.3011    3.8925    0.0206 N.pl3     1 <0>        -0.4876
      9 H1         -0.6430    3.6700    0.0283 H         1 <0>         0.4253
     10 C7          1.2139    1.5283   -0.0013 C.2       1 <0>         0.5161
     11 O1          2.2077    0.8267   -0.0146 O.co2     1 <0>        -0.6131
     12 H2          3.9835    6.3984   -0.0006 H         1 <0>         0.1283
     13 H3          2.5285    8.5026    0.0252 H         1 <0>         0.1833
     14 H4          3.5105    3.2441   -0.0035 H         1 <0>         0.1443
     15 O2         -0.0110    0.9628    0.0073 O.co2     1 <0>        -0.7563
@<TRIPOS>BOND
     1    1    5 1
     2    1    2 2
     3    1   12 1
     4    2    3 1
     5    2   13 1
     6    3    4 1
     7    4    8 1
     8    4    5 2
     9    5    6 1
    10    6    7 2
    11    6   14 1
    12    7    8 1
    13    7   10 1
    14    8    9 1
    15   10   11 2
    16   10   15 1
@<TRIPOS>MOLECULE
ZINC40979182
   22    23     0     0     0
SMALL
USER_CHARGES

@<TRIPOS>ATOM
      1 C1         -0.0184    1.5028    0.0103 C.3       1 <0>        -0.1207
      2 C2          0.0021   -0.0041    0.0020 C.ar      1 <0>        -0.0416
      3 C3          0.0056   -0.6847   -1.2078 C.ar      1 <0>        -0.1395
      4 C4          0.0236   -2.0500   -1.2360 C.ar      1 <0>        -0.0609
      5 C5          0.0391   -2.7708   -0.0360 C.ar      1 <0>        -0.0970
      6 C6          0.0590   -4.2347   -0.0441 C.2       1 <0>        -0.0944
      7 C7          0.0740   -4.8935    1.1445 C.2       1 <0>         0.0397
      8 C8          0.0700   -4.1314    2.3915 C.2       1 <0>         0.5150
      9 O1          0.0834   -4.7224    3.4572 O.2       1 <0>        -0.5341
     10 N1          0.0520   -2.7867    2.3789 N.am      1 <0>        -0.6171
     11 H1          0.0500   -2.3022    3.2192 H         1 <0>         0.4203
     12 C9          0.0360   -2.0847    1.1917 C.ar      1 <0>         0.1610
     13 C10         0.0228   -0.6926    1.1953 C.ar      1 <0>        -0.1560
     14 O2          0.0923   -6.2527    1.1733 O.3       1 <0>        -0.4553
     15 H2          1.0042    1.8801    0.0026 H         1 <0>         0.0771
     16 H3         -0.5455    1.8639   -0.8728 H         1 <0>         0.0727
     17 H4         -0.5286    1.8543    0.9071 H         1 <0>         0.0700
     18 H5         -0.0064   -0.1300   -2.1344 H         1 <0>         0.1312
     19 H6          0.0255   -2.5721   -2.1814 H         1 <0>         0.1371
     20 H7          0.0614   -4.7802   -0.9762 H         1 <0>         0.1507
     21 H8          0.0243   -0.1536    2.1312 H         1 <0>         0.1335
     22 H9          0.1020   -6.6272    2.0648 H         1 <0>         0.4082
@<TRIPOS>BOND
     1    1    2 1
     2    1   15 1
     3    1   16 1
     4    1   17 1
     5    2   13 ar
     6    2    3 ar
     7    3    4 ar
     8    3   18 1
     9    4    5 ar
    10    4   19 1
    11    5   12 ar
    12    5    6 1
    13    6    7 2
    14    6   20 1
    15    7    8 1
    16    7   14 1
    17    8    9 2
    18    8   10 am
    19   10   11 1
    20   10   12 1
    21   12   13 ar
    22   13   21 1
    23   14   22 1
@<TRIPOS>MOLECULE
ZINC04234974
   15    16     0     0     0
SMALL
USER_CHARGES
4H-thieno[2,3-d]pyrrole-5-carboxylic acid
@<TRIPOS>ATOM
      1 C1          1.3234   -0.2816   -0.0121 C.2       1 <0>        -0.1129
      2 C2          0.0021   -0.0041    0.0020 C.2       1 <0>        -0.1889
      3 S1         -0.0221    1.7806    0.0118 S.3       1 <0>         0.0392
      4 C3          1.7310    2.0568   -0.0034 C.2       1 <0>        -0.1685
      5 C4          2.2601    0.7604   -0.0154 C.2       1 <0>        -0.0166
      6 N1          3.6441    0.9174   -0.0271 N.pl3     1 <0>        -0.5184
      7 H1          4.2914    0.1950   -0.0366 H         1 <0>         0.4194
      8 C5          3.9483    2.2630   -0.0235 C.2       1 <0>         0.0671
      9 C6          2.7679    2.9754   -0.0084 C.2       1 <0>        -0.1300
     10 C7          5.2938    2.8362   -0.0328 C.2       1 <0>         0.5131
     11 O1          5.4405    4.0440   -0.0277 O.co2     1 <0>        -0.6086
     12 H2          1.6587   -1.3082   -0.0204 H         1 <0>         0.1235
     13 H3         -0.8318   -0.6904    0.0063 H         1 <0>         0.1850
     14 H4          2.6697    4.0509   -0.0020 H         1 <0>         0.1494
     15 O2          6.3725    2.0256   -0.0470 O.co2     1 <0>        -0.7528
@<TRIPOS>BOND
     1    1    5 1
     2    1    2 2
     3    1   12 1
     4    2    3 1
     5    2   13 1
     6    3    4 1
     7    4    9 1
     8    4    5 2
     9    5    6 1
    10    6    7 1
    11    6    8 1
    12    8    9 2
    13    8   10 1
    14    9   14 1
    15   10   11 2
    16   10   15 1
@<TRIPOS>MOLECULE
ZINC40379543
   19    20     0     0     0
SMALL
USER_CHARGES

@<TRIPOS>ATOM
      1 C1         -0.0168    1.3857    0.0097 C.ar      1 <0>        -0.1112
      2 C2          1.1591    2.1036    0.0023 C.ar      1 <0>        -0.1202
      3 C3          2.3811    1.4382   -0.0130 C.ar      1 <0>         0.1448
      4 C4          2.4034    0.0317   -0.0208 C.ar      1 <0>        -0.0596
      5 C5          1.2004   -0.6839   -0.0136 C.ar      1 <0>        -0.1033
      6 C6          0.0021   -0.0041    0.0020 C.ar      1 <0>         0.0829
      7 F1         -1.1607   -0.6919    0.0095 F         1 <0>        -0.1338
      8 C7          3.6885   -0.6695   -0.0369 C.2       1 <0>        -0.1027
      9 C8          4.8323    0.0642   -0.0439 C.2       1 <0>         0.0544
     10 C9          4.7531    1.5234   -0.0352 C.2       1 <0>         0.5147
     11 O1          5.7791    2.1812   -0.0419 O.2       1 <0>        -0.5287
     12 N1          3.5635    2.1504   -0.0209 N.am      1 <0>        -0.6152
     13 H1          3.5358    3.1200   -0.0157 H         1 <0>         0.4227
     14 O2          6.0426   -0.5553   -0.0584 O.3       1 <0>        -0.4519
     15 H2         -0.9621    1.9078    0.0260 H         1 <0>         0.1466
     16 H3          1.1325    3.1833    0.0080 H         1 <0>         0.1452
     17 H4          1.2114   -1.7638   -0.0198 H         1 <0>         0.1504
     18 H5          3.7266   -1.7488   -0.0428 H         1 <0>         0.1546
     19 H6          6.7952    0.0519   -0.0624 H         1 <0>         0.4103
@<TRIPOS>BOND
     1    1    6 ar
     2    1    2 ar
     3    1   15 1
     4    2    3 ar
     5    2   16 1
     6    3   12 1
     7    3    4 ar
     8    4    5 ar
     9    4    8 1
    10    5    6 ar
    11    5   17 1
    12    6    7 1
    13    8    9 2
    14    8   18 1
    15    9   10 1
    16    9   14 1
    17   10   11 2
    18   10   12 am
    19   12   13 1
    20   14   19 1
@<TRIPOS>MOLECULE
ZINC40848506
   11    11     0     0     0
SMALL
USER_CHARGES

@<TRIPOS>ATOM
      1 C1         -0.0166    1.3753    0.0096 C.2       1 <0>        -0.1733
      2 C2          1.3206    1.7930   -0.0009 C.2       1 <0>        -0.0998
      3 C3          2.0892    0.6765   -0.0143 C.2       1 <0>         0.0131
      4 O1          1.2933   -0.4002   -0.0124 O.3       1 <0>        -0.1290
      5 C4          0.0021   -0.0041    0.0020 C.2       1 <0>         0.0005
      6 C5         -1.1313   -0.8539    0.0090 C.2       1 <0>         0.5506
      7 O2         -2.2579   -0.3725    0.0230 O.co2     1 <0>        -0.6521
      8 O3         -0.9850   -2.0703    0.0010 O.co2     1 <0>        -0.6625
      9 Cl1         3.8249    0.6473   -0.0315 Cl        1 <0>         0.0197
     10 Cl2         1.8874    3.4339    0.0025 Cl        1 <0>        -0.0352
     11 H1         -0.8910    2.0091    0.0253 H         1 <0>         0.1682
@<TRIPOS>BOND
     1    1    5 2
     2    1    2 1
     3    1   11 1
     4    2    3 2
     5    2   10 1
     6    3    4 1
     7    3    9 1
     8    4    5 1
     9    5    6 1
    10    6    7 2
    11    6    8 1
