@<TRIPOS>MOLECULE
ZINC04655377
   52    51     0     0     0
SMALL
USER_CHARGES

@<TRIPOS>ATOM
      1 C1         -0.9893    1.9424   -0.4931 C.3       1 <0>        -0.1538
      2 C2         -0.9046    0.4243   -0.6644 C.3       1 <0>        -0.1263
      3 C3         -2.2429   -0.2080   -0.2770 C.3       1 <0>        -0.1210
      4 C4         -2.1583   -1.7260   -0.4483 C.3       1 <0>        -0.1151
      5 C5         -3.4966   -2.3584   -0.0609 C.3       1 <0>        -0.1014
      6 C6         -3.4132   -3.8536   -0.2296 C.2       1 <0>        -0.1621
      7 C7         -3.7491   -4.6441    0.7596 C.2       1 <0>        -0.1496
      8 C8         -4.3692   -4.0686    2.0067 C.3       1 <0>        -0.0849
      9 C9         -5.6645   -4.7814    2.2985 C.2       1 <0>        -0.1509
     10 C10        -5.8756   -5.2973    3.4840 C.2       1 <0>        -0.1491
     11 C11        -4.8978   -5.0420    4.6019 C.3       1 <0>        -0.0930
     12 C12        -5.6331   -4.4912    5.7965 C.2       1 <0>        -0.1081
     13 C13        -5.5254   -5.0945    6.9835 C.2       1 <0>        -0.1523
     14 C14        -4.5816   -6.1957    7.1604 C.2       1 <0>        -0.0382
     15 C15        -4.5448   -6.8761    8.3344 C.2       1 <0>        -0.2327
     16 C16        -3.6353   -7.9372    8.5049 C.2       1 <0>         0.3735
     17 O1         -2.8835   -8.2438    7.6014 O.2       1 <0>        -0.4579
     18 C17        -3.5945   -8.6925    9.8082 C.3       1 <0>        -0.1687
     19 C18        -2.5272   -9.7861    9.7307 C.3       1 <0>        -0.0842
     20 C19        -2.4858  -10.5530   11.0540 C.3       1 <0>        -0.1841
     21 C20        -1.4346  -11.6301   10.9776 C.2       1 <0>         0.4875
     22 O2         -0.7793  -11.7713    9.9592 O.co2     1 <0>        -0.6964
     23 O3         -1.2394  -12.3604   11.9342 O.co2     1 <0>        -0.7102
     24 H1         -0.0359    2.3929   -0.7691 H         1 <0>         0.0529
     25 H2         -1.7769    2.3371   -1.1349 H         1 <0>         0.0526
     26 H3         -1.2154    2.1787    0.5467 H         1 <0>         0.0536
     27 H4         -0.6786    0.1880   -1.7041 H         1 <0>         0.0601
     28 H5         -0.1170    0.0297   -0.0225 H         1 <0>         0.0613
     29 H6         -2.4690    0.0283    0.7628 H         1 <0>         0.0613
     30 H7         -3.0306    0.1867   -0.9188 H         1 <0>         0.0604
     31 H8         -1.9322   -1.9623   -1.4880 H         1 <0>         0.0611
     32 H9         -1.3706   -2.1207    0.1936 H         1 <0>         0.0629
     33 H10        -3.7226   -2.1221    0.9789 H         1 <0>         0.0758
     34 H11        -4.2842   -1.9637   -0.7027 H         1 <0>         0.0674
     35 H12        -3.0765   -4.2734   -1.1659 H         1 <0>         0.1083
     36 H13        -3.5817   -5.7081    0.6812 H         1 <0>         0.1100
     37 H14        -3.6857   -4.1991    2.8457 H         1 <0>         0.0845
     38 H15        -4.5643   -3.0065    1.8587 H         1 <0>         0.0839
     39 H16        -6.4188   -4.8669    1.5303 H         1 <0>         0.1104
     40 H17        -6.7504   -5.9057    3.6602 H         1 <0>         0.1121
     41 H18        -4.4073   -5.9760    4.8761 H         1 <0>         0.0870
     42 H19        -4.1491   -4.3216    4.2723 H         1 <0>         0.0902
     43 H20        -6.2472   -3.6088    5.6929 H         1 <0>         0.1193
     44 H21        -6.1360   -4.7682    7.8124 H         1 <0>         0.1227
     45 H22        -3.9131   -6.4683    6.3571 H         1 <0>         0.1331
     46 H23        -5.2132   -6.6035    9.1377 H         1 <0>         0.1292
     47 H24        -3.3524   -8.0054   10.6190 H         1 <0>         0.0904
     48 H25        -4.5674   -9.1470    9.9954 H         1 <0>         0.0903
     49 H26        -2.7693  -10.4732    8.9200 H         1 <0>         0.0636
     50 H27        -1.5543   -9.3317    9.5435 H         1 <0>         0.0636
     51 H28        -2.2437   -9.8659   11.8647 H         1 <0>         0.0553
     52 H29        -3.4587  -11.0075   11.2412 H         1 <0>         0.0552
@<TRIPOS>BOND
     1    1    2 1
     2    1   24 1
     3    1   25 1
     4    1   26 1
     5    2    3 1
     6    2   27 1
     7    2   28 1
     8    3    4 1
     9    3   29 1
    10    3   30 1
    11    4    5 1
    12    4   31 1
    13    4   32 1
    14    5    6 1
    15    5   33 1
    16    5   34 1
    17    6    7 2
    18    6   35 1
    19    7    8 1
    20    7   36 1
    21    8    9 1
    22    8   37 1
    23    8   38 1
    24    9   10 2
    25    9   39 1
    26   10   11 1
    27   10   40 1
    28   11   12 1
    29   11   41 1
    30   11   42 1
    31   12   13 2
    32   12   43 1
    33   13   14 1
    34   13   44 1
    35   14   15 2
    36   14   45 1
    37   15   16 1
    38   15   46 1
    39   16   17 2
    40   16   18 1
    41   18   19 1
    42   18   47 1
    43   18   48 1
    44   19   20 1
    45   19   49 1
    46   19   50 1
    47   20   21 1
    48   20   51 1
    49   20   52 1
    50   21   22 2
    51   21   23 1
