@<TRIPOS>MOLECULE
ZINC00005284
   15    15     0     0     0
SMALL
USER_CHARGES
pyridine-2,5-dicarboxylic acid
@<TRIPOS>ATOM
      1 C1          2.4701    3.7304   -0.0015 C.ar      1 <0>        -0.0641
      2 C2          2.4728    5.1154    0.0054 C.ar      1 <0>        -0.1590
      3 C3          1.2582    5.7971    0.0202 C.ar      1 <0>         0.0856
      4 N1          0.1064    5.1365    0.0272 N.ar      1 <0>        -0.4545
      5 C4          0.0612    3.8236    0.0161 C.ar      1 <0>         0.1174
      6 C5          1.2380    3.0685    0.0067 C.ar      1 <0>        -0.1786
      7 C6          1.1806    1.5906   -0.0007 C.2       1 <0>         0.5019
      8 O1          2.2080    0.9431   -0.0140 O.co2     1 <0>        -0.6397
      9 C7          1.2513    7.2796    0.0277 C.2       1 <0>         0.5077
     10 O2          2.2998    7.8915    0.0210 O.co2     1 <0>        -0.6379
     11 H1          3.3964    3.1753   -0.0133 H         1 <0>         0.1298
     12 H2          3.4053    5.6602   -0.0002 H         1 <0>         0.1318
     13 H3         -0.8953    3.3221    0.0180 H         1 <0>         0.1576
     14 O3         -0.0110    0.9628    0.0073 O.co2     1 <0>        -0.7598
     15 O4          0.0821    7.9474    0.0420 O.co2     1 <0>        -0.7383
@<TRIPOS>BOND
     1    1    6 ar
     2    1    2 ar
     3    1   11 1
     4    2    3 ar
     5    2   12 1
     6    3    4 ar
     7    3    9 1
     8    4    5 ar
     9    5    6 ar
    10    5   13 1
    11    6    7 1
    12    7    8 2
    13    7   14 1
    14    9   10 2
    15    9   15 1
@<TRIPOS>MOLECULE
ZINC01534133
   13    12     0     0     0
SMALL
USER_CHARGES
2-(carboxyformyl)aminoacetic acid
@<TRIPOS>ATOM
      1 C1         -1.2896    1.6810    0.0173 C.3       1 <0>         0.0748
      2 C2         -2.4216    0.6862    0.0173 C.2       1 <0>         0.4614
      3 O1         -2.1848   -0.4985    0.0097 O.co2     1 <0>        -0.6315
      4 N1         -0.0111    0.9658    0.0074 N.am      1 <0>        -0.6984
      5 C3          1.1468    1.6555   -0.0000 C.2       1 <0>         0.4698
      6 O2          1.1304    2.8689    0.0067 O.2       1 <0>        -0.5603
      7 C4          2.4509    0.9260   -0.0164 C.2       1 <0>         0.4639
      8 O3          2.4674   -0.2864   -0.0230 O.co2     1 <0>        -0.6168
      9 H1         -1.3516    2.3020    0.9110 H         1 <0>         0.0652
     10 H2         -1.3601    2.3116   -0.8689 H         1 <0>         0.0651
     11 H3          0.0021   -0.0041    0.0020 H         1 <0>         0.4124
     12 O4         -3.6931    1.1164    0.0256 O.co2     1 <0>        -0.7745
     13 O5          3.6068    1.6145   -0.0237 O.co2     1 <0>        -0.7312
@<TRIPOS>BOND
     1    1    2 1
     2    1    4 1
     3    1    9 1
     4    1   10 1
     5    2    3 2
     6    2   12 1
     7    4    5 am
     8    4   11 1
     9    5    6 2
    10    5    7 1
    11    7    8 2
    12    7   13 1
