@<TRIPOS>MOLECULE
ZINC03914596
  100   104     0     0     0
SMALL
USER_CHARGES
N-[1-benzyl-2-hydroxy-3-[3-(tert-butylcarbamoyl)-3,4,4a,5,6,7,8,8a-octahydro-1H-isoquinolin-2-yl]-propyl]-2-(2-quinolylcarbonylamino)butanediamide
@<TRIPOS>ATOM
      1 C1         -4.4157    0.4364   -1.9776 C.3       1 <0>        -0.1695
      2 C2         -5.2799    0.3860   -0.7161 C.3       1 <0>         0.1678
      3 C3         -6.3406   -0.7062   -0.8678 C.3       1 <0>        -0.1620
      4 C4         -5.9660    1.7384   -0.5135 C.3       1 <0>        -0.1682
      5 N1         -4.4350    0.0885    0.4431 N.am      1 <0>        -0.6939
      6 C5         -3.4261    0.9192    0.7726 C.2       1 <0>         0.5082
      7 O1         -3.2178    1.9130    0.1094 O.2       1 <0>        -0.5257
      8 C6         -2.5570    0.6132    1.9651 C.3       1 <0>        -0.0031
      9 H1         -2.3553   -0.4574    2.0016 H         1 <0>         0.1865
     10 C7         -3.2796    1.0397    3.2453 C.3       1 <0>        -0.1377
     11 C8         -2.3813    0.7506    4.4504 C.3       1 <0>        -0.0875
     12 H2         -2.1891   -0.3208    4.5073 H         1 <0>         0.0919
     13 C9         -3.0736    1.2115    5.7325 C.3       1 <0>        -0.1155
     14 C10        -3.3386    2.7166    5.6608 C.3       1 <0>        -0.1292
     15 C11        -2.0097    3.4586    5.5027 C.3       1 <0>        -0.1199
     16 C12        -1.3231    3.0028    4.2142 C.3       1 <0>        -0.1319
     17 C13        -1.0558    1.4973    4.2798 C.3       1 <0>        -0.1059
     18 H3         -0.3980    1.2713    5.1191 H         1 <0>         0.1232
     19 C14        -0.3950    1.0475    2.9730 C.3       1 <0>        -0.0037
     20 C15        -0.6344    1.0606    0.5640 C.3       1 <0>        -0.0583
     21 C16        -0.3845   -0.4439    0.4419 C.3       1 <0>         0.0803
     22 H4          0.1831   -0.7892    1.3060 H         1 <0>         0.1330
     23 C17         0.4084   -0.7272   -0.8356 C.3       1 <0>         0.1330
     24 H5          1.3225   -0.1334   -0.8350 H         1 <0>         0.1107
     25 C18        -0.4392   -0.3574   -2.0545 C.3       1 <0>        -0.1009
     26 C19         0.3837   -0.5199   -3.3065 C.ar      1 <0>        -0.0744
     27 C20         1.1207    0.5440   -3.7922 C.ar      1 <0>        -0.1057
     28 C21         1.8793    0.3935   -4.9379 C.ar      1 <0>        -0.1079
     29 C22         1.8930   -0.8180   -5.6036 C.ar      1 <0>        -0.1084
     30 C23         1.1515   -1.8802   -5.1211 C.ar      1 <0>        -0.1066
     31 C24         0.3970   -1.7312   -3.9725 C.ar      1 <0>        -0.1086
     32 N2          0.7506   -2.1505   -0.8924 N.am      1 <0>        -0.7283
     33 C25         1.8228   -2.5581   -1.6000 C.2       1 <0>         0.5189
     34 O2          2.5044   -1.7465   -2.1898 O.2       1 <0>        -0.4737
     35 C26         2.1749   -4.0222   -1.6585 C.3       1 <0>         0.1476
     36 H6          1.3448   -4.5784   -2.0942 H         1 <0>         0.1214
     37 C27         2.4476   -4.5380   -0.2441 C.3       1 <0>        -0.1595
     38 C28         3.6445   -3.8238    0.3290 C.2       1 <0>         0.5110
     39 O3          4.1765   -2.9325   -0.2983 O.2       1 <0>        -0.5209
     40 N3          4.1237   -4.1754    1.5386 N.am      1 <0>        -0.8554
     41 N4          3.3714   -4.2042   -2.4838 N.am      1 <0>        -0.6835
     42 C29         3.5663   -5.3642   -3.1417 C.2       1 <0>         0.5762
     43 O4          2.7974   -6.2910   -2.9798 O.2       1 <0>        -0.5322
     44 C30         4.7189   -5.5095   -4.0631 C.ar      1 <0>         0.1086
     45 C31         4.9097   -6.7258   -4.7354 C.ar      1 <0>        -0.1272
     46 C32         5.9634   -6.8703   -5.5911 C.ar      1 <0>        -0.0587
     47 C33         6.8387   -5.7810   -5.7598 C.ar      1 <0>        -0.0833
     48 C34         7.9469   -5.8623   -6.6183 C.ar      1 <0>        -0.1023
     49 C35         8.7718   -4.7882   -6.7567 C.ar      1 <0>        -0.1013
     50 C36         8.5326   -3.6063   -6.0566 C.ar      1 <0>        -0.1004
     51 C37         7.4699   -3.4911   -5.2158 C.ar      1 <0>        -0.0851
     52 C38         6.5928   -4.5795   -5.0455 C.ar      1 <0>         0.1230
     53 N5          5.5440   -4.4940   -4.2277 N.ar      1 <0>        -0.4337
     54 O5         -1.6359   -1.1317    0.3881 O.3       1 <0>        -0.5532
     55 H7         -3.9269   -0.5271   -2.1219 H         1 <0>         0.0576
     56 H8         -5.0443    0.6577   -2.8401 H         1 <0>         0.0767
     57 H9         -3.6601    1.2145   -1.8695 H         1 <0>         0.0761
     58 H10        -6.9563   -0.7422    0.0309 H         1 <0>         0.0672
     59 H11        -6.9692   -0.4849   -1.7303 H         1 <0>         0.0835
     60 H12        -5.8518   -1.6698   -1.0122 H         1 <0>         0.0676
     61 H13        -5.2104    2.5166   -0.4054 H         1 <0>         0.0770
     62 H14        -6.5946    1.9598   -1.3760 H         1 <0>         0.0736
     63 H15        -6.5817    1.7025    0.3852 H         1 <0>         0.0587
     64 H16        -4.6017   -0.7064    0.9736 H         1 <0>         0.4100
     65 H17        -4.2099    0.4800    3.3421 H         1 <0>         0.1136
     66 H18        -3.4991    2.1065    3.2024 H         1 <0>         0.0973
     67 H19        -4.0194    0.6815    5.8449 H         1 <0>         0.0753
     68 H20        -2.4333    0.9967    6.5880 H         1 <0>         0.0772
     69 H21        -3.9797    2.9327    4.8062 H         1 <0>         0.0639
     70 H22        -3.8308    3.0433    6.5769 H         1 <0>         0.0747
     71 H23        -2.1957    4.5315    5.4555 H         1 <0>         0.0740
     72 H24        -1.3667    3.2383    6.3549 H         1 <0>         0.0737
     73 H25        -0.3785    3.5344    4.0986 H         1 <0>         0.0811
     74 H26        -1.9680    3.2201    3.3628 H         1 <0>         0.0564
     75 H27        -0.2045   -0.0250    3.0121 H         1 <0>         0.1332
     76 H28         0.5468    1.5799    2.8398 H         1 <0>         0.1351
     77 H29         0.3162    1.5919    0.5156 H         1 <0>         0.1464
     78 H30        -1.2765    1.3898   -0.2530 H         1 <0>         0.1529
     79 H31        -1.3093   -1.0120   -2.1041 H         1 <0>         0.0770
     80 H32        -0.7680    0.6782   -1.9677 H         1 <0>         0.0796
     81 H33         1.1068    1.4917   -3.2744 H         1 <0>         0.1117
     82 H34         2.4584    1.2235   -5.3151 H         1 <0>         0.1190
     83 H35         2.4828   -0.9345   -6.5008 H         1 <0>         0.1181
     84 H36         1.1619   -2.8265   -5.6414 H         1 <0>         0.1150
     85 H37        -0.1823   -2.5611   -3.5955 H         1 <0>         0.1082
     86 H38         0.2055   -2.7996   -0.4207 H         1 <0>         0.4028
     87 H39         1.5773   -4.3510    0.3850 H         1 <0>         0.1055
     88 H40         2.6465   -5.6091   -0.2800 H         1 <0>         0.1152
     89 H41         3.6982   -4.8882    2.0403 H         1 <0>         0.4021
     90 H42         4.8941   -3.7157    1.9075 H         1 <0>         0.4043
     91 H43         4.0235   -3.4898   -2.5569 H         1 <0>         0.4308
     92 H44         4.2221   -7.5440   -4.5801 H         1 <0>         0.1509
     93 H45         6.1241   -7.7977   -6.1208 H         1 <0>         0.1489
     94 H46         8.1435   -6.7719   -7.1663 H         1 <0>         0.1356
     95 H47         9.6235   -4.8525   -7.4176 H         1 <0>         0.1330
     96 H48         9.2025   -2.7687   -6.1838 H         1 <0>         0.1345
     97 H49         7.2996   -2.5686   -4.6806 H         1 <0>         0.1386
     98 H50        -2.1948   -0.8738   -0.3577 H         1 <0>         0.3875
     99 N6         -1.2955    1.3757    1.8469 N.4       1 <0>        -0.3713
    100 H51        -1.5097    2.3795    1.8738 H         1 <0>         0.4322
@<TRIPOS>BOND
     1    1    2 1
     2    1   55 1
     3    1   56 1
     4    1   57 1
     5    2    3 1
     6    2    4 1
     7    2    5 1
     8    3   58 1
     9    3   59 1
    10    3   60 1
    11    4   61 1
    12    4   62 1
    13    4   63 1
    14    5    6 am
    15    5   64 1
    16    6    7 2
    17    6    8 1
    18    8    9 1
    19    8   10 1
    20    8   99 1
    21   10   11 1
    22   10   65 1
    23   10   66 1
    24   11   12 1
    25   11   17 1
    26   11   13 1
    27   13   14 1
    28   13   67 1
    29   13   68 1
    30   14   15 1
    31   14   69 1
    32   14   70 1
    33   15   16 1
    34   15   71 1
    35   15   72 1
    36   16   17 1
    37   16   73 1
    38   16   74 1
    39   17   18 1
    40   17   19 1
    41   19   75 1
    42   19   76 1
    43   19   99 1
    44   20   21 1
    45   20   77 1
    46   20   78 1
    47   20   99 1
    48   21   22 1
    49   21   23 1
    50   21   54 1
    51   23   24 1
    52   23   25 1
    53   23   32 1
    54   25   26 1
    55   25   79 1
    56   25   80 1
    57   26   31 ar
    58   26   27 ar
    59   27   28 ar
    60   27   81 1
    61   28   29 ar
    62   28   82 1
    63   29   30 ar
    64   29   83 1
    65   30   31 ar
    66   30   84 1
    67   31   85 1
    68   32   33 am
    69   32   86 1
    70   33   34 2
    71   33   35 1
    72   35   36 1
    73   35   37 1
    74   35   41 1
    75   37   38 1
    76   37   87 1
    77   37   88 1
    78   38   39 2
    79   38   40 am
    80   40   89 1
    81   40   90 1
    82   41   42 am
    83   41   91 1
    84   42   43 2
    85   42   44 1
    86   44   53 ar
    87   44   45 ar
    88   45   46 ar
    89   45   92 1
    90   46   47 ar
    91   46   93 1
    92   47   52 ar
    93   47   48 ar
    94   48   49 ar
    95   48   94 1
    96   49   50 ar
    97   49   95 1
    98   50   51 ar
    99   50   96 1
   100   51   52 ar
   101   51   97 1
   102   52   53 ar
   103   54   98 1
   104   99  100 1
