@<TRIPOS>MOLECULE
ZINC05138927
   20    20     0     0     0
SMALL
USER_CHARGES
3,4,5-trihydroxybenzenecarbohydroxamic acid
@<TRIPOS>ATOM
      1 C1         -0.0126    1.0758    0.0080 C.ar      1 <0>        -0.0741
      2 C2         -1.2314    1.7584    0.0174 C.ar      1 <0>        -0.1020
      3 C3         -1.2469    3.1553    0.0310 C.ar      1 <0>        -0.1087
      4 C4         -0.0569    3.8586    0.0239 C.ar      1 <0>         0.0938
      5 C5          1.1565    3.1759    0.0081 C.ar      1 <0>         0.0866
      6 C6          1.1747    1.7838    0.0004 C.ar      1 <0>         0.0955
      7 O1          2.3615    1.1199   -0.0150 O.3       1 <0>        -0.4784
      8 O2          2.3250    3.8696    0.0007 O.3       1 <0>        -0.4725
      9 O3         -0.0713    5.2185    0.0318 O.3       1 <0>        -0.4800
     10 C7         -2.5008    1.0049    0.0193 C.2       1 <0>         0.5747
     11 O4         -2.4861   -0.2108    0.0125 O.2       1 <0>        -0.5081
     12 N1         -3.6760    1.6646    0.0284 N.am      1 <0>        -0.5917
     13 O5         -4.8936    0.9418    0.0302 O.3       1 <0>        -0.3098
     14 H1          0.0021   -0.0041    0.0020 H         1 <0>         0.1553
     15 H2         -2.1879    3.6853    0.0425 H         1 <0>         0.1407
     16 H3          2.6962    0.9329   -0.9028 H         1 <0>         0.3944
     17 H4          2.6547    4.0752   -0.8848 H         1 <0>         0.3912
     18 H5         -0.0841    5.6169   -0.8492 H         1 <0>         0.3932
     19 H6         -3.6878    2.6345    0.0338 H         1 <0>         0.4086
     20 H7         -5.6828    1.5006    0.0370 H         1 <0>         0.3915
@<TRIPOS>BOND
     1    1    6 ar
     2    1    2 ar
     3    1   14 1
     4    2    3 ar
     5    2   10 1
     6    3    4 ar
     7    3   15 1
     8    4    5 ar
     9    4    9 1
    10    5    6 ar
    11    5    8 1
    12    6    7 1
    13    7   16 1
    14    8   17 1
    15    9   18 1
    16   10   11 2
    17   10   12 am
    18   12   13 1
    19   12   19 1
    20   13   20 1
@<TRIPOS>MOLECULE
ZINC04015433
   29    31     0     0     0
SMALL
USER_CHARGES

@<TRIPOS>ATOM
      1 C1         -0.0184    1.5028    0.0103 C.3       1 <0>        -0.1362
      2 C2          0.0021   -0.0041    0.0020 C.2       1 <0>         0.0448
      3 C3         -1.1992   -0.7421    0.0037 C.ar      1 <0>        -0.1398
      4 C4         -2.4372   -0.0715    0.0129 C.ar      1 <0>        -0.0680
      5 C5         -3.5984   -0.7877    0.0140 C.ar      1 <0>         0.0659
      6 C6         -3.5656   -2.1885    0.0065 C.ar      1 <0>         0.1521
      7 C7         -2.3581   -2.8632   -0.0026 C.ar      1 <0>        -0.1528
      8 C8         -1.1641   -2.1530   -0.0044 C.ar      1 <0>         0.1542
      9 O1          0.0095   -2.8204   -0.0138 O.3       1 <0>        -0.2010
     10 C9          1.1871   -2.1653   -0.0156 C.2       1 <0>         0.1993
     11 C10         2.3824   -2.8537   -0.0261 C.2       1 <0>        -0.2952
     12 C11         3.5896   -2.1469   -0.0281 C.2       1 <0>         0.3888
     13 O2          4.6488   -2.7621   -0.0378 O.2       1 <0>        -0.4896
     14 C12         3.6055   -0.7323   -0.0196 C.2       1 <0>         0.0487
     15 C13         2.4486   -0.0222   -0.0088 C.2       1 <0>        -0.1197
     16 C14         1.2100   -0.7017   -0.0133 C.2       1 <0>        -0.1271
     17 O3          4.7959   -0.0749   -0.0218 O.3       1 <0>        -0.4622
     18 O4         -4.7279   -2.8888    0.0086 O.3       1 <0>        -0.4773
     19 O5         -4.7936   -0.1388    0.0229 O.3       1 <0>        -0.4801
     20 H1          1.0042    1.8801    0.0026 H         1 <0>         0.0889
     21 H2         -0.5455    1.8639   -0.8728 H         1 <0>         0.0931
     22 H3         -0.5286    1.8543    0.9071 H         1 <0>         0.0938
     23 H4         -2.4675    1.0080    0.0194 H         1 <0>         0.1548
     24 H5         -2.3435   -3.9431   -0.0080 H         1 <0>         0.1586
     25 H6          2.3862   -3.9337   -0.0323 H         1 <0>         0.1531
     26 H7          2.4750    1.0574   -0.0017 H         1 <0>         0.1508
     27 H8          5.5673   -0.6580   -0.0293 H         1 <0>         0.4081
     28 H9         -5.0691   -3.0872   -0.8742 H         1 <0>         0.4010
     29 H10        -5.1432    0.0538   -0.8579 H         1 <0>         0.3929
@<TRIPOS>BOND
     1    1    2 1
     2    1   20 1
     3    1   21 1
     4    1   22 1
     5    2   16 2
     6    2    3 1
     7    3    8 ar
     8    3    4 ar
     9    4    5 ar
    10    4   23 1
    11    5    6 ar
    12    5   19 1
    13    6    7 ar
    14    6   18 1
    15    7    8 ar
    16    7   24 1
    17    8    9 1
    18    9   10 1
    19   10   16 1
    20   10   11 2
    21   11   12 1
    22   11   25 1
    23   12   13 2
    24   12   14 1
    25   14   15 2
    26   14   17 1
    27   15   16 1
    28   15   26 1
    29   17   27 1
    30   18   28 1
    31   19   29 1
@<TRIPOS>MOLECULE
ZINC13556374
   60    62     0     0     0
SMALL
USER_CHARGES

@<TRIPOS>ATOM
      1 C1         -0.0169    1.3952    0.0097 C.ar      1 <0>        -0.0882
      2 C2          1.1671    2.0997    0.0022 C.ar      1 <0>        -0.1310
      3 C3          2.3804    1.4252   -0.0130 C.ar      1 <0>         0.0901
      4 C4          2.4077    0.0306   -0.0212 C.ar      1 <0>         0.0765
      5 C5          1.2264   -0.6835   -0.0138 C.ar      1 <0>        -0.1047
      6 C6          0.0021   -0.0041    0.0020 C.ar      1 <0>        -0.0634
      7 C7         -1.2592   -0.7582    0.0105 C.2       1 <0>        -0.0161
      8 C8         -2.4393   -0.1007    0.0257 C.2       1 <0>        -0.1738
      9 C9         -3.6561   -0.8283    0.0339 C.2       1 <0>         0.5027
     10 O1         -3.6375   -2.0447    0.0272 O.2       1 <0>        -0.5218
     11 O2         -4.8347   -0.1717    0.0492 O.3       1 <0>        -0.3045
     12 C10        -6.0211   -0.9682    0.0567 C.3       1 <0>         0.1058
     13 H1         -5.8216   -1.9124    0.5635 H         1 <0>         0.0921
     14 C11        -6.4589   -1.2447   -1.3831 C.3       1 <0>        -0.1056
     15 C12        -6.7389    0.0806   -2.0945 C.3       1 <0>         0.0704
     16 C13        -7.8514    0.8296   -1.3581 C.3       1 <0>        -0.1564
     17 C14        -7.4136    1.1061    0.0816 C.3       1 <0>         0.0966
     18 H2         -6.5087    1.7137    0.0759 H         1 <0>         0.0774
     19 C15        -7.1336   -0.2192    0.7930 C.3       1 <0>         0.1100
     20 H3         -8.0386   -0.8268    0.7987 H         1 <0>         0.1060
     21 O3         -6.7248    0.0391    2.1377 O.3       1 <0>        -0.3385
     22 C16        -7.6961    0.0998    3.0723 C.2       1 <0>         0.4965
     23 O4         -8.8586   -0.0623    2.7529 O.2       1 <0>        -0.4905
     24 C17        -7.3618    0.3527    4.4267 C.2       1 <0>        -0.1841
     25 C18        -8.3343    0.4135    5.3625 C.2       1 <0>        -0.0094
     26 C19        -7.9877    0.6756    6.7664 C.ar      1 <0>        -0.0668
     27 C20        -6.6513    0.8681    7.1354 C.ar      1 <0>        -0.0892
     28 C21        -6.3293    1.1135    8.4519 C.ar      1 <0>        -0.1315
     29 C22        -7.3275    1.1706    9.4156 C.ar      1 <0>         0.0921
     30 C23        -8.6613    0.9798    9.0561 C.ar      1 <0>         0.0775
     31 C24        -8.9938    0.7390    7.7377 C.ar      1 <0>        -0.1032
     32 O5         -9.6355    1.0366   10.0033 O.3       1 <0>        -0.4863
     33 O6         -7.0038    1.4125   10.7123 O.3       1 <0>        -0.4874
     34 O7         -8.4527    1.8057    0.7694 O.3       1 <0>        -0.5613
     35 C25        -7.1700   -0.1918   -3.5126 C.2       1 <0>         0.4782
     36 O8         -8.1674   -0.8588   -3.7290 O.co2     1 <0>        -0.6902
     37 O9         -6.5214    0.2548   -4.4434 O.co2     1 <0>        -0.6835
     38 O10        -5.5525    0.8771   -2.1020 O.3       1 <0>        -0.5409
     39 O11         3.5987   -0.6259   -0.0370 O.3       1 <0>        -0.4863
     40 O12         3.5442    2.1252   -0.0204 O.3       1 <0>        -0.4872
     41 H4         -0.9592    1.9225    0.0260 H         1 <0>         0.1411
     42 H5          1.1513    3.1796    0.0078 H         1 <0>         0.1384
     43 H6          1.2463   -1.7633   -0.0201 H         1 <0>         0.1404
     44 H7         -1.2427   -1.8381    0.0045 H         1 <0>         0.1410
     45 H8         -2.4557    0.9791    0.0317 H         1 <0>         0.1418
     46 H9         -5.6663   -1.7783   -1.9077 H         1 <0>         0.0816
     47 H10        -7.3638   -1.8523   -1.3773 H         1 <0>         0.0982
     48 H11        -8.0508    1.7737   -1.8649 H         1 <0>         0.0680
     49 H12        -8.7563    0.2220   -1.3524 H         1 <0>         0.0837
     50 H13        -6.3297    0.4966    4.7104 H         1 <0>         0.1394
     51 H14        -9.3664    0.2695    5.0789 H         1 <0>         0.1427
     52 H15        -5.8728    0.8239    6.3881 H         1 <0>         0.1397
     53 H16        -5.2978    1.2616    8.7355 H         1 <0>         0.1387
     54 H17       -10.0268    0.5955    7.4574 H         1 <0>         0.1413
     55 H18       -10.0034    1.9209   10.1366 H         1 <0>         0.3883
     56 H19        -6.9960    2.3505   10.9473 H         1 <0>         0.3893
     57 H20        -8.6831    2.6569    0.3727 H         1 <0>         0.3752
     58 H21        -5.6567    1.7339   -2.5381 H         1 <0>         0.3665
     59 H22         3.9520   -0.8208    0.8417 H         1 <0>         0.3868
     60 H23         3.8897    2.3232    0.8608 H         1 <0>         0.3877
@<TRIPOS>BOND
     1    1    6 ar
     2    1    2 ar
     3    1   41 1
     4    2    3 ar
     5    2   42 1
     6    3    4 ar
     7    3   40 1
     8    4    5 ar
     9    4   39 1
    10    5    6 ar
    11    5   43 1
    12    6    7 1
    13    7    8 2
    14    7   44 1
    15    8    9 1
    16    8   45 1
    17    9   10 2
    18    9   11 1
    19   11   12 1
    20   12   13 1
    21   12   19 1
    22   12   14 1
    23   14   15 1
    24   14   46 1
    25   14   47 1
    26   15   16 1
    27   15   35 1
    28   15   38 1
    29   16   17 1
    30   16   48 1
    31   16   49 1
    32   17   18 1
    33   17   19 1
    34   17   34 1
    35   19   20 1
    36   19   21 1
    37   21   22 1
    38   22   23 2
    39   22   24 1
    40   24   25 2
    41   24   50 1
    42   25   26 1
    43   25   51 1
    44   26   31 ar
    45   26   27 ar
    46   27   28 ar
    47   27   52 1
    48   28   29 ar
    49   28   53 1
    50   29   30 ar
    51   29   33 1
    52   30   31 ar
    53   30   32 1
    54   31   54 1
    55   32   55 1
    56   33   56 1
    57   34   57 1
    58   35   36 2
    59   35   37 1
    60   38   58 1
    61   39   59 1
    62   40   60 1
@<TRIPOS>MOLECULE
ZINC03869510
   32    33     0     0     0
SMALL
USER_CHARGES
3,4-dihydroxy-5-(3,4,5-trihydroxybenzoyl)oxy-benzoic acid
@<TRIPOS>ATOM
      1 C1         -5.9359   -2.3381   -0.3155 C.ar      1 <0>        -0.0730
      2 C2         -6.0213   -0.9480   -0.1989 C.ar      1 <0>        -0.0940
      3 C3         -7.2728   -0.3259   -0.1875 C.ar      1 <0>        -0.0774
      4 C4         -8.4217   -1.0855   -0.3021 C.ar      1 <0>         0.0861
      5 C5         -8.3336   -2.4704   -0.4176 C.ar      1 <0>         0.0906
      6 C6         -7.0883   -3.0933   -0.4244 C.ar      1 <0>         0.0857
      7 O1         -7.0059   -4.4461   -0.5378 O.3       1 <0>        -0.4791
      8 O2         -9.4650   -3.2153   -0.5244 O.3       1 <0>        -0.4739
      9 O3         -9.6397   -0.4804   -0.2962 O.3       1 <0>        -0.4792
     10 C7         -4.7935   -0.1396   -0.0820 C.2       1 <0>         0.5029
     11 O4         -3.7061   -0.6821   -0.0870 O.2       1 <0>        -0.4843
     12 O5         -4.8773    1.2005    0.0303 O.3       1 <0>        -0.2711
     13 C8         -3.7083    1.8953    0.0197 C.ar      1 <0>         0.0502
     14 C9         -3.1402    2.3097    1.2101 C.ar      1 <0>        -0.0717
     15 C10        -1.9419    3.0280    1.1981 C.ar      1 <0>        -0.0903
     16 C11        -1.3150    3.3166   -0.0176 C.ar      1 <0>        -0.0765
     17 C12        -1.8842    2.8955   -1.2042 C.ar      1 <0>         0.0750
     18 C13        -3.0816    2.1841   -1.1898 C.ar      1 <0>         0.0759
     19 O6         -3.6394    1.7717   -2.3580 O.3       1 <0>        -0.4796
     20 O7         -1.2745    3.1756   -2.3872 O.3       1 <0>        -0.4838
     21 C14        -1.3363    3.4757    2.4661 C.2       1 <0>         0.4928
     22 O8         -1.8821    3.2243    3.5222 O.co2     1 <0>        -0.6232
     23 H1         -4.9702   -2.8217   -0.3208 H         1 <0>         0.1540
     24 H2         -7.3419    0.7478   -0.0935 H         1 <0>         0.1567
     25 H3         -7.0155   -4.9131    0.3089 H         1 <0>         0.3914
     26 H4         -9.8256   -3.5067    0.3243 H         1 <0>         0.3895
     27 H5        -10.0252   -0.3809    0.5850 H         1 <0>         0.3919
     28 H6         -3.6243    2.0816    2.1482 H         1 <0>         0.1445
     29 H7         -0.3867    3.8684   -0.0294 H         1 <0>         0.1505
     30 H8         -3.3500    0.8945   -2.6439 H         1 <0>         0.3800
     31 H9         -0.6475    2.4986   -2.6765 H         1 <0>         0.3835
     32 O9         -0.1748    4.1588    2.4538 O.co2     1 <0>        -0.7441
@<TRIPOS>BOND
     1    1    6 ar
     2    1    2 ar
     3    1   23 1
     4    2    3 ar
     5    2   10 1
     6    3    4 ar
     7    3   24 1
     8    4    5 ar
     9    4    9 1
    10    5    6 ar
    11    5    8 1
    12    6    7 1
    13    7   25 1
    14    8   26 1
    15    9   27 1
    16   10   11 2
    17   10   12 1
    18   12   13 1
    19   13   18 ar
    20   13   14 ar
    21   14   15 ar
    22   14   28 1
    23   15   16 ar
    24   15   21 1
    25   16   17 ar
    26   16   29 1
    27   17   18 ar
    28   17   20 1
    29   18   19 1
    30   19   30 1
    31   20   31 1
    32   21   22 2
    33   21   32 1
