@<TRIPOS>MOLECULE
ZINC01543773
   47    49     0     0     0
SMALL
USER_CHARGES
2-[1-benzyl-3-(carbamoylformyl)-2-ethyl-indol-4-yl]oxyacetic acid
@<TRIPOS>ATOM
      1 C1         -4.4492   -2.2536    1.3450 C.3       1 <0>        -0.1506
      2 C2         -3.9258   -2.4371   -0.0809 C.3       1 <0>        -0.0696
      3 C3         -2.5234   -2.9869   -0.0344 C.2       1 <0>         0.1221
      4 C4         -1.3698   -2.2264    0.0056 C.2       1 <0>        -0.2101
      5 C5         -0.2479   -3.1845    0.0362 C.ar      1 <0>        -0.0958
      6 C6         -0.8319   -4.4598    0.0208 C.ar      1 <0>         0.1345
      7 N1         -2.2020   -4.2935   -0.0253 N.pl3     1 <0>        -0.4551
      8 C7         -3.1730   -5.3899   -0.0590 C.3       1 <0>         0.1483
      9 C8         -3.4586   -5.7641   -1.4906 C.ar      1 <0>        -0.1140
     10 C9         -4.4887   -5.1458   -2.1744 C.ar      1 <0>        -0.1021
     11 C10        -4.7475   -5.4856   -3.4891 C.ar      1 <0>        -0.1201
     12 C11        -3.9830   -6.4512   -4.1168 C.ar      1 <0>        -0.1116
     13 C12        -2.9562   -7.0733   -3.4314 C.ar      1 <0>        -0.1196
     14 C13        -2.6940   -6.7297   -2.1183 C.ar      1 <0>        -0.0948
     15 C14        -0.0135   -5.5849    0.0462 C.ar      1 <0>        -0.1791
     16 C15         1.3571   -5.4412    0.0915 C.ar      1 <0>        -0.0518
     17 C16         1.9359   -4.1823    0.1132 C.ar      1 <0>        -0.2465
     18 C17         1.1403   -3.0499    0.0890 C.ar      1 <0>         0.1869
     19 O1          1.7072   -1.8154    0.1102 O.3       1 <0>        -0.2835
     20 C18         3.1343   -1.7575    0.1577 C.3       1 <0>         0.0177
     21 C19         3.5784   -0.3176    0.1753 C.2       1 <0>         0.4699
     22 O2          2.7571    0.5683    0.1498 O.co2     1 <0>        -0.6115
     23 C20        -1.2792   -0.7673    0.0102 C.2       1 <0>         0.4404
     24 O3         -1.1918   -0.1670    1.0636 O.2       1 <0>        -0.4029
     25 C21        -1.2941   -0.0152   -1.2777 C.2       1 <0>         0.4942
     26 O4         -1.2847   -0.6167   -2.3320 O.2       1 <0>        -0.5080
     27 N2         -1.3180    1.3324   -1.2708 N.am      1 <0>        -0.8268
     28 H1         -4.4530   -3.2156    1.8573 H         1 <0>         0.0564
     29 H2         -3.8041   -1.5584    1.8822 H         1 <0>         0.0661
     30 H3         -5.4635   -1.8559    1.3113 H         1 <0>         0.0651
     31 H4         -3.9220   -1.4750   -0.5933 H         1 <0>         0.0864
     32 H5         -4.5709   -3.1323   -0.6182 H         1 <0>         0.0807
     33 H6         -2.7653   -6.2528    0.4676 H         1 <0>         0.0997
     34 H7         -4.0968   -5.0723    0.4246 H         1 <0>         0.0989
     35 H8         -5.0889   -4.3946   -1.6826 H         1 <0>         0.1229
     36 H9         -5.5499   -4.9999   -4.0244 H         1 <0>         0.1236
     37 H10        -4.1880   -6.7198   -5.1425 H         1 <0>         0.1224
     38 H11        -2.3591   -7.8279   -3.9217 H         1 <0>         0.1239
     39 H12        -1.8921   -7.2160   -1.5827 H         1 <0>         0.1235
     40 H13        -0.4522   -6.5716    0.0301 H         1 <0>         0.1160
     41 H14         1.9861   -6.3189    0.1107 H         1 <0>         0.1259
     42 H15         3.0108   -4.0845    0.1494 H         1 <0>         0.1320
     43 H16         3.4884   -2.2580    1.0590 H         1 <0>         0.0681
     44 H17         3.5475   -2.2545   -0.7200 H         1 <0>         0.0678
     45 H18        -1.3277    1.8215   -2.1084 H         1 <0>         0.4055
     46 H19        -1.3296    1.8130   -0.4283 H         1 <0>         0.4105
     47 O5          4.8863   -0.0191    0.2194 O.co2     1 <0>        -0.7561
@<TRIPOS>BOND
     1    1    2 1
     2    1   28 1
     3    1   29 1
     4    1   30 1
     5    2    3 1
     6    2   31 1
     7    2   32 1
     8    3    7 1
     9    3    4 2
    10    4    5 1
    11    4   23 1
    12    5   18 ar
    13    5    6 ar
    14    6    7 1
    15    6   15 ar
    16    7    8 1
    17    8    9 1
    18    8   33 1
    19    8   34 1
    20    9   14 ar
    21    9   10 ar
    22   10   11 ar
    23   10   35 1
    24   11   12 ar
    25   11   36 1
    26   12   13 ar
    27   12   37 1
    28   13   14 ar
    29   13   38 1
    30   14   39 1
    31   15   16 ar
    32   15   40 1
    33   16   17 ar
    34   16   41 1
    35   17   18 ar
    36   17   42 1
    37   18   19 1
    38   19   20 1
    39   20   21 1
    40   20   43 1
    41   20   44 1
    42   21   22 2
    43   21   47 1
    44   23   24 2
    45   23   25 1
    46   25   26 2
    47   25   27 am
    48   27   45 1
    49   27   46 1
