@<TRIPOS>MOLECULE
ZINC27556112
   56    58     0     0     0
SMALL
USER_CHARGES
3-[3-(2-amino-2-oxo-ethyl)-1-benzyl-2-ethyl-indol-5-yl]oxypropylphosphonic acid
@<TRIPOS>ATOM
      1 C1         -0.3087   -1.0209    2.3408 C.3       1 <0>        -0.1492
      2 C2         -1.7312   -1.3420    1.8780 C.3       1 <0>        -0.0668
      3 C3         -2.6455   -0.1980    2.2337 C.2       1 <0>         0.1123
      4 C4         -3.2605   -0.0422    3.4168 C.2       1 <0>        -0.1606
      5 C5         -4.0503    1.1886    3.3307 C.ar      1 <0>        -0.0468
      6 C6         -4.8920    1.8640    4.2174 C.ar      1 <0>        -0.1169
      7 C7         -5.5045    3.0349    3.8182 C.ar      1 <0>         0.1122
      8 C8         -5.2855    3.5410    2.5393 C.ar      1 <0>        -0.1806
      9 C9         -4.4575    2.8838    1.6573 C.ar      1 <0>        -0.0888
     10 C10        -3.8309    1.7024    2.0403 C.ar      1 <0>         0.0704
     11 N1         -2.9689    0.8372    1.4000 N.pl3     1 <0>        -0.4722
     12 C11        -2.4778    0.9992    0.0293 C.3       1 <0>         0.1498
     13 C12        -3.4683    0.3970   -0.9337 C.ar      1 <0>        -0.1121
     14 C13        -4.5418    1.1454   -1.3792 C.ar      1 <0>        -0.0973
     15 C14        -5.4472    0.5949   -2.2669 C.ar      1 <0>        -0.1187
     16 C15        -5.2822   -0.7057   -2.7050 C.ar      1 <0>        -0.1120
     17 C16        -4.2117   -1.4559   -2.2553 C.ar      1 <0>        -0.1209
     18 C17        -3.3062   -0.9054   -1.3676 C.ar      1 <0>        -0.1012
     19 O1         -6.3247    3.6972    4.6773 O.3       1 <0>        -0.3153
     20 C18        -6.9261    4.9027    4.2008 C.3       1 <0>         0.0648
     21 C19        -7.8078    5.5013    5.2986 C.3       1 <0>        -0.1018
     22 C20        -8.4517    6.7920    4.7884 C.3       1 <0>        -0.7289
     23 P1         -9.5023    7.5052    6.0964 P.3       1 <0>         2.2824
     24 O2         -8.7005    7.6918    7.3263 O.2       1 <0>        -1.0877
     25 O3        -10.0753    8.9284    5.6082 O.3       1 <0>        -1.1198
     26 O4        -10.7295    6.5089    6.4019 O.3       1 <0>        -0.9379
     27 C21        -3.1622   -0.9626    4.6060 C.3       1 <0>        -0.0642
     28 C22        -4.2381   -2.0142    4.5176 C.2       1 <0>         0.5139
     29 O5         -5.0087   -2.0160    3.5811 O.2       1 <0>        -0.5360
     30 N2         -4.3438   -2.9526    5.4792 N.am      1 <0>        -0.8850
     31 H1          0.3586   -1.8559    2.0812 H         1 <0>         0.0625
     32 H2         -0.3026   -0.8718    3.4306 H         1 <0>         0.0627
     33 H3          0.0405   -0.1041    1.8433 H         1 <0>         0.0556
     34 H4         -1.7373   -1.4911    0.7882 H         1 <0>         0.0726
     35 H5         -2.0805   -2.2588    2.3754 H         1 <0>         0.0857
     36 H6         -5.0623    1.4728    5.2095 H         1 <0>         0.1258
     37 H7         -5.7695    4.4579    2.2368 H         1 <0>         0.1292
     38 H8         -4.2947    3.2852    0.6680 H         1 <0>         0.1174
     39 H9         -2.3554    2.0697   -0.1922 H         1 <0>         0.0946
     40 H10        -1.5084    0.4899   -0.0755 H         1 <0>         0.0970
     41 H11        -4.6705    2.1617   -1.0372 H         1 <0>         0.1209
     42 H12        -6.2834    1.1812   -2.6185 H         1 <0>         0.1240
     43 H13        -5.9894   -1.1357   -3.3988 H         1 <0>         0.1228
     44 H14        -4.0825   -2.4720   -2.5979 H         1 <0>         0.1230
     45 H15        -2.4697   -1.4914   -1.0166 H         1 <0>         0.1202
     46 H16        -6.1397    5.6222    3.9290 H         1 <0>         0.0578
     47 H17        -7.5415    4.6808    3.3165 H         1 <0>         0.0542
     48 H18        -8.5942    4.7817    5.5704 H         1 <0>         0.0707
     49 H19        -7.1924    5.7232    6.1829 H         1 <0>         0.0862
     50 H20        -7.6653    7.5115    4.5167 H         1 <0>         0.0877
     51 H21        -9.0671    6.5701    3.9041 H         1 <0>         0.0701
     52 H22       -11.4743    6.7723    7.1673 H         1 <0>         0.4442
     53 H23        -2.1750   -1.4477    4.6135 H         1 <0>         0.0959
     54 H24        -3.2923   -0.3817    5.5310 H         1 <0>         0.1001
     55 H25        -5.1291   -3.7202    5.4147 H         1 <0>         0.4173
     56 H26        -3.6448   -2.9509    6.3285 H         1 <0>         0.4168
@<TRIPOS>BOND
     1    1    2 1
     2    1   31 1
     3    1   32 1
     4    1   33 1
     5    2    3 1
     6    2   34 1
     7    2   35 1
     8    3   11 1
     9    3    4 2
    10    4    5 1
    11    4   27 1
    12    5   10 ar
    13    5    6 ar
    14    6    7 ar
    15    6   36 1
    16    7    8 ar
    17    7   19 1
    18    8    9 ar
    19    8   37 1
    20    9   10 ar
    21    9   38 1
    22   10   11 1
    23   11   12 1
    24   12   13 1
    25   12   39 1
    26   12   40 1
    27   13   18 ar
    28   13   14 ar
    29   14   15 ar
    30   14   41 1
    31   15   16 ar
    32   15   42 1
    33   16   17 ar
    34   16   43 1
    35   17   18 ar
    36   17   44 1
    37   18   45 1
    38   19   20 1
    39   20   21 1
    40   20   46 1
    41   20   47 1
    42   21   22 1
    43   21   48 1
    44   21   49 1
    45   22   23 1
    46   22   50 1
    47   22   51 1
    48   23   24 2
    49   23   25 1
    50   23   26 1
    51   26   52 1
    52   27   28 1
    53   27   53 1
    54   27   54 1
    55   28   29 2
    56   28   30 am
    57   30   55 1
    58   30   56 1
@<TRIPOS>MOLECULE
ZINC01543773
   47    49     0     0     0
SMALL
USER_CHARGES
2-[1-benzyl-3-(carbamoylformyl)-2-ethyl-indol-4-yl]oxyacetic acid
@<TRIPOS>ATOM
      1 C1         -4.4492   -2.2536    1.3450 C.3       1 <0>        -0.1506
      2 C2         -3.9258   -2.4371   -0.0809 C.3       1 <0>        -0.0696
      3 C3         -2.5234   -2.9869   -0.0344 C.2       1 <0>         0.1221
      4 C4         -1.3698   -2.2264    0.0056 C.2       1 <0>        -0.2101
      5 C5         -0.2479   -3.1845    0.0362 C.ar      1 <0>        -0.0958
      6 C6         -0.8319   -4.4598    0.0208 C.ar      1 <0>         0.1345
      7 N1         -2.2020   -4.2935   -0.0253 N.pl3     1 <0>        -0.4551
      8 C7         -3.1730   -5.3899   -0.0590 C.3       1 <0>         0.1483
      9 C8         -3.4586   -5.7641   -1.4906 C.ar      1 <0>        -0.1140
     10 C9         -4.4887   -5.1458   -2.1744 C.ar      1 <0>        -0.1021
     11 C10        -4.7475   -5.4856   -3.4891 C.ar      1 <0>        -0.1201
     12 C11        -3.9830   -6.4512   -4.1168 C.ar      1 <0>        -0.1116
     13 C12        -2.9562   -7.0733   -3.4314 C.ar      1 <0>        -0.1196
     14 C13        -2.6940   -6.7297   -2.1183 C.ar      1 <0>        -0.0948
     15 C14        -0.0135   -5.5849    0.0462 C.ar      1 <0>        -0.1791
     16 C15         1.3571   -5.4412    0.0915 C.ar      1 <0>        -0.0518
     17 C16         1.9359   -4.1823    0.1132 C.ar      1 <0>        -0.2465
     18 C17         1.1403   -3.0499    0.0890 C.ar      1 <0>         0.1869
     19 O1          1.7072   -1.8154    0.1102 O.3       1 <0>        -0.2835
     20 C18         3.1343   -1.7575    0.1577 C.3       1 <0>         0.0177
     21 C19         3.5784   -0.3176    0.1753 C.2       1 <0>         0.4699
     22 O2          2.7571    0.5683    0.1498 O.co2     1 <0>        -0.6115
     23 C20        -1.2792   -0.7673    0.0102 C.2       1 <0>         0.4404
     24 O3         -1.1918   -0.1670    1.0636 O.2       1 <0>        -0.4029
     25 C21        -1.2941   -0.0152   -1.2777 C.2       1 <0>         0.4942
     26 O4         -1.2847   -0.6167   -2.3320 O.2       1 <0>        -0.5080
     27 N2         -1.3180    1.3324   -1.2708 N.am      1 <0>        -0.8268
     28 H1         -4.4530   -3.2156    1.8573 H         1 <0>         0.0564
     29 H2         -3.8041   -1.5584    1.8822 H         1 <0>         0.0661
     30 H3         -5.4635   -1.8559    1.3113 H         1 <0>         0.0651
     31 H4         -3.9220   -1.4750   -0.5933 H         1 <0>         0.0864
     32 H5         -4.5709   -3.1323   -0.6182 H         1 <0>         0.0807
     33 H6         -2.7653   -6.2528    0.4676 H         1 <0>         0.0997
     34 H7         -4.0968   -5.0723    0.4246 H         1 <0>         0.0989
     35 H8         -5.0889   -4.3946   -1.6826 H         1 <0>         0.1229
     36 H9         -5.5499   -4.9999   -4.0244 H         1 <0>         0.1236
     37 H10        -4.1880   -6.7198   -5.1425 H         1 <0>         0.1224
     38 H11        -2.3591   -7.8279   -3.9217 H         1 <0>         0.1239
     39 H12        -1.8921   -7.2160   -1.5827 H         1 <0>         0.1235
     40 H13        -0.4522   -6.5716    0.0301 H         1 <0>         0.1160
     41 H14         1.9861   -6.3189    0.1107 H         1 <0>         0.1259
     42 H15         3.0108   -4.0845    0.1494 H         1 <0>         0.1320
     43 H16         3.4884   -2.2580    1.0590 H         1 <0>         0.0681
     44 H17         3.5475   -2.2545   -0.7200 H         1 <0>         0.0678
     45 H18        -1.3277    1.8215   -2.1084 H         1 <0>         0.4055
     46 H19        -1.3296    1.8130   -0.4283 H         1 <0>         0.4105
     47 O5          4.8863   -0.0191    0.2194 O.co2     1 <0>        -0.7561
@<TRIPOS>BOND
     1    1    2 1
     2    1   28 1
     3    1   29 1
     4    1   30 1
     5    2    3 1
     6    2   31 1
     7    2   32 1
     8    3    7 1
     9    3    4 2
    10    4    5 1
    11    4   23 1
    12    5   18 ar
    13    5    6 ar
    14    6    7 1
    15    6   15 ar
    16    7    8 1
    17    8    9 1
    18    8   33 1
    19    8   34 1
    20    9   14 ar
    21    9   10 ar
    22   10   11 ar
    23   10   35 1
    24   11   12 ar
    25   11   36 1
    26   12   13 ar
    27   12   37 1
    28   13   14 ar
    29   13   38 1
    30   14   39 1
    31   15   16 ar
    32   15   40 1
    33   16   17 ar
    34   16   41 1
    35   17   18 ar
    36   17   42 1
    37   18   19 1
    38   19   20 1
    39   20   21 1
    40   20   43 1
    41   20   44 1
    42   21   22 2
    43   21   47 1
    44   23   24 2
    45   23   25 1
    46   25   26 2
    47   25   27 am
    48   27   45 1
    49   27   46 1
