@<TRIPOS>MOLECULE
ZINC04095645
   52    52     0     0     0
SMALL
USER_CHARGES

@<TRIPOS>ATOM
      1 C1         -0.7138   -2.5640   -0.4210 C.3       1 <0>        -0.1550
      2 C2         -1.5731   -1.7628    0.5591 C.3       1 <0>        -0.1020
      3 C3         -1.0752   -2.0006    1.9862 C.3       1 <0>        -0.1465
      4 C4         -1.4727   -0.2730    0.2255 C.3       1 <0>        -0.1272
      5 C5         -2.1217   -0.0102   -1.1349 C.3       1 <0>         0.1280
      6 H1         -1.6692   -0.6591   -1.8847 H         1 <0>         0.1152
      7 C6         -3.5991   -0.2948   -1.0500 C.2       1 <0>         0.5162
      8 O1         -4.3871    0.6198   -0.9329 O.2       1 <0>        -0.5177
      9 N1         -4.0448   -1.5655   -1.1042 N.am      1 <0>        -0.7340
     10 C7         -5.4844   -1.8364   -1.1291 C.3       1 <0>         0.1167
     11 C8         -5.7180   -3.3472   -1.1906 C.3       1 <0>        -0.1305
     12 C9         -7.2214   -3.6302   -1.2165 C.3       1 <0>        -0.1313
     13 C10        -7.4550   -5.1410   -1.2780 C.3       1 <0>         0.0931
     14 N2         -8.8945   -5.4119   -1.3029 N.pl3     1 <0>        -0.6928
     15 C11        -9.3469   -6.7016   -1.3579 C.cat     1 <0>         0.7409
     16 N3        -10.6557   -6.9479   -1.3805 N.pl3     1 <0>        -0.7959
     17 N4         -8.4786   -7.7112   -1.3889 N.pl3     1 <0>        -0.7940
     18 N5         -1.9150    1.3902   -1.5121 N.am      1 <0>        -0.7100
     19 C12        -0.8081    1.7485   -2.1925 C.2       1 <0>         0.5464
     20 O2         -0.0284    0.9005   -2.5718 O.2       1 <0>        -0.5314
     21 C13        -0.5393    3.2028   -2.4820 C.3       1 <0>        -0.0416
     22 H2         -1.0786    3.6237   -3.3306 H         1 <0>         0.1494
     23 C14        -0.2465    4.1236   -1.2957 C.3       1 <0>        -0.0276
     24 H3         -0.2465    3.6830   -0.2987 H         1 <0>         0.1137
     25 O3          0.7708    3.7047   -2.2104 O.3       1 <0>        -0.3182
     26 C15        -0.7234    5.5507   -1.3799 C.2       1 <0>         0.5091
     27 O4         -1.9177    5.7932   -1.4162 O.co2     1 <0>        -0.6728
     28 O5          0.0851    6.4627   -1.4118 O.co2     1 <0>        -0.6670
     29 H4         -0.7071   -3.6130   -0.1249 H         1 <0>         0.0565
     30 H5         -1.1272   -2.4726   -1.4254 H         1 <0>         0.0534
     31 H6          0.3052   -2.1772   -0.4109 H         1 <0>         0.0656
     32 H7         -2.6116   -2.0841    0.4784 H         1 <0>         0.0707
     33 H8         -0.0367   -1.6793    2.0669 H         1 <0>         0.0600
     34 H9         -1.6874   -1.4298    2.6844 H         1 <0>         0.0559
     35 H10        -1.1467   -3.0619    2.2239 H         1 <0>         0.0551
     36 H11        -1.9877    0.3064    0.9918 H         1 <0>         0.0766
     37 H12        -0.4239    0.0216    0.1907 H         1 <0>         0.0871
     38 H13        -3.4125   -2.3007   -1.1268 H         1 <0>         0.4033
     39 H14        -5.9455   -1.4339   -0.2271 H         1 <0>         0.0730
     40 H15        -5.9279   -1.3642   -2.0057 H         1 <0>         0.0716
     41 H16        -5.2569   -3.7498   -2.0925 H         1 <0>         0.0792
     42 H17        -5.2745   -3.8195   -0.3140 H         1 <0>         0.0792
     43 H18        -7.6825   -3.2276   -0.3146 H         1 <0>         0.0868
     44 H19        -7.6649   -3.1580   -2.0931 H         1 <0>         0.0868
     45 H20        -6.9939   -5.5435   -2.1800 H         1 <0>         0.0938
     46 H21        -7.0115   -5.6132   -0.4014 H         1 <0>         0.0938
     47 H22        -9.5269   -4.6767   -1.2803 H         1 <0>         0.4368
     48 H23       -11.2880   -6.2127   -1.3580 H         1 <0>         0.4411
     49 H24        -7.5255   -7.5318   -1.3724 H         1 <0>         0.4401
     50 H25        -8.7994   -8.6258   -1.4279 H         1 <0>         0.4400
     51 H26        -2.5747    2.0596   -1.2722 H         1 <0>         0.4200
     52 H27       -10.9765   -7.8625   -1.4195 H         1 <0>         0.4403
@<TRIPOS>BOND
     1    1    2 1
     2    1   29 1
     3    1   30 1
     4    1   31 1
     5    2    3 1
     6    2    4 1
     7    2   32 1
     8    3   33 1
     9    3   34 1
    10    3   35 1
    11    4    5 1
    12    4   36 1
    13    4   37 1
    14    5    6 1
    15    5    7 1
    16    5   18 1
    17    7    8 2
    18    7    9 am
    19    9   10 1
    20    9   38 1
    21   10   11 1
    22   10   39 1
    23   10   40 1
    24   11   12 1
    25   11   41 1
    26   11   42 1
    27   12   13 1
    28   12   43 1
    29   12   44 1
    30   13   14 1
    31   13   45 1
    32   13   46 1
    33   14   15 1
    34   14   47 1
    35   15   16 2
    36   15   17 1
    37   16   48 1
    38   16   52 1
    39   17   49 1
    40   17   50 1
    41   18   19 am
    42   18   51 1
    43   19   20 2
    44   19   21 1
    45   21   22 1
    46   21   25 1
    47   21   23 1
    48   23   24 1
    49   23   25 1
    50   23   26 1
    51   26   27 2
    52   26   28 1
@<TRIPOS>MOLECULE
ZINC04475165
   52    52     0     0     0
SMALL
USER_CHARGES

@<TRIPOS>ATOM
      1 C1         -0.7600   -2.5948   -0.4137 C.3       1 <0>        -0.1547
      2 C2         -1.6080   -1.7789    0.5642 C.3       1 <0>        -0.1033
      3 C3         -1.1153   -2.0220    1.9922 C.3       1 <0>        -0.1443
      4 C4         -1.4843   -0.2914    0.2283 C.3       1 <0>        -0.1230
      5 C5         -2.1282   -0.0207   -1.1330 C.3       1 <0>         0.1313
      6 H1         -1.6851   -0.6777   -1.8815 H         1 <0>         0.1086
      7 C6         -3.6099   -0.2824   -1.0488 C.2       1 <0>         0.5152
      8 O1         -4.3837    0.6443   -0.9325 O.2       1 <0>        -0.4988
      9 N1         -4.0752   -1.5461   -1.1028 N.am      1 <0>        -0.7389
     10 C7         -5.5187   -1.7948   -1.1283 C.3       1 <0>         0.1185
     11 C8         -5.7756   -3.3018   -1.1894 C.3       1 <0>        -0.1294
     12 C9         -7.2832   -3.5615   -1.2160 C.3       1 <0>        -0.1314
     13 C10        -7.5401   -5.0685   -1.2771 C.3       1 <0>         0.0930
     14 N2         -8.9836   -5.3171   -1.3026 N.pl3     1 <0>        -0.6914
     15 C11        -9.4558   -6.5998   -1.3574 C.cat     1 <0>         0.7403
     16 N3        -10.7683   -6.8258   -1.3806 N.pl3     1 <0>        -0.7969
     17 N4         -8.6032   -7.6226   -1.3874 N.pl3     1 <0>        -0.7943
     18 N5         -1.8996    1.3758   -1.5123 N.am      1 <0>        -0.6857
     19 C12        -0.7853    1.7164   -2.1895 C.2       1 <0>         0.5493
     20 O2         -0.0162    0.8565   -2.5634 O.2       1 <0>        -0.5428
     21 C13        -0.4950    3.1660   -2.4823 C.3       1 <0>        -0.0439
     22 H2         -0.0537    3.7346   -1.6637 H         1 <0>         0.1435
     23 C14        -1.4374    3.9033   -3.4358 C.3       1 <0>        -0.0395
     24 H3         -1.6209    4.9617   -3.2508 H         1 <0>         0.1207
     25 O3         -0.1143    3.5128   -3.8152 O.3       1 <0>        -0.3217
     26 C15        -2.5934    3.1310   -4.0173 C.2       1 <0>         0.5042
     27 O4         -3.4773    2.7151   -3.2876 O.co2     1 <0>        -0.6593
     28 O5         -2.6449    2.9221   -5.2173 O.co2     1 <0>        -0.6715
     29 H4         -0.7698   -3.6433   -0.1159 H         1 <0>         0.0548
     30 H5         -1.1709   -2.4987   -1.4187 H         1 <0>         0.0557
     31 H6          0.2648   -2.2237   -0.4031 H         1 <0>         0.0638
     32 H7         -2.6512   -2.0843    0.4828 H         1 <0>         0.0725
     33 H8         -0.0721   -1.7166    2.0735 H         1 <0>         0.0579
     34 H9         -1.7194   -1.4407    2.6888 H         1 <0>         0.0543
     35 H10        -1.2034   -3.0817    2.2315 H         1 <0>         0.0537
     36 H11        -1.9908    0.2972    0.9932 H         1 <0>         0.0726
     37 H12        -0.4310   -0.0130    0.1938 H         1 <0>         0.0828
     38 H13        -3.4542   -2.2910   -1.1247 H         1 <0>         0.3993
     39 H14        -5.9740   -1.3848   -0.2268 H         1 <0>         0.0696
     40 H15        -5.9543   -1.3161   -2.0054 H         1 <0>         0.0719
     41 H16        -5.3203   -3.7118   -2.0909 H         1 <0>         0.0788
     42 H17        -5.3399   -3.7805   -0.3123 H         1 <0>         0.0771
     43 H18        -7.7385   -3.1515   -0.3146 H         1 <0>         0.0858
     44 H19        -7.7188   -3.0828   -2.0931 H         1 <0>         0.0875
     45 H20        -7.0848   -5.4785   -2.1786 H         1 <0>         0.0942
     46 H21        -7.1044   -5.5472   -0.4000 H         1 <0>         0.0933
     47 H22        -9.6045   -4.5722   -1.2807 H         1 <0>         0.4369
     48 H23       -11.3892   -6.0809   -1.3587 H         1 <0>         0.4409
     49 H24        -7.6475   -7.4580   -1.3705 H         1 <0>         0.4403
     50 H25        -8.9381   -8.5322   -1.4263 H         1 <0>         0.4394
     51 H26        -2.5503    2.0552   -1.2760 H         1 <0>         0.4236
     52 H27       -11.1031   -7.7354   -1.4194 H         1 <0>         0.4397
@<TRIPOS>BOND
     1    1    2 1
     2    1   29 1
     3    1   30 1
     4    1   31 1
     5    2    3 1
     6    2    4 1
     7    2   32 1
     8    3   33 1
     9    3   34 1
    10    3   35 1
    11    4    5 1
    12    4   36 1
    13    4   37 1
    14    5    6 1
    15    5    7 1
    16    5   18 1
    17    7    8 2
    18    7    9 am
    19    9   10 1
    20    9   38 1
    21   10   11 1
    22   10   39 1
    23   10   40 1
    24   11   12 1
    25   11   41 1
    26   11   42 1
    27   12   13 1
    28   12   43 1
    29   12   44 1
    30   13   14 1
    31   13   45 1
    32   13   46 1
    33   14   15 1
    34   14   47 1
    35   15   16 2
    36   15   17 1
    37   16   48 1
    38   16   52 1
    39   17   49 1
    40   17   50 1
    41   18   19 am
    42   18   51 1
    43   19   20 2
    44   19   21 1
    45   21   22 1
    46   21   25 1
    47   21   23 1
    48   23   24 1
    49   23   25 1
    50   23   26 1
    51   26   27 2
    52   26   28 1
@<TRIPOS>MOLECULE
ZINC13676539
   39    38     0     0     0
SMALL
USER_CHARGES
tert-butyl N-[(1S)-1-(cyanomethylcarbamoyl)-2-methyl-propyl]carbamate
@<TRIPOS>ATOM
      1 C1         -1.3219    0.3101    2.1067 C.3       1 <0>        -0.1400
      2 C2         -2.3724    1.2708    1.5461 C.3       1 <0>        -0.1022
      3 C3         -1.9960    2.7080    1.9119 C.3       1 <0>        -0.1512
      4 C4         -2.4310    1.1307    0.0237 C.3       1 <0>         0.1533
      5 H1         -2.6170    0.0892   -0.2384 H         1 <0>         0.1176
      6 C5         -3.5435    1.9913   -0.5175 C.2       1 <0>         0.5229
      7 O1         -3.2912    3.0727   -1.0052 O.2       1 <0>        -0.5185
      8 N1         -4.8188    1.5592   -0.4596 N.am      1 <0>        -0.7257
      9 C6         -5.9103    2.4390   -0.8849 C.3       1 <0>         0.2204
     10 C7         -7.1953    1.7387   -0.7258 C.1       1 <0>         0.1878
     11 N2         -8.1869    1.1983   -0.6030 N.1       1 <0>        -0.3952
     12 N3         -1.1557    1.5598   -0.5556 N.am      1 <0>        -0.6954
     13 C8         -0.1295    0.6907   -0.6445 C.2       1 <0>         0.6564
     14 O2         -0.2621   -0.4489   -0.2441 O.2       1 <0>        -0.5607
     15 O3          1.0408    1.0834   -1.1820 O.3       1 <0>        -0.3614
     16 C9          2.1000    0.0927   -1.2511 C.3       1 <0>         0.1376
     17 C10         1.6351   -1.0926   -2.0996 C.3       1 <0>        -0.1842
     18 C11         3.3431    0.7185   -1.8867 C.3       1 <0>        -0.1428
     19 C12         2.4379   -0.3919    0.1603 C.3       1 <0>        -0.1844
     20 H2         -0.3470    0.5497    1.6820 H         1 <0>         0.0595
     21 H3         -1.2801    0.4099    3.1913 H         1 <0>         0.0541
     22 H4         -1.5900   -0.7138    1.8461 H         1 <0>         0.0651
     23 H5         -3.3473    1.0312    1.9708 H         1 <0>         0.0865
     24 H6         -1.8744    2.7880    2.9922 H         1 <0>         0.0616
     25 H7         -1.0606    2.9750    1.4202 H         1 <0>         0.0606
     26 H8         -2.7850    3.3849    1.5840 H         1 <0>         0.0573
     27 H9         -5.0140    0.6658   -0.1362 H         1 <0>         0.4112
     28 H10        -5.9097    3.3408   -0.2727 H         1 <0>         0.1187
     29 H11        -5.7715    2.7102   -1.9315 H         1 <0>         0.1193
     30 H12        -1.0499    2.4695   -0.8753 H         1 <0>         0.4166
     31 H13         1.3944   -0.7473   -3.1051 H         1 <0>         0.0596
     32 H14         2.4302   -1.8363   -2.1515 H         1 <0>         0.0715
     33 H15         0.7495   -1.5384   -1.6468 H         1 <0>         0.0878
     34 H16         3.6742    1.5629   -1.2821 H         1 <0>         0.0674
     35 H17         4.1382   -0.0252   -1.9385 H         1 <0>         0.0819
     36 H18         3.1023    1.0638   -2.8921 H         1 <0>         0.0673
     37 H19         1.5523   -0.8378    0.6131 H         1 <0>         0.0886
     38 H20         3.2330   -1.1357    0.1084 H         1 <0>         0.0714
     39 H21         2.7691    0.4525    0.7648 H         1 <0>         0.0598
@<TRIPOS>BOND
     1    1    2 1
     2    1   20 1
     3    1   21 1
     4    1   22 1
     5    2    3 1
     6    2    4 1
     7    2   23 1
     8    3   24 1
     9    3   25 1
    10    3   26 1
    11    4    5 1
    12    4    6 1
    13    4   12 1
    14    6    7 2
    15    6    8 am
    16    8    9 1
    17    8   27 1
    18    9   10 1
    19    9   28 1
    20    9   29 1
    21   10   11 3
    22   12   13 am
    23   12   30 1
    24   13   14 2
    25   13   15 1
    26   15   16 1
    27   16   17 1
    28   16   18 1
    29   16   19 1
    30   17   31 1
    31   17   32 1
    32   17   33 1
    33   18   34 1
    34   18   35 1
    35   18   36 1
    36   19   37 1
    37   19   38 1
    38   19   39 1
@<TRIPOS>MOLECULE
ZINC13676543
   42    41     0     0     0
SMALL
USER_CHARGES
tert-butyl N-[(1S)-1-(cyanomethylcarbamoyl)-3-methyl-butyl]carbamate
@<TRIPOS>ATOM
      1 C1         -1.4673    4.0247    2.5303 C.3       1 <0>        -0.1489
      2 C2         -0.6466    3.5220    1.3409 C.3       1 <0>        -0.0923
      3 C3          0.8144    3.9410    1.5159 C.3       1 <0>        -0.1416
      4 C4         -0.7345    1.9962    1.2691 C.3       1 <0>        -0.1266
      5 C5         -0.0184    1.5028    0.0103 C.3       1 <0>         0.1473
      6 H1          1.0042    1.8801    0.0026 H         1 <0>         0.1260
      7 C6          0.0021   -0.0041    0.0020 C.2       1 <0>         0.5205
      8 O1         -0.5235   -0.6127   -0.9059 O.2       1 <0>        -0.5201
      9 N1          0.6044   -0.6754    1.0035 N.am      1 <0>        -0.7251
     10 C7          0.6242   -2.1402    0.9955 C.3       1 <0>         0.2202
     11 C8          1.3362   -2.6278    2.1880 C.1       1 <0>         0.1878
     12 N2          1.8856   -3.0041    3.1084 N.1       1 <0>        -0.3951
     13 N3         -0.7269    1.9881   -1.1766 N.am      1 <0>        -0.6963
     14 C9         -0.4624    3.2164   -1.6640 C.2       1 <0>         0.6551
     15 O2          0.3638    3.9214   -1.1191 O.2       1 <0>        -0.5556
     16 O3         -1.1136    3.6624   -2.7548 O.3       1 <0>        -0.3616
     17 C10        -0.7779    4.9949   -3.2240 C.3       1 <0>         0.1385
     18 C11         0.7087    5.0503   -3.5814 C.3       1 <0>        -0.1839
     19 C12        -1.6130    5.3248   -4.4629 C.3       1 <0>        -0.1430
     20 C13        -1.0759    6.0137   -2.1221 C.3       1 <0>        -0.1842
     21 H2         -1.0737    3.5943    3.4512 H         1 <0>         0.0532
     22 H3         -1.4047    5.1117    2.5815 H         1 <0>         0.0555
     23 H4         -2.5082    3.7262    2.4056 H         1 <0>         0.0511
     24 H5         -1.0402    3.9523    0.4201 H         1 <0>         0.0790
     25 H6          1.3991    3.5829    0.6686 H         1 <0>         0.0729
     26 H7          0.8771    5.0280    1.5671 H         1 <0>         0.0513
     27 H8          1.2080    3.5106    2.4368 H         1 <0>         0.0422
     28 H9         -1.7811    1.6938    1.2338 H         1 <0>         0.0756
     29 H10        -0.2607    1.5631    2.1500 H         1 <0>         0.0796
     30 H11         1.0247   -0.1886    1.7297 H         1 <0>         0.4109
     31 H12        -0.3983   -2.5175    1.0032 H         1 <0>         0.1194
     32 H13         1.1344   -2.4917    0.0987 H         1 <0>         0.1190
     33 H14        -1.3864    1.4253   -1.6116 H         1 <0>         0.4158
     34 H15         0.9210    4.3245   -4.3664 H         1 <0>         0.0594
     35 H16         0.9607    6.0506   -3.9336 H         1 <0>         0.0708
     36 H17         1.3036    4.8154   -2.6988 H         1 <0>         0.0885
     37 H18        -2.6721    5.2853   -4.2082 H         1 <0>         0.0670
     38 H19        -1.3610    6.3250   -4.8151 H         1 <0>         0.0816
     39 H20        -1.4007    4.5989   -5.2479 H         1 <0>         0.0672
     40 H21        -0.4810    5.7788   -1.2395 H         1 <0>         0.0895
     41 H22        -0.8239    7.0140   -2.4743 H         1 <0>         0.0707
     42 H23        -2.1350    5.9743   -1.8675 H         1 <0>         0.0591
@<TRIPOS>BOND
     1    1    2 1
     2    1   21 1
     3    1   22 1
     4    1   23 1
     5    2    3 1
     6    2    4 1
     7    2   24 1
     8    3   25 1
     9    3   26 1
    10    3   27 1
    11    4    5 1
    12    4   28 1
    13    4   29 1
    14    5    6 1
    15    5    7 1
    16    5   13 1
    17    7    8 2
    18    7    9 am
    19    9   10 1
    20    9   30 1
    21   10   11 1
    22   10   31 1
    23   10   32 1
    24   11   12 3
    25   13   14 am
    26   13   33 1
    27   14   15 2
    28   14   16 1
    29   16   17 1
    30   17   18 1
    31   17   19 1
    32   17   20 1
    33   18   34 1
    34   18   35 1
    35   18   36 1
    36   19   37 1
    37   19   38 1
    38   19   39 1
    39   20   40 1
    40   20   41 1
    41   20   42 1
@<TRIPOS>MOLECULE
ZINC13676558
   43    43     0     0     0
SMALL
USER_CHARGES

@<TRIPOS>ATOM
      1 C1         -0.0187    1.5258    0.0104 C.3       1 <0>        -0.1854
      2 C2          0.0021   -0.0041    0.0020 C.3       1 <0>         0.1357
      3 C3          0.7421   -0.5109    1.2415 C.3       1 <0>        -0.1857
      4 C4         -1.4333   -0.5336    0.0129 C.3       1 <0>        -0.1409
      5 O1          0.6709   -0.4649   -1.1737 O.3       1 <0>        -0.3549
      6 C5          1.9522   -0.0848   -1.3367 C.2       1 <0>         0.6620
      7 O2          2.4879    0.6189   -0.5034 O.2       1 <0>        -0.5628
      8 N1          2.6407   -0.4850   -2.4240 N.am      1 <0>        -0.6874
      9 C6          4.0349   -0.0714   -2.6014 C.3       1 <0>         0.1572
     10 H1          4.5261   -0.0235   -1.6295 H         1 <0>         0.1252
     11 C7          4.7587   -1.0856   -3.4893 C.3       1 <0>        -0.0850
     12 C8          4.8240   -2.4152   -2.7829 C.ar      1 <0>        -0.0900
     13 C9          5.8959   -2.7093   -1.9610 C.ar      1 <0>        -0.1126
     14 C10         5.9558   -3.9289   -1.3130 C.ar      1 <0>        -0.1166
     15 C11         4.9437   -4.8542   -1.4866 C.ar      1 <0>        -0.1174
     16 C12         3.8714   -4.5598   -2.3078 C.ar      1 <0>        -0.1160
     17 C13         3.8093   -3.3385   -2.9524 C.ar      1 <0>        -0.1088
     18 C14         4.0770    1.2868   -3.2529 C.2       1 <0>         0.5088
     19 O3          3.0441    1.8536   -3.5408 O.2       1 <0>        -0.5120
     20 N2          5.2624    1.8717   -3.5157 N.am      1 <0>        -0.7293
     21 C15         5.3033    3.1921   -4.1491 C.3       1 <0>         0.2198
     22 C16         6.7042    3.6077   -4.3272 C.1       1 <0>         0.1894
     23 N3          7.7853    3.9283   -4.4647 N.1       1 <0>        -0.3980
     24 H2          1.0039    1.9031    0.0027 H         1 <0>         0.0873
     25 H3         -0.5459    1.8868   -0.8726 H         1 <0>         0.0603
     26 H4         -0.5289    1.8773    0.9072 H         1 <0>         0.0695
     27 H5          0.2319   -0.1594    2.1383 H         1 <0>         0.0702
     28 H6          0.7568   -1.6008    1.2356 H         1 <0>         0.0590
     29 H7          1.7647   -0.1336    1.2338 H         1 <0>         0.0871
     30 H8         -1.9605   -0.1726   -0.8702 H         1 <0>         0.0672
     31 H9         -1.4185   -1.6235    0.0069 H         1 <0>         0.0664
     32 H10        -1.9435   -0.1821    0.9097 H         1 <0>         0.0809
     33 H11         2.2131   -1.0467   -3.0892 H         1 <0>         0.4102
     34 H12         4.2163   -1.1991   -4.4279 H         1 <0>         0.0919
     35 H13         5.7696   -0.7330   -3.6941 H         1 <0>         0.0993
     36 H14         6.6867   -1.9863   -1.8253 H         1 <0>         0.1234
     37 H15         6.7936   -4.1589   -0.6714 H         1 <0>         0.1234
     38 H16         4.9908   -5.8074   -0.9809 H         1 <0>         0.1223
     39 H17         3.0808   -5.2829   -2.4437 H         1 <0>         0.1234
     40 H18         2.9697   -3.1070   -3.5911 H         1 <0>         0.1207
     41 H19         6.0885    1.4185   -3.2854 H         1 <0>         0.4077
     42 H20         4.8121    3.1443   -5.1209 H         1 <0>         0.1176
     43 H21         4.7877    3.9147   -3.5165 H         1 <0>         0.1168
@<TRIPOS>BOND
     1    1    2 1
     2    1   24 1
     3    1   25 1
     4    1   26 1
     5    2    3 1
     6    2    4 1
     7    2    5 1
     8    3   27 1
     9    3   28 1
    10    3   29 1
    11    4   30 1
    12    4   31 1
    13    4   32 1
    14    5    6 1
    15    6    7 2
    16    6    8 am
    17    8    9 1
    18    8   33 1
    19    9   10 1
    20    9   11 1
    21    9   18 1
    22   11   12 1
    23   11   34 1
    24   11   35 1
    25   12   17 ar
    26   12   13 ar
    27   13   14 ar
    28   13   36 1
    29   14   15 ar
    30   14   37 1
    31   15   16 ar
    32   15   38 1
    33   16   17 ar
    34   16   39 1
    35   17   40 1
    36   18   19 2
    37   18   20 am
    38   20   21 1
    39   20   41 1
    40   21   22 1
    41   21   42 1
    42   21   43 1
    43   22   23 3
@<TRIPOS>MOLECULE
ZINC02382901
   25    25     0     0     0
SMALL
USER_CHARGES
diethyl (2R,3R)-oxirane-2,3-dicarboxylate
@<TRIPOS>ATOM
      1 C1          3.5677    2.0652   -0.0209 C.3       1 <0>        -0.1540
      2 C2          2.3672    1.1168   -0.0145 C.3       1 <0>         0.0610
      3 O1          1.1389    1.8910    0.0013 O.3       1 <0>        -0.3439
      4 C3         -0.0143    1.2041    0.0087 C.2       1 <0>         0.4788
      5 O2          0.0021   -0.0041    0.0020 O.2       1 <0>        -0.4769
      6 C4         -1.3295    1.9397    0.0189 C.3       1 <0>         0.0222
      7 H1         -1.6592    2.3056    0.9913 H         1 <0>         0.1780
      8 C5         -1.6926    2.7682   -1.2151 C.3       1 <0>         0.0221
      9 H2         -0.9824    2.7862   -2.0417 H         1 <0>         0.1784
     10 O3         -2.3318    1.5248   -0.9113 O.3       1 <0>        -0.2783
     11 C6         -2.4828    4.0338   -1.0035 C.2       1 <0>         0.4792
     12 O4         -3.6036    4.1272   -1.4452 O.2       1 <0>        -0.4767
     13 O5         -1.9416    5.0574   -0.3243 O.3       1 <0>        -0.3440
     14 C7         -2.7604    6.2451   -0.1590 C.3       1 <0>         0.0610
     15 C8         -1.9808    7.2955    0.6345 C.3       1 <0>        -0.1540
     16 H3          3.5429    2.6889    0.8727 H         1 <0>         0.0697
     17 H4          4.4898    1.4841   -0.0328 H         1 <0>         0.0839
     18 H5          3.5259    2.6984   -0.9071 H         1 <0>         0.0693
     19 H6          2.4091    0.4836    0.8717 H         1 <0>         0.0755
     20 H7          2.3921    0.4932   -0.9082 H         1 <0>         0.0749
     21 H8         -3.0187    6.6475   -1.1385 H         1 <0>         0.0756
     22 H9         -3.6721    5.9858    0.3793 H         1 <0>         0.0749
     23 H10        -1.7225    6.8931    1.6140 H         1 <0>         0.0693
     24 H11        -1.0691    7.5547    0.0962 H         1 <0>         0.0698
     25 H12        -2.5954    8.1871    0.7586 H         1 <0>         0.0840
@<TRIPOS>BOND
     1    1    2 1
     2    1   16 1
     3    1   17 1
     4    1   18 1
     5    2    3 1
     6    2   19 1
     7    2   20 1
     8    3    4 1
     9    4    5 2
    10    4    6 1
    11    6    7 1
    12    6   10 1
    13    6    8 1
    14    8    9 1
    15    8   10 1
    16    8   11 1
    17   11   12 2
    18   11   13 1
    19   13   14 1
    20   14   15 1
    21   14   21 1
    22   14   22 1
    23   15   23 1
    24   15   24 1
    25   15   25 1
@<TRIPOS>MOLECULE
ZINC02569611
   25    25     0     0     0
SMALL
USER_CHARGES
diethyl (2S,3S)-oxirane-2,3-dicarboxylate
@<TRIPOS>ATOM
      1 C1         -4.7083    2.4820   -0.0394 C.3       1 <0>        -0.1540
      2 C2         -3.4293    2.4586   -0.8787 C.3       1 <0>         0.0611
      3 O1         -2.3638    1.8285   -0.1198 O.3       1 <0>        -0.3438
      4 C3         -1.1665    1.7281   -0.7181 C.2       1 <0>         0.4790
      5 O2         -1.0137    2.1528   -1.8389 O.2       1 <0>        -0.4769
      6 C4         -0.0127    1.0858    0.0080 C.3       1 <0>         0.0218
      7 H1          0.0021   -0.0041    0.0020 H         1 <0>         0.1781
      8 C5          0.5396    1.7995    1.2435 C.3       1 <0>         0.0224
      9 H2          0.0716    2.7384    1.5394 H         1 <0>         0.1782
     10 O3          1.2425    1.7688   -0.0003 O.3       1 <0>        -0.2780
     11 C6          1.0670    0.9478    2.3693 C.2       1 <0>         0.4791
     12 O4          2.2401    0.9850    2.6566 O.2       1 <0>        -0.4768
     13 O5          0.2337    0.1478    3.0529 O.3       1 <0>        -0.3439
     14 C7          0.8110   -0.6442    4.1243 C.3       1 <0>         0.0610
     15 C8         -0.2836   -1.4863    4.7828 C.3       1 <0>        -0.1540
     16 H3         -5.5082    2.9551   -0.6092 H         1 <0>         0.0840
     17 H4         -4.9963    1.4614    0.2125 H         1 <0>         0.0697
     18 H5         -4.5317    3.0462    0.8763 H         1 <0>         0.0693
     19 H6         -3.1413    3.4793   -1.1306 H         1 <0>         0.0749
     20 H7         -3.6059    1.8944   -1.7944 H         1 <0>         0.0755
     21 H8          1.5793   -1.3013    3.7169 H         1 <0>         0.0749
     22 H9          1.2559    0.0183    4.8667 H         1 <0>         0.0755
     23 H10         0.1498   -2.0808    5.5870 H         1 <0>         0.0840
     24 H11        -1.0519   -0.8291    5.1902 H         1 <0>         0.0698
     25 H12        -0.7285   -2.1488    4.0403 H         1 <0>         0.0693
@<TRIPOS>BOND
     1    1    2 1
     2    1   16 1
     3    1   17 1
     4    1   18 1
     5    2    3 1
     6    2   19 1
     7    2   20 1
     8    3    4 1
     9    4    5 2
    10    4    6 1
    11    6    7 1
    12    6   10 1
    13    6    8 1
    14    8    9 1
    15    8   10 1
    16    8   11 1
    17   11   12 2
    18   11   13 1
    19   13   14 1
    20   14   15 1
    21   14   21 1
    22   14   22 1
    23   15   23 1
    24   15   24 1
    25   15   25 1
@<TRIPOS>MOLECULE
ZINC14618970
   25    25     0     0     0
SMALL
USER_CHARGES
diethyl (2S,3R)-oxirane-2,3-dicarboxylate
@<TRIPOS>ATOM
      1 C1          2.1496   -0.8291    2.5952 C.3       1 <0>        -0.1539
      2 C2          2.1801    0.6419    3.0146 C.3       1 <0>         0.0619
      3 O1          2.8889    1.4166    2.0116 O.3       1 <0>        -0.3348
      4 C3          3.0904    2.7170    2.2762 C.2       1 <0>         0.4311
      5 O2          2.7698    3.1721    3.3486 O.2       1 <0>        -0.4861
      6 C4          3.7163    3.6095    1.2356 C.3       1 <0>         0.0476
      7 H1          4.7390    3.2879    1.4820 H         1 <0>         0.2054
      8 C5          2.9189    3.8844   -0.0408 C.3       1 <0>         0.0349
      9 H2          3.1114    3.8490   -1.1233 H         1 <0>         0.2019
     10 O3          3.0946    4.8702    0.9786 O.3       1 <0>        -0.2588
     11 C6          1.5609    3.2442   -0.1720 C.2       1 <0>         0.4343
     12 O4          1.4659    2.0437   -0.2702 O.2       1 <0>        -0.4705
     13 O5          0.4569    4.0077   -0.1796 O.3       1 <0>        -0.3489
     14 C7         -0.8210    3.3186   -0.1959 C.3       1 <0>         0.0580
     15 C8         -1.9510    4.3425   -0.3210 C.3       1 <0>        -0.1563
     16 H3          1.6127   -1.4159    3.3550 H         1 <0>         0.0823
     17 H4          3.1791   -1.2051    2.5015 H         1 <0>         0.0689
     18 H5          1.6351   -0.9239    1.6276 H         1 <0>         0.0715
     19 H6          1.1506    1.0179    3.1083 H         1 <0>         0.0688
     20 H7          2.6946    0.7367    3.9822 H         1 <0>         0.0740
     21 H8         -0.8547    2.6289   -1.0521 H         1 <0>         0.0761
     22 H9         -0.9430    2.7501    0.7379 H         1 <0>         0.0704
     23 H10        -2.9191    3.8204   -0.3333 H         1 <0>         0.0838
     24 H11        -1.8290    4.9109   -1.2548 H         1 <0>         0.0694
     25 H12        -1.9172    5.0322    0.5352 H         1 <0>         0.0691
@<TRIPOS>BOND
     1    1    2 1
     2    1   16 1
     3    1   17 1
     4    1   18 1
     5    2    3 1
     6    2   19 1
     7    2   20 1
     8    3    4 1
     9    4    5 2
    10    4    6 1
    11    6    7 1
    12    6   10 1
    13    6    8 1
    14    8    9 1
    15    8   10 1
    16    8   11 1
    17   11   12 2
    18   11   13 1
    19   13   14 1
    20   14   15 1
    21   14   21 1
    22   14   22 1
    23   15   23 1
    24   15   24 1
    25   15   25 1
@<TRIPOS>MOLECULE
ZINC03913936
   47    47     0     0     0
SMALL
USER_CHARGES

@<TRIPOS>ATOM
      1 C1         -0.0187    1.5258    0.0104 C.3       1 <0>        -0.1471
      2 C2          0.0021   -0.0041    0.0020 C.3       1 <0>        -0.0939
      3 C3          0.7421   -0.5109    1.2415 C.3       1 <0>        -0.1532
      4 C4         -1.4333   -0.5336    0.0129 C.3       1 <0>        -0.1271
      5 C5         -1.4157   -2.0577   -0.1212 C.3       1 <0>         0.1159
      6 N1         -2.7901   -2.5647   -0.1108 N.am      1 <0>        -0.7288
      7 C6         -3.0208   -3.8883   -0.2174 C.2       1 <0>         0.5095
      8 O1         -2.0907   -4.6596   -0.3220 O.2       1 <0>        -0.5223
      9 C7         -4.4347   -4.4099   -0.2067 C.3       1 <0>         0.1268
     10 H1         -4.9875   -3.9782   -1.0410 H         1 <0>         0.1168
     11 C8         -5.1116   -4.0215    1.1092 C.3       1 <0>        -0.1198
     12 C9         -6.5823   -4.4414    1.0695 C.3       1 <0>        -0.0967
     13 C10        -7.2280   -4.1668    2.4292 C.3       1 <0>        -0.1455
     14 C11        -7.3118   -3.6423   -0.0122 C.3       1 <0>        -0.1399
     15 N2         -4.4178   -5.8692   -0.3351 N.am      1 <0>        -0.7045
     16 C12        -5.4865   -6.5133   -0.8445 C.2       1 <0>         0.5422
     17 O2         -6.4622   -5.8848   -1.1965 O.2       1 <0>        -0.5231
     18 C13        -5.4691   -8.0144   -0.9765 C.3       1 <0>        -0.0396
     19 H2         -5.6897   -8.5719   -0.0662 H         1 <0>         0.1472
     20 C14        -4.4812   -8.6314   -1.9686 C.3       1 <0>        -0.0301
     21 H3         -3.8379   -7.9553   -2.5318 H         1 <0>         0.1140
     22 O3         -5.8886   -8.5783   -2.2208 O.3       1 <0>        -0.3206
     23 C15        -3.8794   -9.9685   -1.6207 C.2       1 <0>         0.5106
     24 O4         -4.1270  -10.9455   -2.3066 O.co2     1 <0>        -0.6710
     25 O5         -3.1448  -10.0732   -0.6532 O.co2     1 <0>        -0.6725
     26 H4          1.0039    1.9031    0.0027 H         1 <0>         0.0557
     27 H5         -0.5459    1.8868   -0.8726 H         1 <0>         0.0545
     28 H6         -0.5289    1.8773    0.9072 H         1 <0>         0.0545
     29 H7          0.5123   -0.3556   -0.8948 H         1 <0>         0.0736
     30 H8          0.7568   -1.6008    1.2356 H         1 <0>         0.0598
     31 H9          1.7647   -0.1336    1.2338 H         1 <0>         0.0551
     32 H10         0.2319   -0.1594    2.1383 H         1 <0>         0.0549
     33 H11        -1.9156   -0.2570    0.9504 H         1 <0>         0.0701
     34 H12        -1.9862   -0.1019   -0.8214 H         1 <0>         0.0697
     35 H13        -0.9334   -2.3344   -1.0587 H         1 <0>         0.0682
     36 H14        -0.8628   -2.4894    0.7131 H         1 <0>         0.0721
     37 H15        -3.5340   -1.9479   -0.0272 H         1 <0>         0.4012
     38 H16        -4.6123   -4.5249    1.9371 H         1 <0>         0.0729
     39 H17        -5.0455   -2.9423    1.2472 H         1 <0>         0.0730
     40 H18        -6.6504   -5.5055    0.8433 H         1 <0>         0.0818
     41 H19        -7.1599   -3.1028    2.6555 H         1 <0>         0.0500
     42 H20        -8.2757   -4.4660    2.4009 H         1 <0>         0.0540
     43 H21        -6.7082   -4.7362    3.1998 H         1 <0>         0.0514
     44 H22        -6.8519   -3.8379   -0.9808 H         1 <0>         0.0722
     45 H23        -8.3596   -3.9414   -0.0404 H         1 <0>         0.0502
     46 H24        -7.2438   -2.5782    0.2141 H         1 <0>         0.0395
     47 H25        -3.6374   -6.3718   -0.0536 H         1 <0>         0.4183
@<TRIPOS>BOND
     1    1    2 1
     2    1   26 1
     3    1   27 1
     4    1   28 1
     5    2    3 1
     6    2    4 1
     7    2   29 1
     8    3   30 1
     9    3   31 1
    10    3   32 1
    11    4    5 1
    12    4   33 1
    13    4   34 1
    14    5    6 1
    15    5   35 1
    16    5   36 1
    17    6    7 am
    18    6   37 1
    19    7    8 2
    20    7    9 1
    21    9   10 1
    22    9   11 1
    23    9   15 1
    24   11   12 1
    25   11   38 1
    26   11   39 1
    27   12   13 1
    28   12   14 1
    29   12   40 1
    30   13   41 1
    31   13   42 1
    32   13   43 1
    33   14   44 1
    34   14   45 1
    35   14   46 1
    36   15   16 am
    37   15   47 1
    38   16   17 2
    39   16   18 1
    40   18   19 1
    41   18   22 1
    42   18   20 1
    43   20   21 1
    44   20   22 1
    45   20   23 1
    46   23   24 2
    47   23   25 1
@<TRIPOS>MOLECULE
ZINC14618975
   18    18     0     0     0
SMALL
USER_CHARGES
(2S,3R)-3-ethoxycarbonyloxirane-2-carboxylic acid
@<TRIPOS>ATOM
      1 C1         -2.7293    0.7186   -2.8440 C.3       1 <0>        -0.1475
      2 C2         -1.4800    1.4964   -3.2627 C.3       1 <0>         0.0657
      3 O1         -0.9883    2.2661   -2.1340 O.3       1 <0>        -0.3085
      4 C3          0.1107    3.0099   -2.3361 C.2       1 <0>         0.4914
      5 O2          0.6441    3.0174   -3.4202 O.2       1 <0>        -0.5145
      6 C4          0.6793    3.8354   -1.2108 C.3       1 <0>        -0.0161
      7 H1          0.2004    4.8002   -1.0433 H         1 <0>         0.1591
      8 C5          1.2350    3.0943    0.0069 C.3       1 <0>        -0.0075
      9 H2          1.1251    3.5670    0.9829 H         1 <0>         0.1328
     10 O3          2.0808    3.7326   -0.9518 O.3       1 <0>        -0.3205
     11 C6          1.1765    1.5884   -0.0006 C.2       1 <0>         0.4674
     12 O4          2.1986    0.9442   -0.0139 O.co2     1 <0>        -0.6172
     13 H3         -2.4798    0.0438   -2.0252 H         1 <0>         0.0762
     14 H4         -3.4997    1.4171   -2.5174 H         1 <0>         0.0616
     15 H5         -3.0985    0.1408   -3.6913 H         1 <0>         0.0708
     16 H6         -1.7296    2.1711   -4.0816 H         1 <0>         0.0600
     17 H7         -0.7097    0.7979   -3.5894 H         1 <0>         0.0655
     18 O5         -0.0110    0.9628    0.0073 O.co2     1 <0>        -0.7188
@<TRIPOS>BOND
     1    1    2 1
     2    1   13 1
     3    1   14 1
     4    1   15 1
     5    2    3 1
     6    2   16 1
     7    2   17 1
     8    3    4 1
     9    4    5 2
    10    4    6 1
    11    6    7 1
    12    6   10 1
    13    6    8 1
    14    8    9 1
    15    8   10 1
    16    8   11 1
    17   11   12 2
    18   11   18 1
@<TRIPOS>MOLECULE
ZINC14618976
   18    18     0     0     0
SMALL
USER_CHARGES
(2S,3S)-3-ethoxycarbonyloxirane-2-carboxylic acid
@<TRIPOS>ATOM
      1 C1          0.7891    4.9433   -3.3023 C.3       1 <0>        -0.1522
      2 C2         -0.1535    3.7931   -2.9425 C.3       1 <0>         0.0591
      3 O1          0.2982    3.1631   -1.7148 O.3       1 <0>        -0.3406
      4 C3         -0.4253    2.1285   -1.2587 C.2       1 <0>         0.4895
      5 O2         -1.4036    1.7615   -1.8654 O.2       1 <0>        -0.5026
      6 C4         -0.0173    1.4248    0.0099 C.3       1 <0>        -0.0120
      7 H1         -0.2948    1.9239    0.9383 H         1 <0>         0.1659
      8 C5          1.2859    0.6234   -0.0069 C.3       1 <0>        -0.0002
      9 H2          1.8561    0.6003   -0.9356 H         1 <0>         0.1262
     10 O3          0.0021   -0.0041    0.0020 O.3       1 <0>        -0.3167
     11 C6          2.0986    0.5778    1.2614 C.2       1 <0>         0.4789
     12 O4          2.2517   -0.4699    1.8435 O.co2     1 <0>        -0.6117
     13 H3          0.4500    5.4162   -4.2240 H         1 <0>         0.0773
     14 H4          0.7907    5.6773   -2.4965 H         1 <0>         0.0688
     15 H5          1.7982    4.5557   -3.4427 H         1 <0>         0.0689
     16 H6         -0.1550    3.0590   -3.7483 H         1 <0>         0.0687
     17 H7         -1.1625    4.1806   -2.8021 H         1 <0>         0.0692
     18 O5          2.6524    1.7011    1.7444 O.co2     1 <0>        -0.7365
@<TRIPOS>BOND
     1    1    2 1
     2    1   13 1
     3    1   14 1
     4    1   15 1
     5    2    3 1
     6    2   16 1
     7    2   17 1
     8    3    4 1
     9    4    5 2
    10    4    6 1
    11    6    7 1
    12    6   10 1
    13    6    8 1
    14    8    9 1
    15    8   10 1
    16    8   11 1
    17   11   12 2
    18   11   18 1
@<TRIPOS>MOLECULE
ZINC14618977
   18    18     0     0     0
SMALL
USER_CHARGES
(2R,3R)-3-ethoxycarbonyloxirane-2-carboxylic acid
@<TRIPOS>ATOM
      1 C1         -0.0127    1.0858    0.0080 C.3       1 <0>        -0.1523
      2 C2         -0.7288    1.5792    1.2668 C.3       1 <0>         0.0590
      3 O1         -2.0911    1.0767    1.2771 O.3       1 <0>        -0.3405
      4 C3         -2.8598    1.4212    2.3221 C.2       1 <0>         0.4899
      5 O2         -2.4094    2.1196    3.1992 O.2       1 <0>        -0.5025
      6 C4         -4.2847    0.9369    2.4014 C.3       1 <0>        -0.0119
      7 H1         -5.0120    1.5112    1.8277 H         1 <0>         0.1661
      8 C5         -4.5191   -0.5680    2.5466 C.3       1 <0>        -0.0008
      9 H2         -3.6442   -1.2170    2.5846 H         1 <0>         0.1265
     10 O3         -4.7196    0.3451    3.6273 O.3       1 <0>        -0.3169
     11 C6         -5.7406   -1.1552    1.8877 C.2       1 <0>         0.4788
     12 O4         -6.6187   -1.6372    2.5633 O.co2     1 <0>        -0.6118
     13 H3          0.0021   -0.0041    0.0020 H         1 <0>         0.0688
     14 H4          1.0099    1.4631    0.0003 H         1 <0>         0.0773
     15 H5         -0.5399    1.4469   -0.8751 H         1 <0>         0.0689
     16 H6         -0.2017    1.2182    2.1499 H         1 <0>         0.0687
     17 H7         -0.7436    2.6691    1.2728 H         1 <0>         0.0693
     18 O5         -5.8532   -1.1427    0.5502 O.co2     1 <0>        -0.7366
@<TRIPOS>BOND
     1    1    2 1
     2    1   13 1
     3    1   14 1
     4    1   15 1
     5    2    3 1
     6    2   16 1
     7    2   17 1
     8    3    4 1
     9    4    5 2
    10    4    6 1
    11    6    7 1
    12    6   10 1
    13    6    8 1
    14    8    9 1
    15    8   10 1
    16    8   11 1
    17   11   12 2
    18   11   18 1
@<TRIPOS>MOLECULE
ZINC14618978
   18    18     0     0     0
SMALL
USER_CHARGES
(2R,3S)-3-ethoxycarbonyloxirane-2-carboxylic acid
@<TRIPOS>ATOM
      1 C1         -0.9085   -2.4192    3.0399 C.3       1 <0>        -0.1478
      2 C2         -1.0203   -0.9373    3.4037 C.3       1 <0>         0.0654
      3 O1         -1.5238   -0.1952    2.2617 O.3       1 <0>        -0.3104
      4 C3         -1.6812    1.1287    2.4166 C.2       1 <0>         0.4911
      5 O2         -1.4074    1.6504    3.4715 O.2       1 <0>        -0.5136
      6 C4         -2.1995    1.9646    1.2747 C.3       1 <0>        -0.0160
      7 H1         -3.2818    1.9709    1.1457 H         1 <0>         0.1593
      8 C5         -1.3313    2.0738    0.0196 C.3       1 <0>        -0.0076
      9 H2         -1.8365    2.1529   -0.9430 H         1 <0>         0.1331
     10 O3         -1.4823    3.1549    0.9418 O.3       1 <0>        -0.3203
     11 C6         -0.0161    1.3381    0.0094 C.2       1 <0>         0.4677
     12 O4          1.0219    1.9564    0.0028 O.co2     1 <0>        -0.6169
     13 H3         -1.8914   -2.8007    2.7634 H         1 <0>         0.0619
     14 H4         -0.2238   -2.5364    2.1999 H         1 <0>         0.0762
     15 H5         -0.5305   -2.9762    3.8972 H         1 <0>         0.0712
     16 H6         -0.0374   -0.5558    3.6802 H         1 <0>         0.0658
     17 H7         -1.7050   -0.8201    4.2437 H         1 <0>         0.0605
     18 O5          0.0021   -0.0041    0.0020 O.co2     1 <0>        -0.7197
@<TRIPOS>BOND
     1    1    2 1
     2    1   13 1
     3    1   14 1
     4    1   15 1
     5    2    3 1
     6    2   16 1
     7    2   17 1
     8    3    4 1
     9    4    5 2
    10    4    6 1
    11    6    7 1
    12    6   10 1
    13    6    8 1
    14    8    9 1
    15    8   10 1
    16    8   11 1
    17   11   12 2
    18   11   18 1
@<TRIPOS>MOLECULE
ZINC36379291
   32    34     0     0     0
SMALL
USER_CHARGES

@<TRIPOS>ATOM
      1 C1          0.2878    0.9295    0.1333 C.3       1 <0>        -0.1722
      2 C2          0.1896   -0.5791   -0.1024 C.3       1 <0>         0.1039
      3 N1         -1.2171   -0.9872   -0.0741 N.pl3     1 <0>        -0.4641
      4 C3         -1.8950   -1.4700    1.0041 C.2       1 <0>         0.2769
      5 N2         -3.1277   -1.7321    0.6754 N.2       1 <0>        -0.4645
      6 C4         -3.3196   -1.4356   -0.6301 C.ar      1 <0>        -0.0696
      7 C5         -2.0962   -0.9478   -1.1282 C.ar      1 <0>         0.3016
      8 N3         -2.0174   -0.5773   -2.3983 N.ar      1 <0>        -0.5018
      9 C6         -3.0751   -0.6605   -3.1921 C.ar      1 <0>         0.4627
     10 N4         -4.2500   -1.1115   -2.7641 N.ar      1 <0>        -0.5421
     11 C7         -4.4155   -1.5107   -1.5099 C.ar      1 <0>         0.5044
     12 N5         -5.6437   -1.9782   -1.0722 N.pl3     1 <0>        -0.6278
     13 C8         -6.6871   -2.1611   -1.9840 C.ar      1 <0>         0.2135
     14 C9         -6.4125   -2.5724   -3.2818 C.ar      1 <0>        -0.1634
     15 C10        -7.4468   -2.7533   -4.1824 C.ar      1 <0>         0.1557
     16 C11        -8.7552   -2.5241   -3.7910 C.ar      1 <0>        -0.2069
     17 C12        -9.0313   -2.1140   -2.4974 C.ar      1 <0>         0.1557
     18 C13        -8.0005   -1.9374   -1.5918 C.ar      1 <0>        -0.1919
     19 F1        -10.3086   -1.8907   -2.1182 F         1 <0>        -0.1256
     20 F2         -7.1803   -3.1533   -5.4450 F         1 <0>        -0.1248
     21 C14        -2.9482   -0.2500   -4.5581 C.1       1 <0>         0.2859
     22 N6         -2.8475    0.0757   -5.6418 N.1       1 <0>        -0.3467
     23 H1          1.3345    1.2331    0.1123 H         1 <0>         0.0835
     24 H2         -0.2590    1.4558   -0.6490 H         1 <0>         0.0658
     25 H3         -0.1420    1.1742    1.1046 H         1 <0>         0.0649
     26 H4          0.6195   -0.8238   -1.0737 H         1 <0>         0.1005
     27 H5          0.7365   -1.1054    0.6799 H         1 <0>         0.1057
     28 H6         -1.4723   -1.6142    1.9875 H         1 <0>         0.2314
     29 H7         -5.7797   -2.1786   -0.1330 H         1 <0>         0.4368
     30 H8         -5.3922   -2.7505   -3.5878 H         1 <0>         0.1529
     31 H9         -9.5614   -2.6651   -4.4956 H         1 <0>         0.1514
     32 H10        -8.2167   -1.6218   -0.5818 H         1 <0>         0.1480
@<TRIPOS>BOND
     1    1    2 1
     2    1   23 1
     3    1   24 1
     4    1   25 1
     5    2    3 1
     6    2   26 1
     7    2   27 1
     8    3    7 1
     9    3    4 1
    10    4    5 2
    11    4   28 1
    12    5    6 1
    13    6   11 ar
    14    6    7 ar
    15    7    8 ar
    16    8    9 ar
    17    9   10 ar
    18    9   21 1
    19   10   11 ar
    20   11   12 1
    21   12   13 1
    22   12   29 1
    23   13   18 ar
    24   13   14 ar
    25   14   15 ar
    26   14   30 1
    27   15   16 ar
    28   15   20 1
    29   16   17 ar
    30   16   31 1
    31   17   18 ar
    32   17   19 1
    33   18   32 1
    34   21   22 3
@<TRIPOS>MOLECULE
ZINC45350560
   47    48     0     0     0
SMALL
USER_CHARGES

@<TRIPOS>ATOM
      1 C1         -0.0187    1.5258    0.0104 C.3       1 <0>        -0.1626
      2 C2          0.0021   -0.0041    0.0020 C.3       1 <0>         0.2466
      3 H1          0.5293   -0.3651    0.8851 H         1 <0>         0.1322
      4 C3         -1.3789   -0.5136    0.0125 C.1       1 <0>         0.1926
      5 N1         -2.4446   -0.9068    0.0205 N.1       1 <0>        -0.3989
      6 N2          0.6878   -0.4765   -1.2033 N.am      1 <0>        -0.7249
      7 C4          2.0310   -0.5870   -1.2149 C.2       1 <0>         0.5103
      8 O1          2.6720   -0.2952   -0.2276 O.2       1 <0>        -0.5117
      9 C5          2.7363   -1.0730   -2.4548 C.3       1 <0>         0.1568
     10 H2          2.5204   -0.3987   -3.2836 H         1 <0>         0.1260
     11 C6          2.2467   -2.4804   -2.8015 C.3       1 <0>        -0.0853
     12 C7          2.8590   -2.9178   -4.1072 C.ar      1 <0>        -0.0903
     13 C8          2.2140   -2.6445   -5.2990 C.ar      1 <0>        -0.1124
     14 C9          2.7757   -3.0457   -6.4967 C.ar      1 <0>        -0.1165
     15 C10         3.9825   -3.7199   -6.5027 C.ar      1 <0>        -0.1173
     16 C11         4.6279   -3.9924   -5.3110 C.ar      1 <0>        -0.1158
     17 C12         4.0683   -3.5874   -4.1136 C.ar      1 <0>        -0.1089
     18 N3          4.1811   -1.1040   -2.2143 N.am      1 <0>        -0.6847
     19 C13         4.9175    0.0112   -2.3889 C.2       1 <0>         0.6591
     20 O2          4.3830    1.0424   -2.7460 O.2       1 <0>        -0.5669
     21 O3          6.2452   -0.0173   -2.1679 O.3       1 <0>        -0.3557
     22 C14         6.9633    1.2011   -2.3726 C.3       1 <0>         0.1294
     23 C15         8.4246    0.9784   -2.0790 C.ar      1 <0>        -0.1004
     24 C16         8.9096    1.1715   -0.7990 C.ar      1 <0>        -0.0925
     25 C17        10.2500    0.9673   -0.5297 C.ar      1 <0>        -0.1232
     26 C18        11.1052    0.5694   -1.5403 C.ar      1 <0>        -0.1075
     27 C19        10.6200    0.3754   -2.8200 C.ar      1 <0>        -0.1238
     28 C20         9.2788    0.5756   -3.0884 C.ar      1 <0>        -0.0934
     29 H3          1.0039    1.9031    0.0027 H         1 <0>         0.0845
     30 H4         -0.5459    1.8868   -0.8726 H         1 <0>         0.0689
     31 H5         -0.5289    1.8773    0.9072 H         1 <0>         0.0786
     32 H6          0.1751   -0.7099   -1.9930 H         1 <0>         0.4070
     33 H7          2.5412   -3.1723   -2.0124 H         1 <0>         0.0920
     34 H8          1.1606   -2.4750   -2.8933 H         1 <0>         0.0997
     35 H9          1.2712   -2.1178   -5.2943 H         1 <0>         0.1237
     36 H10         2.2714   -2.8328   -7.4277 H         1 <0>         0.1236
     37 H11         4.4209   -4.0340   -7.4384 H         1 <0>         0.1224
     38 H12         5.5705   -4.5194   -5.3157 H         1 <0>         0.1235
     39 H13         4.5744   -3.7971   -3.1828 H         1 <0>         0.1206
     40 H14         4.6078   -1.9272   -1.9293 H         1 <0>         0.4115
     41 H15         6.8455    1.5228   -3.4074 H         1 <0>         0.0781
     42 H16         6.5719    1.9699   -1.7063 H         1 <0>         0.0789
     43 H17         8.2415    1.4824   -0.0095 H         1 <0>         0.1254
     44 H18        10.6291    1.1188    0.4701 H         1 <0>         0.1263
     45 H19        12.1526    0.4105   -1.3300 H         1 <0>         0.1250
     46 H20        11.2882    0.0650   -3.6096 H         1 <0>         0.1259
     47 H21         8.8990    0.4204   -4.0874 H         1 <0>         0.1244
@<TRIPOS>BOND
     1    1    2 1
     2    1   29 1
     3    1   30 1
     4    1   31 1
     5    2    3 1
     6    2    4 1
     7    2    6 1
     8    4    5 3
     9    6    7 am
    10    6   32 1
    11    7    8 2
    12    7    9 1
    13    9   10 1
    14    9   11 1
    15    9   18 1
    16   11   12 1
    17   11   33 1
    18   11   34 1
    19   12   17 ar
    20   12   13 ar
    21   13   14 ar
    22   13   35 1
    23   14   15 ar
    24   14   36 1
    25   15   16 ar
    26   15   37 1
    27   16   17 ar
    28   16   38 1
    29   17   39 1
    30   18   19 am
    31   18   40 1
    32   19   20 2
    33   19   21 1
    34   21   22 1
    35   22   23 1
    36   22   41 1
    37   22   42 1
    38   23   28 ar
    39   23   24 ar
    40   24   25 ar
    41   24   43 1
    42   25   26 ar
    43   25   44 1
    44   26   27 ar
    45   26   45 1
    46   27   28 ar
    47   27   46 1
    48   28   47 1
