@<TRIPOS>MOLECULE
ZINC03871459
   20    21     0     0     0
SMALL
USER_CHARGES

@<TRIPOS>ATOM
      1 C1         -0.0167    1.3834    0.0096 C.ar      1 <0>        -0.0838
      2 C2          1.1565    2.1055    0.0023 C.ar      1 <0>        -0.1078
      3 C3          2.3801    1.4358   -0.0129 C.ar      1 <0>        -0.1081
      4 C4          2.4069    0.0230   -0.0207 C.ar      1 <0>        -0.0696
      5 C5          3.7068   -0.6484   -0.0372 C.2       1 <0>        -0.1913
      6 C6          4.8300    0.0878   -0.0445 C.2       1 <0>         0.0974
      7 N1          4.8093    1.4540   -0.0365 N.am      1 <0>        -0.6327
      8 H1          5.6514    1.9353   -0.0420 H         1 <0>         0.4145
      9 C7          3.6587    2.1556   -0.0217 C.2       1 <0>         0.5453
     10 O1          3.6799    3.3734   -0.0158 O.2       1 <0>        -0.5267
     11 C8          1.2022   -0.6935   -0.0130 C.ar      1 <0>         0.2138
     12 C9          0.0021   -0.0041    0.0020 C.ar      1 <0>        -0.1701
     13 N2          1.2127   -2.0889   -0.0210 N.pl3     1 <0>        -0.8717
     14 H2         -0.9630    1.9038    0.0260 H         1 <0>         0.1307
     15 H3          1.1290    3.1852    0.0080 H         1 <0>         0.1346
     16 H4          3.7625   -1.7270   -0.0432 H         1 <0>         0.1395
     17 H5          5.7840   -0.4183   -0.0566 H         1 <0>         0.1584
     18 H6         -0.9289   -0.5514    0.0079 H         1 <0>         0.1269
     19 H7          2.0563   -2.5675   -0.0319 H         1 <0>         0.3991
     20 H8          0.3763   -2.5802   -0.0156 H         1 <0>         0.4016
@<TRIPOS>BOND
     1    1   12 ar
     2    1    2 ar
     3    1   14 1
     4    2    3 ar
     5    2   15 1
     6    3    9 1
     7    3    4 ar
     8    4    5 1
     9    4   11 ar
    10    5    6 2
    11    5   16 1
    12    6    7 1
    13    6   17 1
    14    7    8 1
    15    7    9 am
    16    9   10 2
    17   11   12 ar
    18   11   13 1
    19   12   18 1
    20   13   19 1
    21   13   20 1
