@<TRIPOS>MOLECULE
ZINC18324776
   66    69     0     0     0
SMALL
USER_CHARGES

@<TRIPOS>ATOM
      1 C1         -0.0187    1.5258    0.0104 C.3       1 <0>        -0.1515
      2 C2          0.0021   -0.0041    0.0020 C.3       1 <0>        -0.1161
      3 C3          0.7182   -0.4975   -1.2568 C.3       1 <0>        -0.0382
      4 C4          0.7386   -2.0043   -1.2651 C.2       1 <0>         0.2940
      5 N1          1.6787   -2.7529   -0.7375 N.2       1 <0>        -0.4766
      6 C5          1.3866   -4.0413   -0.9211 C.2       1 <0>         0.1350
      7 C6          0.1960   -4.0985   -1.6021 C.2       1 <0>        -0.1676
      8 N2         -0.2036   -2.7889   -1.8075 N.pl3     1 <0>        -0.2813
      9 N3         -1.4027   -2.5429   -2.4823 N.2       1 <0>        -0.2666
     10 C7         -2.1451   -3.5211   -2.9147 C.2       1 <0>         0.4182
     11 N4         -1.8014   -4.8460   -2.7370 N.am      1 <0>        -0.6707
     12 H1         -2.3837   -5.5441   -3.0753 H         1 <0>         0.4225
     13 C8         -0.6544   -5.1776   -2.1025 C.2       1 <0>         0.6004
     14 O1         -0.3442   -6.3438   -1.9407 O.2       1 <0>        -0.4846
     15 C9         -3.4025   -3.2011   -3.6216 C.ar      1 <0>        -0.1222
     16 C10        -4.2233   -4.2270   -4.0923 C.ar      1 <0>         0.0523
     17 C11        -5.3956   -3.9221   -4.7514 C.ar      1 <0>        -0.7181
     18 C12        -5.7625   -2.6016   -4.9484 C.ar      1 <0>         0.0502
     19 C13        -4.9584   -1.5773   -4.4871 C.ar      1 <0>        -0.2291
     20 C14        -3.7798   -1.8669   -3.8177 C.ar      1 <0>         0.2417
     21 O2         -2.9915   -0.8612   -3.3589 O.3       1 <0>        -0.2691
     22 C15        -3.4407    0.4746   -3.5956 C.3       1 <0>         0.0430
     23 C16        -2.4300    1.4636   -3.0113 C.3       1 <0>        -0.1534
     24 S1         -6.4307   -5.2183   -5.3457 S.o2      1 <0>         2.6925
     25 O3         -7.1994   -4.6697   -6.4075 O.2       1 <0>        -0.9459
     26 O4         -5.5978   -6.3568   -5.5173 O.2       1 <0>        -0.9478
     27 N5         -7.4957   -5.5895   -4.1331 N.pl3     1 <0>        -0.9969
     28 C17        -7.1670   -6.6094   -3.1256 C.3       1 <0>         0.1241
     29 C18        -7.3951   -6.0101   -1.7339 C.3       1 <0>         0.0390
     30 N6         -8.7605   -5.4743   -1.6528 N.3       1 <0>        -0.5346
     31 C19        -8.9594   -4.3757   -2.6075 C.3       1 <0>         0.0359
     32 C20        -8.7928   -4.9036   -4.0315 C.3       1 <0>         0.1244
     33 C21        -9.0775   -5.0460   -0.2838 C.3       1 <0>         0.0507
     34 C22       -10.5711   -4.7305   -0.1811 C.3       1 <0>        -0.1507
     35 C23         2.2115   -5.2172   -0.4653 C.3       1 <0>        -0.0791
     36 H2          1.0039    1.9031    0.0027 H         1 <0>         0.0592
     37 H3         -0.5459    1.8868   -0.8726 H         1 <0>         0.0568
     38 H4         -0.5289    1.8773    0.9072 H         1 <0>         0.0582
     39 H5          0.5293   -0.3651    0.8851 H         1 <0>         0.0698
     40 H6         -1.0205   -0.3814    0.0098 H         1 <0>         0.0616
     41 H7          0.1910   -0.1364   -2.1398 H         1 <0>         0.0903
     42 H8          1.7408   -0.1202   -1.2645 H         1 <0>         0.1010
     43 H9         -3.9405   -5.2583   -3.9410 H         1 <0>         0.1476
     44 H10        -6.6820   -2.3711   -5.4658 H         1 <0>         0.1528
     45 H11        -5.2508   -0.5496   -4.6443 H         1 <0>         0.1519
     46 H12        -3.5339    0.6418   -4.6687 H         1 <0>         0.0707
     47 H13        -4.4100    0.6217   -3.1194 H         1 <0>         0.0698
     48 H14        -2.3368    1.2964   -1.9383 H         1 <0>         0.0715
     49 H15        -1.4607    1.3165   -3.4876 H         1 <0>         0.0696
     50 H16        -2.7726    2.4825   -3.1919 H         1 <0>         0.0831
     51 H17        -7.8113   -7.4781   -3.2603 H         1 <0>         0.0891
     52 H18        -6.1229   -6.9045   -3.2305 H         1 <0>         0.0932
     53 H19        -7.2628   -6.7844   -0.9782 H         1 <0>         0.0906
     54 H20        -6.6785   -5.2070   -1.5617 H         1 <0>         0.0379
     55 H21        -9.9616   -3.9647   -2.4854 H         1 <0>         0.0938
     56 H22        -8.2210   -3.5954   -2.4231 H         1 <0>         0.0379
     57 H23        -8.8232   -4.0716   -4.7350 H         1 <0>         0.0943
     58 H24        -9.5965   -5.6053   -4.2549 H         1 <0>         0.0876
     59 H25        -8.8260   -5.8445    0.4142 H         1 <0>         0.0769
     60 H26        -8.5002   -4.1544   -0.0392 H         1 <0>         0.0325
     61 H27       -10.8226   -3.9319   -0.8791 H         1 <0>         0.0550
     62 H28       -11.1485   -5.6221   -0.4257 H         1 <0>         0.0654
     63 H29       -10.8063   -4.4127    0.8346 H         1 <0>         0.0603
     64 H30         1.9006   -5.5126    0.5368 H         1 <0>         0.0820
     65 H31         2.0655   -6.0513   -1.1517 H         1 <0>         0.0840
     66 H32         3.2651   -4.9383   -0.4514 H         1 <0>         0.0816
@<TRIPOS>BOND
     1    1    2 1
     2    1   36 1
     3    1   37 1
     4    1   38 1
     5    2    3 1
     6    2   39 1
     7    2   40 1
     8    3    4 1
     9    3   41 1
    10    3   42 1
    11    4    8 1
    12    4    5 2
    13    5    6 1
    14    6    7 2
    15    6   35 1
    16    7   13 1
    17    7    8 1
    18    8    9 1
    19    9   10 2
    20   10   11 1
    21   10   15 1
    22   11   12 1
    23   11   13 am
    24   13   14 2
    25   15   20 ar
    26   15   16 ar
    27   16   17 ar
    28   16   43 1
    29   17   18 ar
    30   17   24 1
    31   18   19 ar
    32   18   44 1
    33   19   20 ar
    34   19   45 1
    35   20   21 1
    36   21   22 1
    37   22   23 1
    38   22   46 1
    39   22   47 1
    40   23   48 1
    41   23   49 1
    42   23   50 1
    43   24   25 2
    44   24   26 2
    45   24   27 1
    46   27   32 1
    47   27   28 1
    48   28   29 1
    49   28   51 1
    50   28   52 1
    51   29   30 1
    52   29   53 1
    53   29   54 1
    54   30   31 1
    55   30   33 1
    56   31   32 1
    57   31   55 1
    58   31   56 1
    59   32   57 1
    60   32   58 1
    61   33   34 1
    62   33   59 1
    63   33   60 1
    64   34   61 1
    65   34   62 1
    66   34   63 1
    67   35   64 1
    68   35   65 1
    69   35   66 1
@<TRIPOS>MOLECULE
ZINC18324776
   65    68     0     0     0
SMALL
USER_CHARGES

@<TRIPOS>ATOM
      1 C1         -0.0187    1.5258    0.0104 C.3       1 <0>        -0.1472
      2 C2          0.0021   -0.0041    0.0020 C.3       1 <0>        -0.1154
      3 C3         -1.4333   -0.5336    0.0129 C.3       1 <0>        -0.0179
      4 C4         -1.4129   -2.0405    0.0046 C.2       1 <0>         0.2125
      5 N1         -1.4071   -2.7931   -1.0712 N.2       1 <0>        -0.4896
      6 C5         -1.3882   -4.0792   -0.7236 C.2       1 <0>         0.0659
      7 C6         -1.3817   -4.1334    0.6527 C.2       1 <0>        -0.1332
      8 N2         -1.3919   -2.8203    1.0938 N.pl3     1 <0>        -0.2435
      9 N3         -1.3825   -2.5794    2.4721 N.2       1 <0>        -0.3804
     10 C7         -1.3611   -3.5896    3.3115 C.2       1 <0>         0.3856
     11 N4         -1.3477   -4.8635    2.8932 N.2       1 <0>        -0.6634
     12 C8         -1.3637   -5.1706    1.6102 C.2       1 <0>         0.5160
     13 O1         -1.3482   -6.4650    1.2164 O.3       1 <0>        -0.6444
     14 C9         -1.3510   -3.3124    4.7674 C.ar      1 <0>        -0.0696
     15 C10        -1.3226   -4.3652    5.6804 C.ar      1 <0>         0.0723
     16 C11        -1.3133   -4.1018    7.0345 C.ar      1 <0>        -0.7301
     17 C12        -1.3321   -2.7951    7.4910 C.ar      1 <0>         0.0273
     18 C13        -1.3608   -1.7438    6.5951 C.ar      1 <0>        -0.2428
     19 C14        -1.3641   -1.9932    5.2316 C.ar      1 <0>         0.2183
     20 O2         -1.3862   -0.9606    4.3499 O.3       1 <0>        -0.2614
     21 C15        -1.3985    0.3595    4.8970 C.3       1 <0>         0.0448
     22 C16        -1.4229    1.3826    3.7597 C.3       1 <0>        -0.1490
     23 S1         -1.2780   -5.4337    8.1875 S.o2      1 <0>         2.6955
     24 O3         -1.8252   -4.9355    9.4005 O.2       1 <0>        -0.9613
     25 O4         -1.8158   -6.5654    7.5173 O.2       1 <0>        -0.9471
     26 N5          0.3135   -5.7760    8.4916 N.pl3     1 <0>        -0.9993
     27 C17         1.0454   -6.7536    7.6720 C.3       1 <0>         0.1257
     28 C18         2.3494   -6.1074    7.1922 C.3       1 <0>         0.0382
     29 N6          3.0902   -5.5890    8.3500 N.3       1 <0>        -0.5349
     30 C19         2.3371   -4.5289    9.0333 C.3       1 <0>         0.0355
     31 C20         1.0342   -5.1059    9.5847 C.3       1 <0>         0.1277
     32 C21         4.4231   -5.1157    7.9532 C.3       1 <0>         0.0491
     33 C22         5.2521   -4.8186    9.2044 C.3       1 <0>        -0.1481
     34 C23        -1.3761   -5.2575   -1.6630 C.3       1 <0>        -0.0570
     35 H1          1.0039    1.9031    0.0027 H         1 <0>         0.0513
     36 H2         -0.5459    1.8868   -0.8726 H         1 <0>         0.0538
     37 H3         -0.5289    1.8773    0.9072 H         1 <0>         0.0536
     38 H4          0.5123   -0.3556   -0.8948 H         1 <0>         0.0637
     39 H5          0.5293   -0.3651    0.8851 H         1 <0>         0.0604
     40 H6         -1.9435   -0.1821    0.9097 H         1 <0>         0.0786
     41 H7         -1.9605   -0.1726   -0.8702 H         1 <0>         0.0832
     42 H8         -1.3082   -5.3860    5.3281 H         1 <0>         0.1637
     43 H9         -1.3247   -2.5965    8.5525 H         1 <0>         0.1396
     44 H10        -1.3757   -0.7265    6.9575 H         1 <0>         0.1384
     45 H11        -2.2844    0.4866    5.5191 H         1 <0>         0.0614
     46 H12        -0.5047    0.5103    5.5023 H         1 <0>         0.0605
     47 H13        -1.4323    2.3896    4.1770 H         1 <0>         0.0741
     48 H14        -0.5370    1.2555    3.1375 H         1 <0>         0.0691
     49 H15        -2.3167    1.2318    3.1543 H         1 <0>         0.0679
     50 H16         1.2725   -7.6360    8.2702 H         1 <0>         0.0831
     51 H17         0.4391   -7.0371    6.8117 H         1 <0>         0.0995
     52 H18         2.9558   -6.8517    6.6760 H         1 <0>         0.0892
     53 H19         2.1202   -5.2882    6.5106 H         1 <0>         0.0436
     54 H20         2.9344   -4.1285    9.8524 H         1 <0>         0.0887
     55 H21         2.1080   -3.7317    8.3261 H         1 <0>         0.0397
     56 H22         0.4205   -4.3006    9.9884 H         1 <0>         0.0914
     57 H23         1.2602   -5.8269   10.3703 H         1 <0>         0.0814
     58 H24         4.9205   -5.8846    7.3620 H         1 <0>         0.0757
     59 H25         4.3241   -4.2075    7.3587 H         1 <0>         0.0329
     60 H26         6.2411   -4.4674    8.9100 H         1 <0>         0.0572
     61 H27         4.7547   -4.0497    9.7956 H         1 <0>         0.0540
     62 H28         5.3511   -5.7268    9.7988 H         1 <0>         0.0632
     63 H29        -0.3456   -5.5279   -1.8935 H         1 <0>         0.0620
     64 H30        -1.8769   -6.1032   -1.1917 H         1 <0>         0.0807
     65 H31        -1.8970   -4.9937   -2.5834 H         1 <0>         0.0597
@<TRIPOS>BOND
     1    1    2 1
     2    1   35 1
     3    1   36 1
     4    1   37 1
     5    2    3 1
     6    2   38 1
     7    2   39 1
     8    3    4 1
     9    3   40 1
    10    3   41 1
    11    4    8 1
    12    4    5 2
    13    5    6 1
    14    6    7 2
    15    6   34 1
    16    7   12 1
    17    7    8 1
    18    8    9 1
    19    9   10 2
    20   10   11 1
    21   10   14 1
    22   11   12 2
    23   12   13 1
    24   14   19 ar
    25   14   15 ar
    26   15   16 ar
    27   15   42 1
    28   16   17 ar
    29   16   23 1
    30   17   18 ar
    31   17   43 1
    32   18   19 ar
    33   18   44 1
    34   19   20 1
    35   20   21 1
    36   21   22 1
    37   21   45 1
    38   21   46 1
    39   22   47 1
    40   22   48 1
    41   22   49 1
    42   23   24 2
    43   23   25 2
    44   23   26 1
    45   26   31 1
    46   26   27 1
    47   27   28 1
    48   27   50 1
    49   27   51 1
    50   28   29 1
    51   28   52 1
    52   28   53 1
    53   29   30 1
    54   29   32 1
    55   30   31 1
    56   30   54 1
    57   30   55 1
    58   31   56 1
    59   31   57 1
    60   32   33 1
    61   32   58 1
    62   32   59 1
    63   33   60 1
    64   33   61 1
    65   33   62 1
    66   34   63 1
    67   34   64 1
    68   34   65 1
@<TRIPOS>MOLECULE
ZINC18324776
   67    70     0     0     0
SMALL
USER_CHARGES

@<TRIPOS>ATOM
      1 C1         -0.0187    1.5258    0.0104 C.3       1 <0>        -0.1527
      2 C2          0.0021   -0.0041    0.0020 C.3       1 <0>        -0.1146
      3 C3         -1.4333   -0.5336    0.0129 C.3       1 <0>        -0.0409
      4 C4         -1.4129   -2.0405    0.0046 C.2       1 <0>         0.3010
      5 N1         -1.4071   -2.7929   -1.0707 N.2       1 <0>        -0.4733
      6 C5         -1.3877   -4.0800   -0.7214 C.2       1 <0>         0.1428
      7 C6         -1.3810   -4.1322    0.6504 C.2       1 <0>        -0.1723
      8 N2         -1.3919   -2.8210    1.0945 N.pl3     1 <0>        -0.2854
      9 N3         -1.3832   -2.5699    2.4695 N.2       1 <0>        -0.2583
     10 C7         -1.3620   -3.5449    3.3321 C.2       1 <0>         0.4061
     11 N4         -1.3466   -4.8711    2.9502 N.am      1 <0>        -0.6726
     12 H1         -1.3310   -5.5667    3.6261 H         1 <0>         0.4190
     13 C8         -1.3621   -5.2077    1.6407 C.2       1 <0>         0.6010
     14 O1         -1.3478   -6.3752    1.2954 O.2       1 <0>        -0.4816
     15 C9         -1.3537   -3.2195    4.7733 C.ar      1 <0>        -0.1139
     16 C10        -1.3254   -4.2417    5.7231 C.ar      1 <0>         0.0469
     17 C11        -1.3178   -3.9318    7.0668 C.ar      1 <0>        -0.7277
     18 C12        -1.3382   -2.6100    7.4784 C.ar      1 <0>         0.0445
     19 C13        -1.3663   -1.5892    6.5478 C.ar      1 <0>        -0.2261
     20 C14        -1.3684   -1.8838    5.1935 C.ar      1 <0>         0.2477
     21 O2         -1.3904   -0.8814    4.2779 O.3       1 <0>        -0.2651
     22 C15        -1.4044    0.4562    4.7806 C.3       1 <0>         0.0428
     23 C16        -1.4284    1.4408    3.6097 C.3       1 <0>        -0.1560
     24 S1         -1.2826   -5.2233    8.2649 S.o2      1 <0>         2.6921
     25 O3         -1.8316   -4.6842    9.4596 O.2       1 <0>        -0.9290
     26 O4         -1.8188   -6.3779    7.6334 O.2       1 <0>        -0.9309
     27 N5          0.3088   -5.5535    8.5823 N.pl3     1 <0>        -1.0122
     28 C17         1.0439   -6.5580    7.7981 C.3       1 <0>         0.0949
     29 C18         2.3562   -5.9317    7.3149 C.3       1 <0>        -0.0239
     30 N6          3.0970   -5.4006    8.4661 N.4       1 <0>        -0.3828
     31 C19         2.3407   -4.3048    9.0851 C.3       1 <0>        -0.0284
     32 C20         1.0293   -4.8464    9.6524 C.3       1 <0>         0.0958
     33 C21         4.4028   -4.8994    8.0169 C.3       1 <0>        -0.0114
     34 C22         5.2254   -4.4605    9.2299 C.3       1 <0>        -0.1896
     35 C23        -1.3758   -5.2593   -1.6596 C.3       1 <0>        -0.0821
     36 H2          1.0039    1.9031    0.0027 H         1 <0>         0.0592
     37 H3         -0.5459    1.8868   -0.8726 H         1 <0>         0.0614
     38 H4         -0.5289    1.8773    0.9072 H         1 <0>         0.0565
     39 H5          0.5123   -0.3556   -0.8948 H         1 <0>         0.0710
     40 H6          0.5293   -0.3651    0.8851 H         1 <0>         0.0594
     41 H7         -1.9435   -0.1821    0.9097 H         1 <0>         0.0906
     42 H8         -1.9605   -0.1726   -0.8702 H         1 <0>         0.1040
     43 H9         -1.3098   -5.2740    5.4062 H         1 <0>         0.1484
     44 H10        -1.3324   -2.3756    8.5327 H         1 <0>         0.1534
     45 H11        -1.3821   -0.5605    6.8761 H         1 <0>         0.1551
     46 H12        -2.2911    0.6033    5.3972 H         1 <0>         0.0735
     47 H13        -0.5114    0.6279    5.3815 H         1 <0>         0.0708
     48 H14        -0.5417    1.2936    2.9931 H         1 <0>         0.0726
     49 H15        -2.3214    1.2691    3.0088 H         1 <0>         0.0719
     50 H16        -1.4391    2.4610    3.9931 H         1 <0>         0.0865
     51 H17         1.2599   -7.4244    8.4233 H         1 <0>         0.1083
     52 H18         0.4453   -6.8622    6.9395 H         1 <0>         0.1351
     53 H19         2.9579   -6.6900    6.8139 H         1 <0>         0.1474
     54 H20         2.1378   -5.1222    6.6184 H         1 <0>         0.1335
     55 H21         2.9311   -3.8642    9.8885 H         1 <0>         0.1485
     56 H22         2.1228   -3.5445    8.3351 H         1 <0>         0.1342
     57 H23         0.4209   -4.0196   10.0191 H         1 <0>         0.1362
     58 H24         1.2438   -5.5370   10.4679 H         1 <0>         0.1066
     59 H25         4.9323   -5.6903    7.4857 H         1 <0>         0.1333
     60 H26         4.2560   -4.0494    7.3505 H         1 <0>         0.1286
     61 H27         4.6958   -3.6696    9.7611 H         1 <0>         0.0809
     62 H28         5.3721   -5.3105    9.8963 H         1 <0>         0.0825
     63 H29         6.1943   -4.0886    8.8966 H         1 <0>         0.1077
     64 H30        -0.3454   -5.5297   -1.8903 H         1 <0>         0.0839
     65 H31        -1.8762   -6.1045   -1.1871 H         1 <0>         0.0849
     66 H32        -1.8973   -4.9966   -2.5800 H         1 <0>         0.0846
     67 H33         3.2364   -6.1358    9.1430 H         1 <0>         0.4258
@<TRIPOS>BOND
     1    1    2 1
     2    1   36 1
     3    1   37 1
     4    1   38 1
     5    2    3 1
     6    2   39 1
     7    2   40 1
     8    3    4 1
     9    3   41 1
    10    3   42 1
    11    4    8 1
    12    4    5 2
    13    5    6 1
    14    6    7 2
    15    6   35 1
    16    7   13 1
    17    7    8 1
    18    8    9 1
    19    9   10 2
    20   10   11 1
    21   10   15 1
    22   11   12 1
    23   11   13 am
    24   13   14 2
    25   15   20 ar
    26   15   16 ar
    27   16   17 ar
    28   16   43 1
    29   17   18 ar
    30   17   24 1
    31   18   19 ar
    32   18   44 1
    33   19   20 ar
    34   19   45 1
    35   20   21 1
    36   21   22 1
    37   22   23 1
    38   22   46 1
    39   22   47 1
    40   23   48 1
    41   23   49 1
    42   23   50 1
    43   24   25 2
    44   24   26 2
    45   24   27 1
    46   27   32 1
    47   27   28 1
    48   28   29 1
    49   28   51 1
    50   28   52 1
    51   29   30 1
    52   29   53 1
    53   29   54 1
    54   30   31 1
    55   30   33 1
    56   30   67 1
    57   31   32 1
    58   31   55 1
    59   31   56 1
    60   32   57 1
    61   32   58 1
    62   33   34 1
    63   33   59 1
    64   33   60 1
    65   34   61 1
    66   34   62 1
    67   34   63 1
    68   35   64 1
    69   35   65 1
    70   35   66 1
@<TRIPOS>MOLECULE
ZINC28357928
   67    70     0     0     0
SMALL
USER_CHARGES

@<TRIPOS>ATOM
      1 C1         -0.0187    1.5258    0.0104 C.3       1 <0>        -0.1515
      2 C2          0.0021   -0.0041    0.0020 C.3       1 <0>        -0.1161
      3 C3          0.7421   -0.5109    1.2415 C.3       1 <0>        -0.0382
      4 C4          0.7625   -2.0177    1.2333 C.2       1 <0>         0.2939
      5 N1         -0.1525   -2.7915    1.7685 N.2       1 <0>        -0.4766
      6 C5          0.1725   -4.0715    1.5815 C.2       1 <0>         0.1349
      7 C6          1.3582   -4.0964    0.8901 C.2       1 <0>        -0.1673
      8 N2          1.7153   -2.7766    0.6729 N.pl3     1 <0>        -0.2814
      9 N3          2.8951   -2.4981   -0.0230 N.2       1 <0>        -0.2668
     10 C7          3.6559   -3.4559   -0.4691 C.2       1 <0>         0.4183
     11 N4          3.3508   -4.7896   -0.2869 N.am      1 <0>        -0.6707
     12 H1          3.9457   -5.4717   -0.6359 H         1 <0>         0.4226
     13 C8          2.2333   -5.1521    0.3824 C.2       1 <0>         0.6004
     14 O1          1.9564   -6.3262    0.5467 O.2       1 <0>        -0.4843
     15 C9          4.8914   -3.1020   -1.1980 C.ar      1 <0>        -0.1222
     16 C10         5.7253   -4.1053   -1.6938 C.ar      1 <0>         0.0524
     17 C11         6.8771   -3.7688   -2.3733 C.ar      1 <0>        -0.7180
     18 C12         7.2105   -2.4388   -2.5660 C.ar      1 <0>         0.0501
     19 C13         6.3932   -1.4366   -2.0800 C.ar      1 <0>        -0.2292
     20 C14         5.2290   -1.7581   -1.4000 C.ar      1 <0>         0.2415
     21 O2          4.4221   -0.7740   -0.9267 O.3       1 <0>        -0.2692
     22 C15         4.8308    0.5735   -1.1706 C.3       1 <0>         0.0431
     23 C16         3.8043    1.5347   -0.5679 C.3       1 <0>        -0.1535
     24 S1          7.9293   -5.0365   -2.9982 S.o2      1 <0>         2.6925
     25 O3          9.2244   -4.4650   -3.1219 O.2       1 <0>        -0.9461
     26 O4          7.6794   -6.1949   -2.2141 O.2       1 <0>        -0.9477
     27 N5          7.4171   -5.3850   -4.5340 N.pl3     1 <0>        -0.9966
     28 C17         6.3962   -6.4163   -4.7735 C.3       1 <0>         0.1246
     29 C18         5.2955   -5.8164   -5.6548 C.3       1 <0>         0.0399
     30 N6          5.8993   -5.2468   -6.8669 N.3       1 <0>        -0.5240
     31 C19         6.8084   -4.1402   -6.5398 C.3       1 <0>         0.0359
     32 C20         7.9666   -4.6672   -5.6942 C.3       1 <0>         0.1258
     33 C21         4.8654   -4.8154   -7.8172 C.3       1 <0>         0.0541
     34 C22         5.5180   -4.4629   -9.1554 C.3       1 <0>         0.0791
     35 O5          6.0924   -5.6386   -9.7296 O.3       1 <0>        -0.5585
     36 C23        -0.6161   -5.2693    2.0444 C.3       1 <0>        -0.0791
     37 H2          1.0039    1.9031    0.0027 H         1 <0>         0.0568
     38 H3         -0.5459    1.8868   -0.8726 H         1 <0>         0.0582
     39 H4         -0.5289    1.8773    0.9072 H         1 <0>         0.0592
     40 H5         -1.0205   -0.3814    0.0098 H         1 <0>         0.0698
     41 H6          0.5123   -0.3556   -0.8948 H         1 <0>         0.0616
     42 H7          1.7647   -0.1336    1.2338 H         1 <0>         0.0903
     43 H8          0.2319   -0.1594    2.1383 H         1 <0>         0.1010
     44 H9          5.4690   -5.1439   -1.5453 H         1 <0>         0.1477
     45 H10         8.1145   -2.1835   -3.0989 H         1 <0>         0.1527
     46 H11         6.6594   -0.4013   -2.2340 H         1 <0>         0.1518
     47 H12         5.8041    0.7467   -0.7115 H         1 <0>         0.0707
     48 H13         4.9004    0.7432   -2.2450 H         1 <0>         0.0696
     49 H14         2.8310    1.3615   -1.0270 H         1 <0>         0.0715
     50 H15         3.7346    1.3649    0.5066 H         1 <0>         0.0697
     51 H16         4.1160    2.5625   -0.7539 H         1 <0>         0.0830
     52 H17         6.8484   -7.2682   -5.2814 H         1 <0>         0.0900
     53 H18         5.9699   -6.7372   -3.8230 H         1 <0>         0.0932
     54 H19         4.5871   -6.5965   -5.9335 H         1 <0>         0.0912
     55 H20         4.7758   -5.0322   -5.1044 H         1 <0>         0.0373
     56 H21         7.1971   -3.7046   -7.4603 H         1 <0>         0.0909
     57 H22         6.2675   -3.3794   -5.9770 H         1 <0>         0.0373
     58 H23         8.5781   -3.8322   -5.3521 H         1 <0>         0.0939
     59 H24         8.5726   -5.3477   -6.2923 H         1 <0>         0.0883
     60 H25         4.1477   -5.6225   -7.9644 H         1 <0>         0.0857
     61 H26         4.3512   -3.9395   -7.4218 H         1 <0>         0.0477
     62 H27         4.7646   -4.0591   -9.8318 H         1 <0>         0.0488
     63 H28         6.2980   -3.7188   -8.9944 H         1 <0>         0.0459
     64 H29         6.5246   -5.4894  -10.5817 H         1 <0>         0.3765
     65 H30        -1.3240   -5.5603    1.2683 H         1 <0>         0.0820
     66 H31         0.0643   -6.0971    2.2445 H         1 <0>         0.0840
     67 H32        -1.1590   -5.0170    2.9553 H         1 <0>         0.0816
@<TRIPOS>BOND
     1    1    2 1
     2    1   37 1
     3    1   38 1
     4    1   39 1
     5    2    3 1
     6    2   40 1
     7    2   41 1
     8    3    4 1
     9    3   42 1
    10    3   43 1
    11    4    8 1
    12    4    5 2
    13    5    6 1
    14    6    7 2
    15    6   36 1
    16    7   13 1
    17    7    8 1
    18    8    9 1
    19    9   10 2
    20   10   11 1
    21   10   15 1
    22   11   12 1
    23   11   13 am
    24   13   14 2
    25   15   20 ar
    26   15   16 ar
    27   16   17 ar
    28   16   44 1
    29   17   18 ar
    30   17   24 1
    31   18   19 ar
    32   18   45 1
    33   19   20 ar
    34   19   46 1
    35   20   21 1
    36   21   22 1
    37   22   23 1
    38   22   47 1
    39   22   48 1
    40   23   49 1
    41   23   50 1
    42   23   51 1
    43   24   25 2
    44   24   26 2
    45   24   27 1
    46   27   32 1
    47   27   28 1
    48   28   29 1
    49   28   52 1
    50   28   53 1
    51   29   30 1
    52   29   54 1
    53   29   55 1
    54   30   31 1
    55   30   33 1
    56   31   32 1
    57   31   56 1
    58   31   57 1
    59   32   58 1
    60   32   59 1
    61   33   34 1
    62   33   60 1
    63   33   61 1
    64   34   35 1
    65   34   62 1
    66   34   63 1
    67   35   64 1
    68   36   65 1
    69   36   66 1
    70   36   67 1
@<TRIPOS>MOLECULE
ZINC28357928
   66    69     0     0     0
SMALL
USER_CHARGES

@<TRIPOS>ATOM
      1 C1         -0.0187    1.5258    0.0104 C.3       1 <0>        -0.1472
      2 C2          0.0021   -0.0041    0.0020 C.3       1 <0>        -0.1154
      3 C3         -1.4333   -0.5336    0.0129 C.3       1 <0>        -0.0178
      4 C4         -1.4129   -2.0405    0.0046 C.2       1 <0>         0.2124
      5 N1         -1.4071   -2.7931   -1.0712 N.2       1 <0>        -0.4897
      6 C5         -1.3882   -4.0792   -0.7236 C.2       1 <0>         0.0658
      7 C6         -1.3817   -4.1334    0.6527 C.2       1 <0>        -0.1330
      8 N2         -1.3919   -2.8203    1.0938 N.pl3     1 <0>        -0.2436
      9 N3         -1.3825   -2.5794    2.4721 N.2       1 <0>        -0.3806
     10 C7         -1.3611   -3.5896    3.3115 C.2       1 <0>         0.3856
     11 N4         -1.3477   -4.8635    2.8932 N.2       1 <0>        -0.6633
     12 C8         -1.3637   -5.1706    1.6102 C.2       1 <0>         0.5160
     13 O1         -1.3482   -6.4650    1.2164 O.3       1 <0>        -0.6441
     14 C9         -1.3510   -3.3124    4.7674 C.ar      1 <0>        -0.0695
     15 C10        -1.3226   -4.3652    5.6804 C.ar      1 <0>         0.0724
     16 C11        -1.3133   -4.1018    7.0345 C.ar      1 <0>        -0.7300
     17 C12        -1.3321   -2.7951    7.4910 C.ar      1 <0>         0.0272
     18 C13        -1.3608   -1.7438    6.5951 C.ar      1 <0>        -0.2429
     19 C14        -1.3641   -1.9932    5.2316 C.ar      1 <0>         0.2181
     20 O2         -1.3862   -0.9606    4.3499 O.3       1 <0>        -0.2614
     21 C15        -1.3985    0.3595    4.8970 C.3       1 <0>         0.0449
     22 C16        -1.4229    1.3826    3.7597 C.3       1 <0>        -0.1490
     23 S1         -1.2780   -5.4337    8.1875 S.o2      1 <0>         2.6954
     24 O3         -1.8252   -4.9355    9.4005 O.2       1 <0>        -0.9615
     25 O4         -1.8158   -6.5654    7.5173 O.2       1 <0>        -0.9470
     26 N5          0.3135   -5.7760    8.4916 N.pl3     1 <0>        -0.9990
     27 C17         1.0454   -6.7536    7.6720 C.3       1 <0>         0.1262
     28 C18         2.3494   -6.1074    7.1922 C.3       1 <0>         0.0391
     29 N6          3.0902   -5.5890    8.3500 N.3       1 <0>        -0.5244
     30 C19         2.3371   -4.5289    9.0333 C.3       1 <0>         0.0354
     31 C20         1.0342   -5.1059    9.5847 C.3       1 <0>         0.1290
     32 C21         4.4231   -5.1157    7.9532 C.3       1 <0>         0.0527
     33 C22         5.2521   -4.8186    9.2044 C.3       1 <0>         0.0805
     34 O5          5.4804   -6.0320    9.9238 O.3       1 <0>        -0.5575
     35 C23        -1.3761   -5.2575   -1.6630 C.3       1 <0>        -0.0571
     36 H1          1.0039    1.9031    0.0027 H         1 <0>         0.0513
     37 H2         -0.5459    1.8868   -0.8726 H         1 <0>         0.0538
     38 H3         -0.5289    1.8773    0.9072 H         1 <0>         0.0536
     39 H4          0.5123   -0.3556   -0.8948 H         1 <0>         0.0637
     40 H5          0.5293   -0.3651    0.8851 H         1 <0>         0.0604
     41 H6         -1.9435   -0.1821    0.9097 H         1 <0>         0.0786
     42 H7         -1.9605   -0.1726   -0.8702 H         1 <0>         0.0831
     43 H8         -1.3082   -5.3860    5.3281 H         1 <0>         0.1638
     44 H9         -1.3247   -2.5965    8.5525 H         1 <0>         0.1395
     45 H10        -1.3757   -0.7265    6.9575 H         1 <0>         0.1383
     46 H11        -2.2844    0.4866    5.5191 H         1 <0>         0.0614
     47 H12        -0.5047    0.5103    5.5023 H         1 <0>         0.0603
     48 H13        -0.5370    1.2555    3.1375 H         1 <0>         0.0691
     49 H14        -2.3167    1.2318    3.1543 H         1 <0>         0.0680
     50 H15        -1.4323    2.3896    4.1770 H         1 <0>         0.0740
     51 H16         1.2725   -7.6360    8.2702 H         1 <0>         0.0840
     52 H17         0.4391   -7.0371    6.8117 H         1 <0>         0.0995
     53 H18         2.9558   -6.8517    6.6760 H         1 <0>         0.0897
     54 H19         2.1202   -5.2882    6.5106 H         1 <0>         0.0430
     55 H20         2.9344   -4.1285    9.8524 H         1 <0>         0.0859
     56 H21         2.1080   -3.7317    8.3261 H         1 <0>         0.0391
     57 H22         0.4205   -4.3006    9.9884 H         1 <0>         0.0909
     58 H23         1.2602   -5.8269   10.3703 H         1 <0>         0.0822
     59 H24         4.9205   -5.8846    7.3620 H         1 <0>         0.0846
     60 H25         4.3241   -4.2075    7.3587 H         1 <0>         0.0483
     61 H26         6.2081   -4.3841    8.9121 H         1 <0>         0.0464
     62 H27         4.7125   -4.1158    9.8392 H         1 <0>         0.0455
     63 H28         6.0010   -5.9187   10.7308 H         1 <0>         0.3726
     64 H29        -0.3456   -5.5279   -1.8935 H         1 <0>         0.0620
     65 H30        -1.8769   -6.1032   -1.1917 H         1 <0>         0.0807
     66 H31        -1.8970   -4.9937   -2.5834 H         1 <0>         0.0597
@<TRIPOS>BOND
     1    1    2 1
     2    1   36 1
     3    1   37 1
     4    1   38 1
     5    2    3 1
     6    2   39 1
     7    2   40 1
     8    3    4 1
     9    3   41 1
    10    3   42 1
    11    4    8 1
    12    4    5 2
    13    5    6 1
    14    6    7 2
    15    6   35 1
    16    7   12 1
    17    7    8 1
    18    8    9 1
    19    9   10 2
    20   10   11 1
    21   10   14 1
    22   11   12 2
    23   12   13 1
    24   14   19 ar
    25   14   15 ar
    26   15   16 ar
    27   15   43 1
    28   16   17 ar
    29   16   23 1
    30   17   18 ar
    31   17   44 1
    32   18   19 ar
    33   18   45 1
    34   19   20 1
    35   20   21 1
    36   21   22 1
    37   21   46 1
    38   21   47 1
    39   22   48 1
    40   22   49 1
    41   22   50 1
    42   23   24 2
    43   23   25 2
    44   23   26 1
    45   26   31 1
    46   26   27 1
    47   27   28 1
    48   27   51 1
    49   27   52 1
    50   28   29 1
    51   28   53 1
    52   28   54 1
    53   29   30 1
    54   29   32 1
    55   30   31 1
    56   30   55 1
    57   30   56 1
    58   31   57 1
    59   31   58 1
    60   32   33 1
    61   32   59 1
    62   32   60 1
    63   33   34 1
    64   33   61 1
    65   33   62 1
    66   34   63 1
    67   35   64 1
    68   35   65 1
    69   35   66 1
@<TRIPOS>MOLECULE
ZINC01491100
   62    66     0     0     0
SMALL
USER_CHARGES
chloro-[4-(4-methylpiperazin-1-yl)carbonylphenyl]-BLAHone
@<TRIPOS>ATOM
      1 C1         -3.8501    0.9594   -2.4507 C.3       1 <0>        -0.0422
      2 C2         -1.8710    0.2838   -1.2304 C.3       1 <0>        -0.0149
      3 C3         -0.8071    0.7741   -0.2425 C.3       1 <0>         0.0864
      4 N1         -1.4732    1.1789    1.0048 N.am      1 <0>        -0.6312
      5 C4         -2.6133    2.1048    0.9152 C.3       1 <0>         0.0732
      6 C5         -3.6061    1.5621   -0.1183 C.3       1 <0>        -0.0172
      7 C6         -1.0535    0.7103    2.1967 C.2       1 <0>         0.5741
      8 O1         -0.1824   -0.1364    2.2444 O.2       1 <0>        -0.5022
      9 C7         -1.6517    1.2254    3.4447 C.ar      1 <0>        -0.1508
     10 C8         -1.9516    2.5848    3.5672 C.ar      1 <0>        -0.0895
     11 C9         -2.5140    3.0629    4.7288 C.ar      1 <0>        -0.1183
     12 C10        -2.7749    2.1926    5.7880 C.ar      1 <0>         0.0068
     13 C11        -2.4704    0.8359    5.6688 C.ar      1 <0>        -0.1145
     14 C12        -1.9129    0.3549    4.5061 C.ar      1 <0>        -0.0504
     15 C13        -3.3753    2.7095    7.0404 C.ar      1 <0>        -0.0824
     16 C14        -3.6811    4.0669    7.1626 C.ar      1 <0>        -0.0415
     17 C15        -4.2374    4.5359    8.3266 C.ar      1 <0>        -0.1154
     18 C16        -4.4998    3.6731    9.3888 C.ar      1 <0>         0.2038
     19 C17        -4.1956    2.3215    9.2674 C.ar      1 <0>        -0.0811
     20 C18        -3.6420    1.8412    8.0987 C.ar      1 <0>        -0.0497
     21 Cl1        -4.5187    1.2375   10.5843 Cl        1 <0>        -0.0433
     22 N2         -5.0633    4.1725   10.5623 N.am      1 <0>        -0.6591
     23 C19        -5.3740    5.4636   10.7340 C.2       1 <0>         0.7078
     24 O2         -5.8606    5.8073   11.7939 O.2       1 <0>        -0.5633
     25 N3         -5.1717    6.3987    9.7864 N.am      1 <0>        -0.7095
     26 C20        -4.5840    5.9939    8.5017 C.3       1 <0>         0.2104
     27 C21        -5.5676    6.3754    7.3998 C.3       1 <0>        -0.1240
     28 C22        -5.9090    7.8630    7.5026 C.3       1 <0>        -0.1246
     29 C23        -4.6338    8.6909    7.3267 C.3       1 <0>        -0.1229
     30 C24        -3.6233    8.2993    8.4073 C.3       1 <0>        -0.1250
     31 C25        -3.3100    6.8060    8.2939 C.3       1 <0>        -0.1255
     32 H1         -4.3346    0.0145   -2.2046 H         1 <0>         0.1236
     33 H2         -4.6042    1.7409   -2.5440 H         1 <0>         0.1241
     34 H3         -3.3135    0.8578   -3.3939 H         1 <0>         0.1242
     35 H4         -1.4066    0.0861   -2.1965 H         1 <0>         0.1435
     36 H5         -2.3252   -0.6316   -0.8511 H         1 <0>         0.1354
     37 H6         -0.1007   -0.0300   -0.0361 H         1 <0>         0.1373
     38 H7         -0.2774    1.6265   -0.6680 H         1 <0>         0.0970
     39 H8         -2.2596    3.0872    0.6024 H         1 <0>         0.0987
     40 H9         -3.1021    2.1838    1.8862 H         1 <0>         0.1396
     41 H10        -4.4001    2.2915   -0.2779 H         1 <0>         0.1439
     42 H11        -4.0369    0.6292    0.2455 H         1 <0>         0.1357
     43 H12        -1.7457    3.2592    2.7492 H         1 <0>         0.1319
     44 H13        -2.7494    4.1128    4.8222 H         1 <0>         0.1370
     45 H14        -2.6721    0.1633    6.4894 H         1 <0>         0.1392
     46 H15        -1.6770   -0.6951    4.4142 H         1 <0>         0.1376
     47 H16        -3.4806    4.7441    6.3456 H         1 <0>         0.1430
     48 H17        -3.4105    0.7905    8.0046 H         1 <0>         0.1466
     49 H18        -5.2390    3.5548   11.2892 H         1 <0>         0.4278
     50 H19        -5.4097    7.3249    9.9493 H         1 <0>         0.4320
     51 H20        -5.1187    6.1729    6.4274 H         1 <0>         0.0770
     52 H21        -6.4784    5.7863    7.5072 H         1 <0>         0.0700
     53 H22        -6.3444    8.0693    8.4804 H         1 <0>         0.0650
     54 H23        -6.6240    8.1266    6.7232 H         1 <0>         0.0722
     55 H24        -4.8724    9.7505    7.4186 H         1 <0>         0.0691
     56 H25        -4.2074    8.4975    6.3424 H         1 <0>         0.0654
     57 H26        -4.0434    8.5088    9.3909 H         1 <0>         0.0649
     58 H27        -2.7069    8.8741    8.2733 H         1 <0>         0.0732
     59 H28        -2.5771    6.5309    9.0525 H         1 <0>         0.0710
     60 H29        -2.9037    6.5960    7.3045 H         1 <0>         0.0778
     61 N4         -2.8908    1.3425   -1.3942 N.4       1 <0>        -0.3973
     62 H30        -2.4238    2.2149   -1.6683 H         1 <0>         0.4298
@<TRIPOS>BOND
     1    1   32 1
     2    1   33 1
     3    1   34 1
     4    1   61 1
     5    2    3 1
     6    2   35 1
     7    2   36 1
     8    2   61 1
     9    3    4 1
    10    3   37 1
    11    3   38 1
    12    4    5 1
    13    4    7 am
    14    5    6 1
    15    5   39 1
    16    5   40 1
    17    6   41 1
    18    6   42 1
    19    6   61 1
    20    7    8 2
    21    7    9 1
    22    9   14 ar
    23    9   10 ar
    24   10   11 ar
    25   10   43 1
    26   11   12 ar
    27   11   44 1
    28   12   13 ar
    29   12   15 1
    30   13   14 ar
    31   13   45 1
    32   14   46 1
    33   15   20 ar
    34   15   16 ar
    35   16   17 ar
    36   16   47 1
    37   17   26 1
    38   17   18 ar
    39   18   19 ar
    40   18   22 1
    41   19   20 ar
    42   19   21 1
    43   20   48 1
    44   22   23 am
    45   22   49 1
    46   23   24 2
    47   23   25 am
    48   25   26 1
    49   25   50 1
    50   26   31 1
    51   26   27 1
    52   27   28 1
    53   27   51 1
    54   27   52 1
    55   28   29 1
    56   28   53 1
    57   28   54 1
    58   29   30 1
    59   29   55 1
    60   29   56 1
    61   30   31 1
    62   30   57 1
    63   30   58 1
    64   31   59 1
    65   31   60 1
    66   61   62 1
@<TRIPOS>MOLECULE
ZINC08379230
   44    47     0     0     0
SMALL
USER_CHARGES
4-(chloro-oxo-BLAHyl)benzoic acid
@<TRIPOS>ATOM
      1 C1          4.5946    5.7153    0.0151 C.ar      1 <0>        -0.1215
      2 C2          5.7109    6.5200    0.0077 C.ar      1 <0>        -0.0769
      3 C3          5.5695    7.9107    0.0196 C.ar      1 <0>        -0.1006
      4 C4          4.2938    8.4823    0.0330 C.ar      1 <0>        -0.0853
      5 C5          3.1790    7.6756    0.0346 C.ar      1 <0>        -0.1209
      6 C6          3.3215    6.2872    0.0228 C.ar      1 <0>        -0.0649
      7 C7          2.1202    5.4197    0.0246 C.ar      1 <0>        -0.0297
      8 C8          2.2595    4.0298    0.0122 C.ar      1 <0>        -0.0582
      9 C9          1.1407    3.2346    0.0131 C.ar      1 <0>        -0.1113
     10 C10        -0.1336    3.7983    0.0271 C.ar      1 <0>         0.1716
     11 C11        -0.2728    5.1820    0.0392 C.ar      1 <0>        -0.0704
     12 C12         0.8466    5.9881    0.0380 C.ar      1 <0>        -0.0689
     13 Cl1        -1.8556    5.8950    0.0552 Cl        1 <0>        -0.0606
     14 N1         -1.2557    2.9709    0.0300 N.am      1 <0>        -0.6597
     15 C13        -1.1803    1.6340    0.0164 C.2       1 <0>         0.7101
     16 O1         -2.2143    0.9944    0.0174 O.2       1 <0>        -0.5819
     17 N2         -0.0111    0.9658    0.0074 N.am      1 <0>        -0.7102
     18 C14         1.2446    1.7295   -0.0005 C.3       1 <0>         0.2134
     19 C15         2.0262    1.3264   -1.2470 C.3       1 <0>        -0.1279
     20 C16         2.2018   -0.1931   -1.2785 C.3       1 <0>        -0.1215
     21 C17         2.9877   -0.6398   -0.0436 C.3       1 <0>        -0.1240
     22 C18         2.2334   -0.2153    1.2184 C.3       1 <0>        -0.1216
     23 C19         2.0565    1.3045    1.2186 C.3       1 <0>        -0.1275
     24 C20         6.7656    8.7745    0.0183 C.2       1 <0>         0.4856
     25 O2          6.6420    9.9831    0.0290 O.co2     1 <0>        -0.6288
     26 H1          4.7037    4.6408    0.0105 H         1 <0>         0.1192
     27 H2          6.6959    6.0772   -0.0027 H         1 <0>         0.1342
     28 H3          4.1832    9.5566    0.0425 H         1 <0>         0.1304
     29 H4          2.1933    8.1169    0.0454 H         1 <0>         0.1198
     30 H5          3.2427    3.5830    0.0017 H         1 <0>         0.1435
     31 H6          0.7365    7.0624    0.0471 H         1 <0>         0.1457
     32 H7         -2.1335    3.3836    0.0386 H         1 <0>         0.4233
     33 H8          0.0021   -0.0041    0.0020 H         1 <0>         0.4277
     34 H9          1.4820    1.6469   -2.1355 H         1 <0>         0.0694
     35 H10         3.0057    1.8043   -1.2310 H         1 <0>         0.0822
     36 H11         2.7467   -0.4775   -2.1787 H         1 <0>         0.0703
     37 H12         1.2228   -0.6723   -1.2793 H         1 <0>         0.0611
     38 H13         3.9734   -0.1746   -0.0519 H         1 <0>         0.0686
     39 H14         3.0969   -1.7242   -0.0546 H         1 <0>         0.0650
     40 H15         2.8009   -0.5152    2.0993 H         1 <0>         0.0704
     41 H16         1.2548   -0.6951    1.2357 H         1 <0>         0.0611
     42 H17         3.0352    1.7833    1.1872 H         1 <0>         0.0823
     43 H18         1.5337    1.6075    2.1258 H         1 <0>         0.0696
     44 O3          7.9949    8.2230    0.0053 O.co2     1 <0>        -0.7520
@<TRIPOS>BOND
     1    1    6 ar
     2    1    2 ar
     3    1   26 1
     4    2    3 ar
     5    2   27 1
     6    3    4 ar
     7    3   24 1
     8    4    5 ar
     9    4   28 1
    10    5    6 ar
    11    5   29 1
    12    6    7 1
    13    7   12 ar
    14    7    8 ar
    15    8    9 ar
    16    8   30 1
    17    9   18 1
    18    9   10 ar
    19   10   11 ar
    20   10   14 1
    21   11   12 ar
    22   11   13 1
    23   12   31 1
    24   14   15 am
    25   14   32 1
    26   15   16 2
    27   15   17 am
    28   17   18 1
    29   17   33 1
    30   18   23 1
    31   18   19 1
    32   19   20 1
    33   19   34 1
    34   19   35 1
    35   20   21 1
    36   20   36 1
    37   20   37 1
    38   21   22 1
    39   21   38 1
    40   21   39 1
    41   22   23 1
    42   22   40 1
    43   22   41 1
    44   23   42 1
    45   23   43 1
    46   24   25 2
    47   24   44 1
@<TRIPOS>MOLECULE
ZINC19796168
   63    66     0     0     0
SMALL
USER_CHARGES

@<TRIPOS>ATOM
      1 C1         -0.0187    1.5258    0.0104 C.3       1 <0>        -0.1516
      2 C2          0.0021   -0.0041    0.0020 C.3       1 <0>        -0.1160
      3 C3          0.7182   -0.4975   -1.2568 C.3       1 <0>        -0.0368
      4 C4          0.7386   -2.0043   -1.2651 C.2       1 <0>         0.1083
      5 C5          1.7436   -2.8145   -0.7017 C.2       1 <0>         0.0436
      6 C6          1.3716   -4.1454   -0.9309 C.2       1 <0>        -0.0357
      7 C7          2.2155   -5.1793   -0.4631 C.2       1 <0>         0.5719
      8 O1          1.9272   -6.3498   -0.6430 O.2       1 <0>        -0.5217
      9 N1          3.3497   -4.8379    0.1877 N.am      1 <0>        -0.6330
     10 H1          3.9439   -5.5300    0.5176 H         1 <0>         0.4219
     11 C8          3.6639   -3.5203    0.3833 C.2       1 <0>         0.3994
     12 N2          2.8908   -2.5515   -0.0437 N.2       1 <0>        -0.4298
     13 C9          4.9101   -3.1798    1.0980 C.ar      1 <0>        -0.1126
     14 C10         5.7536   -4.1922    1.5597 C.ar      1 <0>         0.0399
     15 C11         6.9158   -3.8678    2.2265 C.ar      1 <0>        -0.7185
     16 C12         7.2508   -2.5412    2.4411 C.ar      1 <0>         0.0430
     17 C13         6.4250   -1.5305    1.9894 C.ar      1 <0>        -0.2315
     18 C14         5.2556   -1.8391    1.3116 C.ar      1 <0>         0.2415
     19 O2          4.4461   -0.8467    0.8623 O.3       1 <0>        -0.2578
     20 C15         4.8632    0.4961    1.1168 C.3       1 <0>         0.0414
     21 C16         3.8319    1.4685    0.5407 C.3       1 <0>        -0.1519
     22 S1          7.9793   -5.1464    2.8085 S.o2      1 <0>         2.6926
     23 O3          8.7312   -4.5930    3.8798 O.2       1 <0>        -0.9482
     24 O4          7.1730   -6.3063    2.9631 O.2       1 <0>        -0.9501
     25 N3          9.0568   -5.4772    1.5953 N.pl3     1 <0>        -0.9979
     26 C17         8.7556   -6.4921    0.5742 C.3       1 <0>         0.1239
     27 C18         8.9742   -5.8704   -0.8093 C.3       1 <0>         0.0382
     28 N4         10.3268   -5.3015   -0.8788 N.3       1 <0>        -0.5395
     29 C19        10.4964   -4.2104    0.0900 C.3       1 <0>         0.0386
     30 C20        10.3376   -4.7598    1.5068 C.3       1 <0>         0.1243
     31 C21        10.6381   -4.8489   -2.2412 C.3       1 <0>         0.0245
     32 N5          0.1842   -4.1164   -1.6082 N.pl3     1 <0>        -0.3299
     33 N6         -0.1751   -2.7746   -1.7907 N.2       1 <0>        -0.2328
     34 C22        -0.5794   -5.2824   -2.0596 C.3       1 <0>         0.0994
     35 H2          1.0039    1.9031    0.0027 H         1 <0>         0.0577
     36 H3         -0.5459    1.8868   -0.8726 H         1 <0>         0.0559
     37 H4         -0.5289    1.8773    0.9072 H         1 <0>         0.0565
     38 H5          0.5293   -0.3651    0.8851 H         1 <0>         0.0665
     39 H6         -1.0205   -0.3814    0.0098 H         1 <0>         0.0628
     40 H7          0.1910   -0.1364   -2.1398 H         1 <0>         0.0831
     41 H8          1.7408   -0.1202   -1.2645 H         1 <0>         0.0935
     42 H9          5.4957   -5.2279    1.3950 H         1 <0>         0.1438
     43 H10         8.1628   -2.2958    2.9650 H         1 <0>         0.1492
     44 H11         6.6926   -0.4983    2.1608 H         1 <0>         0.1488
     45 H12         4.9489    0.6524    2.1922 H         1 <0>         0.0678
     46 H13         5.8306    0.6715    0.6460 H         1 <0>         0.0666
     47 H14         3.7463    1.3123   -0.5346 H         1 <0>         0.0692
     48 H15         2.8646    1.2931    1.0115 H         1 <0>         0.0720
     49 H16         4.1502    2.4927    0.7349 H         1 <0>         0.0796
     50 H17         9.4199   -7.3470    0.7005 H         1 <0>         0.0879
     51 H18         7.7185   -6.8131    0.6717 H         1 <0>         0.0935
     52 H19         8.8627   -6.6382   -1.5748 H         1 <0>         0.0901
     53 H20         8.2393   -5.0824   -0.9741 H         1 <0>         0.0394
     54 H21        11.4890   -3.7744   -0.0233 H         1 <0>         0.0905
     55 H22         9.7403   -3.4456   -0.0874 H         1 <0>         0.0393
     56 H23        10.3460   -3.9360    2.2206 H         1 <0>         0.0948
     57 H24        11.1569   -5.4449    1.7245 H         1 <0>         0.0867
     58 H25         9.9216   -4.0848   -2.5429 H         1 <0>         0.0257
     59 H26        11.6450   -4.4322   -2.2645 H         1 <0>         0.0713
     60 H27        10.5786   -5.6939   -2.9273 H         1 <0>         0.0713
     61 H28        -1.2781   -5.5834   -1.2791 H         1 <0>         0.0824
     62 H29        -1.1323   -5.0268   -2.9634 H         1 <0>         0.0965
     63 H30         0.1042   -6.1043   -2.2721 H         1 <0>         0.1003
@<TRIPOS>BOND
     1    1    2 1
     2    1   35 1
     3    1   36 1
     4    1   37 1
     5    2    3 1
     6    2   38 1
     7    2   39 1
     8    3    4 1
     9    3   40 1
    10    3   41 1
    11    4   33 2
    12    4    5 1
    13    5   12 1
    14    5    6 2
    15    6    7 1
    16    6   32 1
    17    7    8 2
    18    7    9 am
    19    9   10 1
    20    9   11 1
    21   11   12 2
    22   11   13 1
    23   13   18 ar
    24   13   14 ar
    25   14   15 ar
    26   14   42 1
    27   15   16 ar
    28   15   22 1
    29   16   17 ar
    30   16   43 1
    31   17   18 ar
    32   17   44 1
    33   18   19 1
    34   19   20 1
    35   20   21 1
    36   20   45 1
    37   20   46 1
    38   21   47 1
    39   21   48 1
    40   21   49 1
    41   22   23 2
    42   22   24 2
    43   22   25 1
    44   25   30 1
    45   25   26 1
    46   26   27 1
    47   26   50 1
    48   26   51 1
    49   27   28 1
    50   27   52 1
    51   27   53 1
    52   28   29 1
    53   28   31 1
    54   29   30 1
    55   29   54 1
    56   29   55 1
    57   30   56 1
    58   30   57 1
    59   31   58 1
    60   31   59 1
    61   31   60 1
    62   32   33 1
    63   32   34 1
    64   34   61 1
    65   34   62 1
    66   34   63 1
@<TRIPOS>MOLECULE
ZINC19796168
   63    66     0     0     0
SMALL
USER_CHARGES

@<TRIPOS>ATOM
      1 C1         -0.0187    1.5258    0.0104 C.3       1 <0>        -0.1539
      2 C2          0.0021   -0.0041    0.0020 C.3       1 <0>        -0.1188
      3 C3          0.7182   -0.4975   -1.2568 C.3       1 <0>        -0.0455
      4 C4          0.7386   -2.0043   -1.2651 C.2       1 <0>         0.0795
      5 C5          1.7371   -2.8090   -0.7054 C.2       1 <0>         0.0226
      6 C6          1.3740   -4.1350   -0.9304 C.2       1 <0>        -0.0270
      7 C7          2.2608   -5.1909   -0.4384 C.2       1 <0>         0.5560
      8 O1          1.9844   -6.3672   -0.6123 O.2       1 <0>        -0.4907
      9 N1          3.3842   -4.8398    0.2075 N.2       1 <0>        -0.5489
     10 C8          3.6977   -3.5767    0.4033 C.2       1 <0>         0.4949
     11 N2          2.9154   -2.5523   -0.0295 N.pl3     1 <0>        -0.5912
     12 C9          4.9471   -3.2598    1.1207 C.ar      1 <0>        -0.1387
     13 C10         5.3072   -1.9297    1.3507 C.ar      1 <0>         0.0502
     14 C11         6.4754   -1.6404    2.0219 C.ar      1 <0>        -0.7241
     15 C12         7.2958   -2.6630    2.4697 C.ar      1 <0>         0.0516
     16 C13         6.9520   -3.9820    2.2486 C.ar      1 <0>        -0.2347
     17 C14         5.7769   -4.2915    1.5805 C.ar      1 <0>         0.2542
     18 O2          5.4349   -5.5872    1.3679 O.3       1 <0>        -0.2513
     19 C15         6.3296   -6.5843    1.8652 C.3       1 <0>         0.0415
     20 C16         5.7806   -7.9733    1.5332 C.3       1 <0>        -0.1498
     21 S1          6.9282    0.0377    2.3112 S.o2      1 <0>         2.6935
     22 O3          8.3389    0.0542    2.4813 O.2       1 <0>        -0.9470
     23 O4          6.2716    0.8126    1.3174 O.2       1 <0>        -0.9501
     24 N3          6.2708    0.4783    3.7659 N.pl3     1 <0>        -0.9978
     25 C17         4.9211    1.0580    3.8397 C.3       1 <0>         0.1243
     26 C18         4.1139    0.2804    4.8848 C.3       1 <0>         0.0380
     27 N4          4.8523    0.2619    6.1546 N.3       1 <0>        -0.5392
     28 C19         6.1314   -0.4472    6.0169 C.3       1 <0>         0.0382
     29 C20         7.0189    0.2948    5.0189 C.3       1 <0>         0.1242
     30 C21         4.0386   -0.3238    7.2283 C.3       1 <0>         0.0243
     31 N5          0.1890   -4.1166   -1.6070 N.pl3     1 <0>        -0.3265
     32 N6         -0.1769   -2.7759   -1.7917 N.2       1 <0>        -0.2363
     33 C22        -0.5677   -5.2881   -2.0556 C.3       1 <0>         0.1018
     34 H1          1.0039    1.9031    0.0027 H         1 <0>         0.0587
     35 H2         -0.5459    1.8868   -0.8726 H         1 <0>         0.0584
     36 H3         -0.5289    1.8773    0.9072 H         1 <0>         0.0590
     37 H4          0.5293   -0.3651    0.8851 H         1 <0>         0.0617
     38 H5         -1.0205   -0.3814    0.0098 H         1 <0>         0.0685
     39 H6          0.1910   -0.1364   -2.1398 H         1 <0>         0.0924
     40 H7          1.7408   -0.1202   -1.2645 H         1 <0>         0.0851
     41 H8          4.6710   -1.1293    1.0027 H         1 <0>         0.1448
     42 H9          8.2097   -2.4272    2.9946 H         1 <0>         0.1511
     43 H10         7.5970   -4.7736    2.6002 H         1 <0>         0.1511
     44 H11         7.3075   -6.4595    1.4002 H         1 <0>         0.0690
     45 H12         6.4252   -6.4802    2.9460 H         1 <0>         0.0679
     46 H13         6.4630   -8.7339    1.9125 H         1 <0>         0.0796
     47 H14         4.8027   -8.0982    1.9981 H         1 <0>         0.0699
     48 H15         5.6850   -8.0774    0.4524 H         1 <0>         0.0705
     49 H16         4.9880    2.1054    4.1338 H         1 <0>         0.0882
     50 H17         4.4346    0.9780    2.8676 H         1 <0>         0.0929
     51 H18         3.1485    0.7644    5.0325 H         1 <0>         0.0901
     52 H19         3.9598   -0.7416    4.5387 H         1 <0>         0.0392
     53 H20         6.6291   -0.4910    6.9857 H         1 <0>         0.0908
     54 H21         5.9492   -1.4591    5.6551 H         1 <0>         0.0394
     55 H22         7.9186   -0.2894    4.8260 H         1 <0>         0.0949
     56 H23         7.2913    1.2675    5.4285 H         1 <0>         0.0873
     57 H24         3.7712   -1.3470    6.9645 H         1 <0>         0.0259
     58 H25         4.6091   -0.3253    8.1570 H         1 <0>         0.0715
     59 H26         3.1316    0.2663    7.3599 H         1 <0>         0.0715
     60 H27        -1.2651   -5.5910   -1.2745 H         1 <0>         0.0826
     61 H28        -1.1218   -5.0381   -2.9604 H         1 <0>         0.0959
     62 H29         0.1207   -6.1067   -2.2656 H         1 <0>         0.1018
     63 H30         3.1857   -1.6357    0.1370 H         1 <0>         0.4171
@<TRIPOS>BOND
     1    1    2 1
     2    1   34 1
     3    1   35 1
     4    1   36 1
     5    2    3 1
     6    2   37 1
     7    2   38 1
     8    3    4 1
     9    3   39 1
    10    3   40 1
    11    4   32 2
    12    4    5 1
    13    5   11 1
    14    5    6 2
    15    6    7 1
    16    6   31 1
    17    7    8 2
    18    7    9 1
    19    9   10 2
    20   10   11 1
    21   10   12 1
    22   11   63 1
    23   12   17 ar
    24   12   13 ar
    25   13   14 ar
    26   13   41 1
    27   14   15 ar
    28   14   21 1
    29   15   16 ar
    30   15   42 1
    31   16   17 ar
    32   16   43 1
    33   17   18 1
    34   18   19 1
    35   19   20 1
    36   19   44 1
    37   19   45 1
    38   20   46 1
    39   20   47 1
    40   20   48 1
    41   21   22 2
    42   21   23 2
    43   21   24 1
    44   24   29 1
    45   24   25 1
    46   25   26 1
    47   25   49 1
    48   25   50 1
    49   26   27 1
    50   26   51 1
    51   26   52 1
    52   27   28 1
    53   27   30 1
    54   28   29 1
    55   28   53 1
    56   28   54 1
    57   29   55 1
    58   29   56 1
    59   30   57 1
    60   30   58 1
    61   30   59 1
    62   31   32 1
    63   31   33 1
    64   33   60 1
    65   33   61 1
    66   33   62 1
@<TRIPOS>MOLECULE
ZINC19796168
   62    65     0     0     0
SMALL
USER_CHARGES

@<TRIPOS>ATOM
      1 C1         -0.0187    1.5258    0.0104 C.3       1 <0>        -0.1485
      2 C2          0.0021   -0.0041    0.0020 C.3       1 <0>        -0.1148
      3 C3         -1.4333   -0.5336    0.0129 C.3       1 <0>        -0.0265
      4 C4         -1.4129   -2.0405    0.0046 C.2       1 <0>         0.0755
      5 C5         -1.4070   -2.8569   -1.1475 C.ar      1 <0>         0.0668
      6 C6         -1.3869   -4.1920   -0.7014 C.ar      1 <0>        -0.0515
      7 C7         -1.3777   -5.2165   -1.6565 C.ar      1 <0>         0.4648
      8 O1         -1.3588   -6.5164   -1.2751 O.3       1 <0>        -0.6909
      9 N1         -1.3884   -4.8893   -2.9402 N.ar      1 <0>        -0.5725
     10 C8         -1.4074   -3.6162   -3.3266 C.ar      1 <0>         0.3612
     11 N2         -1.4163   -2.6161   -2.4630 N.ar      1 <0>        -0.5554
     12 C9         -1.4186   -3.3091   -4.7764 C.ar      1 <0>        -0.0636
     13 C10        -1.4328   -1.9850   -5.2116 C.ar      1 <0>         0.0543
     14 C11        -1.4432   -1.7045   -6.5622 C.ar      1 <0>        -0.7317
     15 C12        -1.4396   -2.7334   -7.4883 C.ar      1 <0>         0.0205
     16 C13        -1.4256   -4.0494   -7.0685 C.ar      1 <0>        -0.2451
     17 C14        -1.4092   -4.3463   -5.7145 C.ar      1 <0>         0.2216
     18 O2         -1.3897   -5.6394   -5.3005 O.3       1 <0>        -0.2427
     19 C15        -1.3811   -6.6454   -6.3153 C.3       1 <0>         0.0442
     20 C16        -1.3591   -8.0288   -5.6620 C.3       1 <0>        -0.1464
     21 S1         -1.4617   -0.0302   -7.1108 S.o2      1 <0>         2.6962
     22 O3         -2.0201   -0.0370   -8.4174 O.2       1 <0>        -0.9629
     23 O4         -2.0135    0.7385   -6.0505 O.2       1 <0>        -0.9522
     24 N3          0.1150    0.4496   -7.2724 N.pl3     1 <0>        -1.0004
     25 C17         0.8390    1.0557   -6.1447 C.3       1 <0>         0.1268
     26 C18         2.1670    0.3130   -5.9632 C.3       1 <0>         0.0372
     27 N4          2.8976    0.3041   -7.2376 N.3       1 <0>        -0.5398
     28 C19         2.1569   -0.4314   -8.2713 C.3       1 <0>         0.0376
     29 C20         0.8304    0.2753   -8.5456 C.3       1 <0>         0.1276
     30 C21         4.2487   -0.2463   -7.0660 C.3       1 <0>         0.0248
     31 N5         -1.3812   -4.1504    0.6672 N.pl3     1 <0>        -0.3678
     32 N6         -1.3920   -2.8055    1.0596 N.2       1 <0>        -0.2631
     33 C22        -1.3618   -5.3088    1.5638 C.3       1 <0>         0.1224
     34 H1          1.0039    1.9031    0.0027 H         1 <0>         0.0507
     35 H2         -0.5459    1.8868   -0.8726 H         1 <0>         0.0575
     36 H3         -0.5289    1.8773    0.9072 H         1 <0>         0.0512
     37 H4          0.5123   -0.3556   -0.8948 H         1 <0>         0.0656
     38 H5          0.5293   -0.3651    0.8851 H         1 <0>         0.0578
     39 H6         -1.9435   -0.1821    0.9097 H         1 <0>         0.0708
     40 H7         -1.9605   -0.1726   -0.8702 H         1 <0>         0.0861
     41 H8         -1.4360   -1.1795   -4.4922 H         1 <0>         0.1566
     42 H9         -1.4482   -2.5062   -8.5441 H         1 <0>         0.1359
     43 H10        -1.4233   -4.8477   -7.7959 H         1 <0>         0.1361
     44 H11        -2.2755   -6.5484   -6.9307 H         1 <0>         0.0581
     45 H12        -0.4957   -6.5243   -6.9395 H         1 <0>         0.0570
     46 H13        -1.3526   -8.7961   -6.4360 H         1 <0>         0.0694
     47 H14        -0.4647   -8.1258   -5.0466 H         1 <0>         0.0690
     48 H15        -2.2445   -8.1499   -5.0378 H         1 <0>         0.0696
     49 H16         1.0335    2.1070   -6.3571 H         1 <0>         0.0814
     50 H17         0.2427    0.9670   -5.2366 H         1 <0>         0.0979
     51 H18         2.7652    0.8176   -5.2045 H         1 <0>         0.0879
     52 H19         1.9704   -0.7122   -5.6495 H         1 <0>         0.0449
     53 H20         2.7478   -0.4666   -9.1865 H         1 <0>         0.0858
     54 H21         1.9605   -1.4462   -7.9254 H         1 <0>         0.0417
     55 H22         0.2284   -0.3292   -9.2240 H         1 <0>         0.0922
     56 H23         1.0240    1.2501   -8.9932 H         1 <0>         0.0807
     57 H24         4.1801   -1.2690   -6.6954 H         1 <0>         0.0264
     58 H25         4.7675   -0.2413   -8.0246 H         1 <0>         0.0675
     59 H26         4.8011    0.3631   -6.3508 H         1 <0>         0.0692
     60 H27        -0.3294   -5.5825    1.7815 H         1 <0>         0.0592
     61 H28        -1.8748   -5.0582    2.4923 H         1 <0>         0.0722
     62 H29        -1.8667   -6.1476    1.0847 H         1 <0>         0.0961
@<TRIPOS>BOND
     1    1    2 1
     2    1   34 1
     3    1   35 1
     4    1   36 1
     5    2    3 1
     6    2   37 1
     7    2   38 1
     8    3    4 1
     9    3   39 1
    10    3   40 1
    11    4   32 2
    12    4    5 1
    13    5   11 ar
    14    5    6 ar
    15    6    7 ar
    16    6   31 1
    17    7    8 1
    18    7    9 ar
    19    9   10 ar
    20   10   11 ar
    21   10   12 1
    22   12   17 ar
    23   12   13 ar
    24   13   14 ar
    25   13   41 1
    26   14   15 ar
    27   14   21 1
    28   15   16 ar
    29   15   42 1
    30   16   17 ar
    31   16   43 1
    32   17   18 1
    33   18   19 1
    34   19   20 1
    35   19   44 1
    36   19   45 1
    37   20   46 1
    38   20   47 1
    39   20   48 1
    40   21   22 2
    41   21   23 2
    42   21   24 1
    43   24   29 1
    44   24   25 1
    45   25   26 1
    46   25   49 1
    47   25   50 1
    48   26   27 1
    49   26   51 1
    50   26   52 1
    51   27   28 1
    52   27   30 1
    53   28   29 1
    54   28   53 1
    55   28   54 1
    56   29   55 1
    57   29   56 1
    58   30   57 1
    59   30   58 1
    60   30   59 1
    61   31   32 1
    62   31   33 1
    63   33   60 1
    64   33   61 1
    65   33   62 1
@<TRIPOS>MOLECULE
ZINC19796168
   64    67     0     0     0
SMALL
USER_CHARGES

@<TRIPOS>ATOM
      1 C1         -0.0187    1.5258    0.0104 C.3       1 <0>        -0.1524
      2 C2          0.0021   -0.0041    0.0020 C.3       1 <0>        -0.1163
      3 C3         -1.4333   -0.5336    0.0129 C.3       1 <0>        -0.0382
      4 C4         -1.4129   -2.0405    0.0046 C.2       1 <0>         0.1125
      5 C5         -1.4070   -2.8548   -1.1446 C.2       1 <0>         0.0358
      6 C6         -1.3861   -4.1841   -0.7032 C.2       1 <0>        -0.0303
      7 C7         -1.3769   -5.2214   -1.6643 C.2       1 <0>         0.5721
      8 O1         -1.3591   -6.3907   -1.3206 O.2       1 <0>        -0.5177
      9 N1         -1.3887   -4.8848   -2.9731 N.am      1 <0>        -0.6346
     10 H1         -1.3827   -5.5793   -3.6502 H         1 <0>         0.4185
     11 C8         -1.4095   -3.5686   -3.3476 C.2       1 <0>         0.3827
     12 N2         -1.4171   -2.5966   -2.4679 N.2       1 <0>        -0.4195
     13 C9         -1.4219   -3.2333   -4.7854 C.ar      1 <0>        -0.1025
     14 C10        -1.4183   -4.2493   -5.7432 C.ar      1 <0>         0.0333
     15 C11        -1.4299   -3.9298   -7.0842 C.ar      1 <0>        -0.7276
     16 C12        -1.4448   -2.6046   -7.4863 C.ar      1 <0>         0.0370
     17 C13        -1.4485   -1.5903   -6.5488 C.ar      1 <0>        -0.2285
     18 C14        -1.4433   -1.8942   -5.1961 C.ar      1 <0>         0.2470
     19 O2         -1.4527   -0.8984   -4.2738 O.3       1 <0>        -0.2539
     20 C15        -1.4745    0.4426   -4.7671 C.3       1 <0>         0.0414
     21 C16        -1.4823    1.4191   -3.5893 C.3       1 <0>        -0.1545
     22 S1         -1.4253   -5.2129   -8.2917 S.o2      1 <0>         2.6914
     23 O3         -0.8874   -4.6500   -9.4805 O.2       1 <0>        -0.9316
     24 O4         -0.8594   -6.3568   -7.6667 O.2       1 <0>        -0.9334
     25 N3         -3.0059   -5.5847   -8.6172 N.pl3     1 <0>        -1.0127
     26 C17        -3.7155   -6.6148   -7.8430 C.3       1 <0>         0.0947
     27 C18        -5.0462   -6.0287   -7.3599 C.3       1 <0>        -0.0248
     28 N4         -5.7976   -5.5098   -8.5098 N.4       1 <0>        -0.3832
     29 C19        -5.0699   -4.3889   -9.1182 C.3       1 <0>        -0.0235
     30 C20        -3.7420   -4.8899   -9.6846 C.3       1 <0>         0.0949
     31 C21        -7.1182   -5.0483   -8.0616 C.3       1 <0>        -0.0476
     32 N5         -1.3799   -4.1501    0.6637 N.pl3     1 <0>        -0.3251
     33 N6         -1.3920   -2.8068    1.0614 N.2       1 <0>        -0.2289
     34 C22        -1.3598   -5.3128    1.5547 C.3       1 <0>         0.0963
     35 H2          1.0039    1.9031    0.0027 H         1 <0>         0.0582
     36 H3         -0.5459    1.8868   -0.8726 H         1 <0>         0.0570
     37 H4         -0.5289    1.8773    0.9072 H         1 <0>         0.0575
     38 H5          0.5123   -0.3556   -0.8948 H         1 <0>         0.0655
     39 H6          0.5293   -0.3651    0.8851 H         1 <0>         0.0644
     40 H7         -1.9435   -0.1821    0.9097 H         1 <0>         0.0854
     41 H8         -1.9605   -0.1726   -0.8702 H         1 <0>         0.0931
     42 H9         -1.4060   -5.2840   -5.4339 H         1 <0>         0.1444
     43 H10        -1.4531   -2.3629   -8.5389 H         1 <0>         0.1495
     44 H11        -1.4598   -0.5592   -6.8698 H         1 <0>         0.1518
     45 H12        -0.5902    0.6189   -5.3794 H         1 <0>         0.0706
     46 H13        -2.3699    0.5934   -5.3701 H         1 <0>         0.0677
     47 H14        -1.4990    2.4420   -3.9655 H         1 <0>         0.0830
     48 H15        -2.3667    1.2428   -2.9770 H         1 <0>         0.0703
     49 H16        -0.5869    1.2683   -2.9863 H         1 <0>         0.0743
     50 H17        -3.9053   -7.4822   -8.4752 H         1 <0>         0.1071
     51 H18        -3.1115   -6.9087   -6.9845 H         1 <0>         0.1349
     52 H19        -5.6284   -6.8070   -6.8666 H         1 <0>         0.1469
     53 H20        -4.8527   -5.2186   -6.6568 H         1 <0>         0.1345
     54 H21        -5.6695   -3.9589   -9.9204 H         1 <0>         0.1472
     55 H22        -4.8756   -3.6285   -8.3618 H         1 <0>         0.1345
     56 H23        -3.1556   -4.0439  -10.0432 H         1 <0>         0.1362
     57 H24        -3.9345   -5.5801  -10.5059 H         1 <0>         0.1058
     58 H25        -6.9949   -4.2582   -7.3209 H         1 <0>         0.1220
     59 H26        -7.6771   -4.6629   -8.9144 H         1 <0>         0.1268
     60 H27        -7.6626   -5.8814   -7.6170 H         1 <0>         0.1264
     61 H28        -0.3273   -5.5873    1.7707 H         1 <0>         0.0857
     62 H29        -1.8725   -5.0668    2.4846 H         1 <0>         0.0997
     63 H30        -1.8648   -6.1494    1.0718 H         1 <0>         0.1010
     64 H31        -5.9143   -6.2436   -9.1925 H         1 <0>         0.4277
@<TRIPOS>BOND
     1    1    2 1
     2    1   35 1
     3    1   36 1
     4    1   37 1
     5    2    3 1
     6    2   38 1
     7    2   39 1
     8    3    4 1
     9    3   40 1
    10    3   41 1
    11    4   33 2
    12    4    5 1
    13    5   12 1
    14    5    6 2
    15    6    7 1
    16    6   32 1
    17    7    8 2
    18    7    9 am
    19    9   10 1
    20    9   11 1
    21   11   12 2
    22   11   13 1
    23   13   18 ar
    24   13   14 ar
    25   14   15 ar
    26   14   42 1
    27   15   16 ar
    28   15   22 1
    29   16   17 ar
    30   16   43 1
    31   17   18 ar
    32   17   44 1
    33   18   19 1
    34   19   20 1
    35   20   21 1
    36   20   45 1
    37   20   46 1
    38   21   47 1
    39   21   48 1
    40   21   49 1
    41   22   23 2
    42   22   24 2
    43   22   25 1
    44   25   30 1
    45   25   26 1
    46   26   27 1
    47   26   50 1
    48   26   51 1
    49   27   28 1
    50   27   52 1
    51   27   53 1
    52   28   29 1
    53   28   31 1
    54   28   64 1
    55   29   30 1
    56   29   54 1
    57   29   55 1
    58   30   56 1
    59   30   57 1
    60   31   58 1
    61   31   59 1
    62   31   60 1
    63   32   33 1
    64   32   34 1
    65   34   61 1
    66   34   62 1
    67   34   63 1
@<TRIPOS>MOLECULE
ZINC00056555
   46    48     0     0     0
SMALL
USER_CHARGES

@<TRIPOS>ATOM
      1 C1         -0.0173    1.4248    0.0099 C.3       1 <0>         0.0258
      2 O1          0.0021   -0.0041    0.0020 O.3       1 <0>        -0.3063
      3 C2          0.6262   -0.6188    1.0422 C.ar      1 <0>         0.0999
      4 C3          1.2021    0.1367    2.0510 C.ar      1 <0>        -0.1710
      5 C4          1.8358   -0.4897    3.1079 C.ar      1 <0>        -0.1122
      6 C5          1.8971   -1.8699    3.1612 C.ar      1 <0>        -0.0760
      7 C6          1.3251   -2.6295    2.1578 C.ar      1 <0>        -0.1547
      8 C7          0.6830   -2.0080    1.0988 C.ar      1 <0>         0.1015
      9 O2          0.1145   -2.7540    0.1140 O.3       1 <0>        -0.3064
     10 C8          0.2115   -4.1743    0.2380 C.3       1 <0>         0.0255
     11 C9          2.5896   -2.5476    4.3154 C.3       1 <0>        -0.0305
     12 C10         1.5954   -2.8002    5.4194 C.ar      1 <0>         0.1803
     13 C11         1.3868   -1.8306    6.4126 C.ar      1 <0>        -0.0927
     14 C12         2.0813   -0.6102    6.4178 C.ar      1 <0>        -0.1656
     15 C13         1.8397    0.2976    7.4073 C.ar      1 <0>         0.1202
     16 C14         0.9067    0.0284    8.4207 C.ar      1 <0>         0.1418
     17 C15         0.2161   -1.1496    8.4419 C.ar      1 <0>        -0.1891
     18 C16         0.4428   -2.1015    7.4380 C.ar      1 <0>        -0.0102
     19 C17        -0.2384   -3.3323    7.4069 C.ar      1 <0>        -0.1601
     20 C18         0.0362   -4.2060    6.3992 C.ar      1 <0>         0.0826
     21 N1          0.9194   -3.9252    5.4505 N.ar      1 <0>        -0.4840
     22 O3          0.6880    0.9516    9.3935 O.3       1 <0>        -0.3019
     23 C19        -0.2734    0.6206   10.3977 C.3       1 <0>         0.0223
     24 O4          2.5122    1.4790    7.4120 O.3       1 <0>        -0.3019
     25 C20         3.4494    1.6962    6.3553 C.3       1 <0>         0.0208
     26 H1          1.0053    1.8021    0.0021 H         1 <0>         0.0553
     27 H2         -0.5445    1.7859   -0.8732 H         1 <0>         0.1013
     28 H3         -0.5275    1.7763    0.9067 H         1 <0>         0.0545
     29 H4          1.1562    1.2150    2.0113 H         1 <0>         0.1358
     30 H5          2.2842    0.1003    3.8935 H         1 <0>         0.1221
     31 H6          1.3747   -3.7075    2.2017 H         1 <0>         0.1401
     32 H7          1.2614   -4.4664    0.2576 H         1 <0>         0.0558
     33 H8         -0.2714   -4.4922    1.1620 H         1 <0>         0.0564
     34 H9         -0.2815   -4.6476   -0.6111 H         1 <0>         0.1010
     35 H10         3.0097   -3.4961    3.9808 H         1 <0>         0.0985
     36 H11         3.3894   -1.9067    4.6863 H         1 <0>         0.0913
     37 H12         2.8023   -0.3917    5.6438 H         1 <0>         0.1473
     38 H13        -0.4993   -1.3466    9.2266 H         1 <0>         0.1459
     39 H14        -0.9645   -3.5793    8.1673 H         1 <0>         0.1371
     40 H15        -0.4831   -5.1525    6.3692 H         1 <0>         0.1540
     41 H16        -0.3511    1.4413   11.1107 H         1 <0>         0.1057
     42 H17        -1.2436    0.4521    9.9304 H         1 <0>         0.0589
     43 H18         0.0414   -0.2840   10.9179 H         1 <0>         0.0591
     44 H19         4.2164    0.9223    6.3853 H         1 <0>         0.0590
     45 H20         2.9316    1.6577    5.3969 H         1 <0>         0.0571
     46 H21         3.9148    2.6741    6.4778 H         1 <0>         0.1062
@<TRIPOS>BOND
     1    1    2 1
     2    1   26 1
     3    1   27 1
     4    1   28 1
     5    2    3 1
     6    3    8 ar
     7    3    4 ar
     8    4    5 ar
     9    4   29 1
    10    5    6 ar
    11    5   30 1
    12    6    7 ar
    13    6   11 1
    14    7    8 ar
    15    7   31 1
    16    8    9 1
    17    9   10 1
    18   10   32 1
    19   10   33 1
    20   10   34 1
    21   11   12 1
    22   11   35 1
    23   11   36 1
    24   12   21 ar
    25   12   13 ar
    26   13   18 ar
    27   13   14 ar
    28   14   15 ar
    29   14   37 1
    30   15   16 ar
    31   15   24 1
    32   16   17 ar
    33   16   22 1
    34   17   18 ar
    35   17   38 1
    36   18   19 ar
    37   19   20 ar
    38   19   39 1
    39   20   21 ar
    40   20   40 1
    41   22   23 1
    42   23   41 1
    43   23   42 1
    44   23   43 1
    45   24   25 1
    46   25   44 1
    47   25   45 1
    48   25   46 1
@<TRIPOS>MOLECULE
ZINC04116964
   35    37     0     0     0
SMALL
USER_CHARGES

@<TRIPOS>ATOM
      1 C1         -0.8487    1.5063   -0.0599 C.3       1 <0>        -0.0858
      2 C2         -0.8485   -0.0007   -0.0670 C.2       1 <0>         0.1450
      3 C3         -0.6405   -0.6839   -1.2336 C.2       1 <0>        -0.1753
      4 S1         -0.7459   -2.3713   -0.6508 S.3       1 <0>         0.0100
      5 C4         -1.0530   -1.9915    1.0689 C.2       1 <0>         0.3828
      6 N1         -1.0431   -0.6686    1.0503 N.2       1 <0>        -0.5754
      7 N2         -1.2447   -2.8529    2.1373 N.pl3     1 <0>        -0.7925
      8 C5         -0.3965   -0.1696   -2.5987 C.2       1 <0>         0.2027
      9 C6         -0.2158   -1.0354   -3.6419 C.2       1 <0>        -0.2483
     10 S2          0.0282    0.1127   -4.9905 S.3       1 <0>         0.0205
     11 C7         -0.1332    1.6169   -4.0390 C.2       1 <0>         0.3724
     12 N3         -0.3556    1.1415   -2.8270 N.2       1 <0>        -0.5508
     13 N4         -0.0523    2.9340   -4.4622 N.pl3     1 <0>        -0.6003
     14 C8          0.0408    3.2260   -5.8283 C.ar      1 <0>         0.1318
     15 C9         -0.5485    2.3847   -6.7611 C.ar      1 <0>        -0.1240
     16 C10        -0.4552    2.6750   -8.1091 C.ar      1 <0>        -0.1170
     17 C11         0.2248    3.8024   -8.5315 C.ar      1 <0>        -0.0957
     18 C12         0.8150    4.6452   -7.6078 C.ar      1 <0>        -0.1774
     19 C13         0.7205    4.3651   -6.2545 C.ar      1 <0>         0.1049
     20 O1          1.2953    5.1964   -5.3445 O.3       1 <0>        -0.3177
     21 C14         1.9756    6.3451   -5.8541 C.3       1 <0>         0.0280
     22 H1          0.1637    1.8689    0.1182 H         1 <0>         0.0719
     23 H2         -1.2022    1.8741   -1.0232 H         1 <0>         0.0989
     24 H3         -1.5077    1.8659    0.7304 H         1 <0>         0.0650
     25 H4         -1.2204   -3.8124    1.9971 H         1 <0>         0.4221
     26 H5         -1.4031   -2.4963    3.0253 H         1 <0>         0.4189
     27 H6         -0.2192   -2.1154   -3.6491 H         1 <0>         0.1933
     28 H7         -0.0600    3.6537   -3.8119 H         1 <0>         0.4306
     29 H8         -1.0796    1.5030   -6.4340 H         1 <0>         0.1394
     30 H9         -0.9142    2.0195   -8.8344 H         1 <0>         0.1339
     31 H10         0.2955    4.0251   -9.5860 H         1 <0>         0.1317
     32 H11         1.3460    5.5246   -7.9412 H         1 <0>         0.1368
     33 H12         2.7844    6.0264   -6.5116 H         1 <0>         0.0582
     34 H13         1.2745    6.9639   -6.4141 H         1 <0>         0.0582
     35 H14         2.3867    6.9212   -5.0252 H         1 <0>         0.1033
@<TRIPOS>BOND
     1    1    2 1
     2    1   22 1
     3    1   23 1
     4    1   24 1
     5    2    6 1
     6    2    3 2
     7    3    4 1
     8    3    8 1
     9    4    5 1
    10    5    6 2
    11    5    7 1
    12    7   25 1
    13    7   26 1
    14    8   12 1
    15    8    9 2
    16    9   10 1
    17    9   27 1
    18   10   11 1
    19   11   12 2
    20   11   13 1
    21   13   14 1
    22   13   28 1
    23   14   19 ar
    24   14   15 ar
    25   15   16 ar
    26   15   29 1
    27   16   17 ar
    28   16   30 1
    29   17   18 ar
    30   17   31 1
    31   18   19 ar
    32   18   32 1
    33   19   20 1
    34   20   21 1
    35   21   33 1
    36   21   34 1
    37   21   35 1
@<TRIPOS>MOLECULE
ZINC19851562
   43    45     0     0     0
SMALL
USER_CHARGES
2-[(6-amino-3,5-dicyano-4-phenyl-2-pyridyl)sulfanyl]-N-(4-fluorophenyl)acetamide
@<TRIPOS>ATOM
      1 C1         -3.6884    3.5423    0.0158 C.ar      1 <0>        -0.1000
      2 C2         -2.8291    3.6350    1.0962 C.ar      1 <0>        -0.1170
      3 C3         -1.6354    2.9433    1.0933 C.ar      1 <0>        -0.0872
      4 C4         -1.2955    2.1489   -0.0025 C.ar      1 <0>        -0.0883
      5 C5         -2.1641    2.0639   -1.0913 C.ar      1 <0>        -0.0865
      6 C6         -3.3575    2.7561   -1.0735 C.ar      1 <0>        -0.1163
      7 C7         -0.0166    1.4048   -0.0125 C.ar      1 <0>         0.1610
      8 C8          1.2177    2.0846   -0.0295 C.ar      1 <0>        -0.1603
      9 C9          2.4085    1.3351   -0.0439 C.ar      1 <0>         0.5026
     10 N1          2.3797    0.0119   -0.0421 N.ar      1 <0>        -0.5548
     11 C10         1.2434   -0.6684   -0.0268 C.ar      1 <0>         0.2251
     12 C11         0.0024   -0.0035   -0.0112 C.ar      1 <0>        -0.1208
     13 C12        -1.2211   -0.7474    0.0063 C.1       1 <0>         0.2544
     14 N2         -2.1917   -1.3375    0.0201 N.1       1 <0>        -0.3893
     15 S1          1.2854   -2.4299   -0.0253 S.3       1 <0>         0.0694
     16 C13         3.0748   -2.7017   -0.0486 C.3       1 <0>        -0.1545
     17 C14         3.3581   -4.1818   -0.0507 C.2       1 <0>         0.5313
     18 O1          2.4405   -4.9749   -0.0377 O.2       1 <0>        -0.5060
     19 N3          4.6310   -4.6243   -0.0670 N.am      1 <0>        -0.6778
     20 C15         4.8969   -5.9957    0.0288 C.ar      1 <0>         0.1359
     21 C16         6.0241   -6.4397    0.7072 C.ar      1 <0>        -0.1137
     22 C17         6.2814   -7.7931    0.8055 C.ar      1 <0>        -0.1349
     23 C18         5.4223   -8.7066    0.2182 C.ar      1 <0>         0.0856
     24 C19         4.3006   -8.2657   -0.4637 C.ar      1 <0>        -0.1339
     25 C20         4.0366   -6.9134   -0.5593 C.ar      1 <0>        -0.0935
     26 F1          5.6785  -10.0298    0.3111 F         1 <0>        -0.1384
     27 N4          3.6241    1.9892   -0.0602 N.pl3     1 <0>        -0.8446
     28 C21         1.2595    3.5160   -0.0322 C.1       1 <0>         0.2584
     29 N5          1.2926    4.6515   -0.0342 N.1       1 <0>        -0.4038
     30 H1         -4.6217    4.0857    0.0229 H         1 <0>         0.1284
     31 H2         -3.0932    4.2504    1.9435 H         1 <0>         0.1301
     32 H3         -0.9656    3.0162    1.9374 H         1 <0>         0.1267
     33 H4         -1.9049    1.4540   -1.9441 H         1 <0>         0.1280
     34 H5         -4.0327    2.6876   -1.9137 H         1 <0>         0.1307
     35 H6          3.5033   -2.2451   -0.9530 H         1 <0>         0.1346
     36 H7          3.5270   -2.2431    0.8431 H         1 <0>         0.1347
     37 H8          5.4612   -3.9081   -0.1556 H         1 <0>         0.4406
     38 H9          6.6968   -5.7273    1.1616 H         1 <0>         0.1374
     39 H10         7.1555   -8.1390    1.3372 H         1 <0>         0.1406
     40 H11         3.6316   -8.9797   -0.9207 H         1 <0>         0.1401
     41 H12         3.1615   -6.5699   -1.0910 H         1 <0>         0.1489
     42 H13         4.5597    1.4109   -0.0715 H         1 <0>         0.4387
     43 H14         3.6571    3.0887   -0.0619 H         1 <0>         0.4387
@<TRIPOS>BOND
     1    1    6 ar
     2    1    2 ar
     3    1   30 1
     4    2    3 ar
     5    2   31 1
     6    3    4 ar
     7    3   32 1
     8    4    5 ar
     9    4    7 1
    10    5    6 ar
    11    5   33 1
    12    6   34 1
    13    7   12 ar
    14    7    8 ar
    15    8    9 ar
    16    8   28 1
    17    9   10 ar
    18    9   27 1
    19   10   11 ar
    20   11   12 ar
    21   11   15 1
    22   12   13 1
    23   13   14 3
    24   15   16 1
    25   16   17 1
    26   16   35 1
    27   16   36 1
    28   17   18 2
    29   17   19 am
    30   19   20 1
    31   19   37 1
    32   20   25 ar
    33   20   21 ar
    34   21   22 ar
    35   21   38 1
    36   22   23 ar
    37   22   39 1
    38   23   24 ar
    39   23   26 1
    40   24   25 ar
    41   24   40 1
    42   25   41 1
    43   27   42 1
    44   27   43 1
    45   28   29 3
@<TRIPOS>MOLECULE
ZINC08448503
   38    40     0     0     0
SMALL
USER_CHARGES
4-[[3-cyano-6-(2-thienyl)-4-(trifluoromethyl)-2-pyridyl]sulfanylmethyl]benzoic acid
@<TRIPOS>ATOM
      1 C1         -4.8945    4.6801    0.0725 C.2       1 <0>        -0.1664
      2 C2         -3.8022    3.8446    0.0576 C.2       1 <0>        -0.0864
      3 C3         -2.5478    4.3996    0.0486 C.2       1 <0>        -0.1479
      4 S1         -2.9185    6.1460    0.0688 S.3       1 <0>         0.0858
      5 C4         -4.6997    6.0256    0.0779 C.2       1 <0>        -0.1506
      6 C5         -1.2351    3.7287    0.0330 C.ar      1 <0>         0.2759
      7 C6         -0.0678    4.4987    0.0260 C.ar      1 <0>        -0.1354
      8 C7          1.1513    3.8763    0.0114 C.ar      1 <0>        -0.0667
      9 C8          1.1897    2.4743    0.0040 C.ar      1 <0>        -0.0277
     10 C9         -0.0218    1.7577    0.0117 C.ar      1 <0>         0.1726
     11 N1         -1.1784    2.4000    0.0207 N.ar      1 <0>        -0.4573
     12 S2          0.0021   -0.0041    0.0020 S.3       1 <0>        -0.0041
     13 C10        -1.7759   -0.3426    0.0172 C.3       1 <0>        -0.0525
     14 C11        -2.0037   -1.8323    0.0114 C.ar      1 <0>        -0.1047
     15 C12        -2.1250   -2.5057   -1.1913 C.ar      1 <0>        -0.1154
     16 C13        -2.3287   -3.8700   -1.2040 C.ar      1 <0>        -0.0787
     17 C14        -2.4232   -4.5697    0.0007 C.ar      1 <0>        -0.0981
     18 C15        -2.3052   -3.8830    1.2107 C.ar      1 <0>        -0.0877
     19 C16        -2.0963   -2.5195    1.2087 C.ar      1 <0>        -0.1145
     20 C17        -2.6465   -6.0299   -0.0051 C.2       1 <0>         0.4864
     21 O1         -2.7279   -6.6360    1.0445 O.co2     1 <0>        -0.6286
     22 C18         2.4432    1.7820   -0.0108 C.1       1 <0>         0.2325
     23 N2          3.4375    1.2328   -0.0224 N.1       1 <0>        -0.3554
     24 C19         2.4256    4.6807    0.0031 C.3       1 <0>         0.5093
     25 F1          2.1160    6.0450    0.0129 F         1 <0>        -0.1651
     26 F2          3.1831    4.3662    1.1364 F         1 <0>        -0.1639
     27 F3          3.1609    4.3777   -1.1480 F         1 <0>        -0.1640
     28 H1         -5.8945    4.2724    0.0801 H         1 <0>         0.1433
     29 H2         -3.9296    2.7722    0.0527 H         1 <0>         0.1478
     30 H3         -5.4336    6.8178    0.0894 H         1 <0>         0.1930
     31 H4         -0.1277    5.5770    0.0323 H         1 <0>         0.1616
     32 H5         -2.2204    0.0894    0.9138 H         1 <0>         0.1052
     33 H6         -2.2374    0.0990   -0.8661 H         1 <0>         0.1056
     34 H7         -2.0558   -1.9626   -2.1222 H         1 <0>         0.1195
     35 H8         -2.4187   -4.3951   -2.1434 H         1 <0>         0.1342
     36 H9         -2.3770   -4.4182    2.1460 H         1 <0>         0.1303
     37 H10        -2.0045   -1.9871    2.1439 H         1 <0>         0.1192
     38 O2         -2.7599   -6.6894   -1.1742 O.co2     1 <0>        -0.7513
@<TRIPOS>BOND
     1    1    5 2
     2    1    2 1
     3    1   28 1
     4    2    3 2
     5    2   29 1
     6    3    4 1
     7    3    6 1
     8    4    5 1
     9    5   30 1
    10    6   11 ar
    11    6    7 ar
    12    7    8 ar
    13    7   31 1
    14    8    9 ar
    15    8   24 1
    16    9   10 ar
    17    9   22 1
    18   10   11 ar
    19   10   12 1
    20   12   13 1
    21   13   14 1
    22   13   32 1
    23   13   33 1
    24   14   19 ar
    25   14   15 ar
    26   15   16 ar
    27   15   34 1
    28   16   17 ar
    29   16   35 1
    30   17   18 ar
    31   17   20 1
    32   18   19 ar
    33   18   36 1
    34   19   37 1
    35   20   21 2
    36   20   38 1
    37   22   23 3
    38   24   25 1
    39   24   26 1
    40   24   27 1
@<TRIPOS>MOLECULE
ZINC01268606
   44    47     0     0     0
SMALL
USER_CHARGES

@<TRIPOS>ATOM
      1 C1         -0.0178    1.4608    0.0101 C.3       1 <0>         0.0894
      2 N1          0.0021   -0.0041    0.0020 N.pl3     1 <0>        -0.5096
      3 C2         -1.1762   -0.7118    0.0037 C.2       1 <0>         0.3015
      4 C3         -1.1132   -2.1130   -0.0047 C.2       1 <0>        -0.1646
      5 C4          0.1307   -2.7317   -0.0140 C.2       1 <0>         0.5260
      6 O1          0.2196   -4.0818   -0.0227 O.3       1 <0>        -0.6884
      7 N2          1.2380   -1.9852   -0.0147 N.2       1 <0>        -0.6313
      8 C5          1.1844   -0.6712   -0.0129 C.2       1 <0>         0.6260
      9 O2          2.3352    0.0327   -0.0200 O.3       1 <0>        -0.6892
     10 N3         -2.4301   -2.5606   -0.0008 N.pl3     1 <0>        -0.4287
     11 C6         -3.2173   -1.4646    0.0094 C.2       1 <0>         0.4371
     12 N4         -2.4620   -0.3723    0.0120 N.2       1 <0>        -0.5452
     13 S1         -4.9292   -1.4799    0.0168 S.2       1 <0>        -0.8039
     14 C7         -2.8772   -3.9557   -0.0067 C.3       1 <0>         0.1036
     15 C8         -3.0258   -4.4497    1.4337 C.3       1 <0>         0.1049
     16 H1         -3.7599   -3.8351    1.9547 H         1 <0>         0.1122
     17 C9         -3.4927   -5.9067    1.4276 C.3       1 <0>         0.0331
     18 O3         -3.7434   -6.3322    2.7686 O.3       1 <0>        -0.2956
     19 C10        -4.1684   -7.6113    2.9406 C.ar      1 <0>         0.1482
     20 C11        -4.3332   -8.4396    1.8259 C.ar      1 <0>        -0.1839
     21 C12        -4.7571   -9.7241    1.9660 C.ar      1 <0>        -0.0705
     22 C13        -5.0342  -10.2310    3.2477 C.ar      1 <0>        -0.0898
     23 C14        -5.4734  -11.5535    3.4288 C.ar      1 <0>        -0.0914
     24 C15        -5.7322  -12.0116    4.6840 C.ar      1 <0>        -0.1396
     25 C16        -5.5684  -11.1883    5.7965 C.ar      1 <0>        -0.1132
     26 C17        -5.1449   -9.9022    5.6599 C.ar      1 <0>        -0.1132
     27 C18        -4.8676   -9.3935    4.3791 C.ar      1 <0>        -0.0098
     28 C19        -4.4237   -8.0730    4.2003 C.ar      1 <0>        -0.1662
     29 O4         -1.7660   -4.3560    2.1017 O.3       1 <0>        -0.5433
     30 H2          1.0048    1.8381    0.0023 H         1 <0>         0.0893
     31 H3         -0.5450    1.8219   -0.8730 H         1 <0>         0.0522
     32 H4         -0.5280    1.8123    0.9069 H         1 <0>         0.0525
     33 H5         -3.8381   -4.0271   -0.5162 H         1 <0>         0.0978
     34 H6         -2.1431   -4.5703   -0.5277 H         1 <0>         0.0946
     35 H7         -4.4082   -5.9924    0.8421 H         1 <0>         0.0734
     36 H8         -2.7188   -6.5344    0.9859 H         1 <0>         0.0687
     37 H9         -4.1212   -8.0535    0.8398 H         1 <0>         0.1343
     38 H10        -4.8806  -10.3522    1.0962 H         1 <0>         0.1297
     39 H11        -5.6052  -12.2031    2.5761 H         1 <0>         0.1227
     40 H12        -6.0699  -13.0284    4.8199 H         1 <0>         0.1172
     41 H13        -5.7811  -11.5765    6.7816 H         1 <0>         0.1185
     42 H14        -5.0228   -9.2755    6.5310 H         1 <0>         0.1259
     43 H15        -4.2885   -7.4252    5.0539 H         1 <0>         0.1351
     44 H16        -1.0636   -4.8791    1.6917 H         1 <0>         0.3833
@<TRIPOS>BOND
     1    1    2 1
     2    1   30 1
     3    1   31 1
     4    1   32 1
     5    2    8 1
     6    2    3 1
     7    3   12 2
     8    3    4 1
     9    4    5 2
    10    4   10 1
    11    5    6 1
    12    5    7 1
    13    7    8 2
    14    8    9 1
    15   10   11 1
    16   10   14 1
    17   11   12 1
    18   11   13 2
    19   14   15 1
    20   14   33 1
    21   14   34 1
    22   15   16 1
    23   15   17 1
    24   15   29 1
    25   17   18 1
    26   17   35 1
    27   17   36 1
    28   18   19 1
    29   19   28 ar
    30   19   20 ar
    31   20   21 ar
    32   20   37 1
    33   21   22 ar
    34   21   38 1
    35   22   27 ar
    36   22   23 ar
    37   23   24 ar
    38   23   39 1
    39   24   25 ar
    40   24   40 1
    41   25   26 ar
    42   25   41 1
    43   26   27 ar
    44   26   42 1
    45   27   28 ar
    46   28   43 1
    47   29   44 1
@<TRIPOS>MOLECULE
ZINC01268606
   46    49     0     0     0
SMALL
USER_CHARGES

@<TRIPOS>ATOM
      1 C1         -0.0178    1.4608    0.0101 C.3       1 <0>         0.0614
      2 N1          0.0021   -0.0041    0.0020 N.am      1 <0>        -0.5143
      3 C2         -1.1819   -0.7055    0.0038 C.2       1 <0>         0.3525
      4 N2         -2.4984   -0.3239    0.0129 N.pl3     1 <0>        -0.5498
      5 C3         -3.2703   -1.4274    0.0107 C.2       1 <0>         0.4918
      6 S1         -4.9822   -1.4441    0.0187 S.2       1 <0>        -0.5499
      7 N3         -2.4759   -2.5168    0.0002 N.pl3     1 <0>        -0.4083
      8 C4         -1.1498   -2.0732   -0.0042 C.2       1 <0>        -0.1040
      9 C5          0.0953   -2.7333   -0.0146 C.2       1 <0>         0.5946
     10 N4          1.2296   -2.0027   -0.0164 N.am      1 <0>        -0.6458
     11 C6          1.1785   -0.6585   -0.0127 C.2       1 <0>         0.7151
     12 O1          2.2148   -0.0223   -0.0188 O.2       1 <0>        -0.5120
     13 O2          0.1469   -3.9509   -0.0215 O.2       1 <0>        -0.4907
     14 C7         -2.9215   -3.9124   -0.0055 C.3       1 <0>         0.0845
     15 C8         -3.0836   -4.3902   -1.4499 C.3       1 <0>         0.0999
     16 H1         -2.1278   -4.3118   -1.9680 H         1 <0>         0.1149
     17 C9         -3.5489   -5.8477   -1.4559 C.3       1 <0>         0.0317
     18 O3         -3.5884   -6.3296   -2.8006 O.3       1 <0>        -0.3002
     19 C10        -3.9841   -7.6167   -2.9833 C.ar      1 <0>         0.1314
     20 C11        -4.3334   -8.3951   -1.8752 C.ar      1 <0>        -0.1912
     21 C12        -4.7333   -9.6861   -2.0260 C.ar      1 <0>        -0.0633
     22 C13        -4.7985  -10.2501   -3.3121 C.ar      1 <0>        -0.0843
     23 C14        -5.2080  -11.5806   -3.5041 C.ar      1 <0>        -0.0945
     24 C15        -5.2600  -12.0945   -4.7634 C.ar      1 <0>        -0.1282
     25 C16        -4.9127  -11.3206   -5.8693 C.ar      1 <0>        -0.1045
     26 C17        -4.5116  -10.0286   -5.7220 C.ar      1 <0>        -0.1154
     27 C18        -4.4454   -9.4629   -4.4368 C.ar      1 <0>        -0.0131
     28 C19        -4.0410   -8.1313   -4.2470 C.ar      1 <0>        -0.1517
     29 O4         -4.0535   -3.5778   -2.1143 O.3       1 <0>        -0.5393
     30 H2          1.0048    1.8381    0.0023 H         1 <0>         0.1207
     31 H3         -0.5450    1.8219   -0.8730 H         1 <0>         0.0872
     32 H4         -0.5280    1.8123    0.9069 H         1 <0>         0.0872
     33 H5         -2.1816   -4.5321    0.5013 H         1 <0>         0.1239
     34 H6         -3.8773   -3.9908    0.5126 H         1 <0>         0.1247
     35 H7         -2.8546   -6.4531   -0.8732 H         1 <0>         0.0770
     36 H8         -4.5445   -5.9130   -1.0171 H         1 <0>         0.0742
     37 H9         -4.2845   -7.9651   -0.8857 H         1 <0>         0.1299
     38 H10        -4.9994  -10.2758   -1.1612 H         1 <0>         0.1325
     39 H11        -5.4797  -12.1924   -2.6567 H         1 <0>         0.1269
     40 H12        -5.5747  -13.1175   -4.9077 H         1 <0>         0.1234
     41 H13        -4.9624  -11.7529   -6.8578 H         1 <0>         0.1242
     42 H14        -4.2452   -9.4409   -6.5881 H         1 <0>         0.1283
     43 H15        -3.7731   -7.5190   -5.0954 H         1 <0>         0.1351
     44 H16        -4.9301   -3.5992   -1.7066 H         1 <0>         0.3862
     45 H17         2.0898   -2.4509   -0.0231 H         1 <0>         0.4472
     46 H18        -2.8211    0.5908    0.0204 H         1 <0>         0.4540
@<TRIPOS>BOND
     1    1    2 1
     2    1   30 1
     3    1   31 1
     4    1   32 1
     5    2   11 am
     6    2    3 1
     7    3    8 2
     8    3    4 1
     9    4    5 1
    10    4   46 1
    11    5    6 2
    12    5    7 1
    13    7    8 1
    14    7   14 1
    15    8    9 1
    16    9   10 am
    17    9   13 2
    18   10   11 am
    19   10   45 1
    20   11   12 2
    21   14   15 1
    22   14   33 1
    23   14   34 1
    24   15   16 1
    25   15   17 1
    26   15   29 1
    27   17   18 1
    28   17   35 1
    29   17   36 1
    30   18   19 1
    31   19   28 ar
    32   19   20 ar
    33   20   21 ar
    34   20   37 1
    35   21   22 ar
    36   21   38 1
    37   22   27 ar
    38   22   23 ar
    39   23   24 ar
    40   23   39 1
    41   24   25 ar
    42   24   40 1
    43   25   26 ar
    44   25   41 1
    45   26   27 ar
    46   26   42 1
    47   27   28 ar
    48   28   43 1
    49   29   44 1
@<TRIPOS>MOLECULE
ZINC05447786
   44    47     0     0     0
SMALL
USER_CHARGES

@<TRIPOS>ATOM
      1 C1         -0.0178    1.4608    0.0101 C.3       1 <0>         0.0894
      2 N1          0.0021   -0.0041    0.0020 N.pl3     1 <0>        -0.5100
      3 C2         -1.1762   -0.7118    0.0037 C.2       1 <0>         0.3082
      4 C3         -1.1132   -2.1130   -0.0047 C.2       1 <0>        -0.1820
      5 C4          0.1307   -2.7317   -0.0140 C.2       1 <0>         0.5182
      6 O1          0.2196   -4.0818   -0.0227 O.3       1 <0>        -0.6861
      7 N2          1.2380   -1.9852   -0.0147 N.2       1 <0>        -0.6315
      8 C5          1.1844   -0.6712   -0.0129 C.2       1 <0>         0.6259
      9 O2          2.3352    0.0327   -0.0200 O.3       1 <0>        -0.6889
     10 N3         -2.4301   -2.5606   -0.0008 N.pl3     1 <0>        -0.4327
     11 C6         -3.2173   -1.4646    0.0094 C.2       1 <0>         0.4498
     12 N4         -2.4620   -0.3723    0.0120 N.2       1 <0>        -0.5488
     13 S1         -4.9292   -1.4799    0.0168 S.2       1 <0>        -0.7937
     14 C7         -2.8772   -3.9557   -0.0067 C.3       1 <0>         0.1057
     15 C8         -3.0258   -4.4497    1.4337 C.3       1 <0>         0.1045
     16 H1         -2.0889   -4.2958    1.9691 H         1 <0>         0.1097
     17 C9         -3.3714   -5.9401    1.4286 C.3       1 <0>         0.0340
     18 O3         -3.3957   -6.4280    2.7715 O.3       1 <0>        -0.2958
     19 C10        -3.6891   -7.7435    2.9447 C.ar      1 <0>         0.1484
     20 C11        -3.9429   -8.5467    1.8284 C.ar      1 <0>        -0.1838
     21 C12        -4.2392   -9.8664    1.9696 C.ar      1 <0>        -0.0706
     22 C13        -4.2916  -10.4357    3.2540 C.ar      1 <0>        -0.0898
     23 C14        -4.5941  -11.7958    3.4361 C.ar      1 <0>        -0.0914
     24 C15        -4.6360  -12.3142    4.6939 C.ar      1 <0>        -0.1396
     25 C16        -4.3830  -11.5159    5.8080 C.ar      1 <0>        -0.1132
     26 C17        -4.0867  -10.1948    5.6704 C.ar      1 <0>        -0.1131
     27 C18        -4.0342   -9.6237    4.3870 C.ar      1 <0>        -0.0098
     28 C19        -3.7265   -8.2652    4.2063 C.ar      1 <0>        -0.1661
     29 O4         -4.0700   -3.7207    2.0820 O.3       1 <0>        -0.5342
     30 H2          1.0048    1.8381    0.0023 H         1 <0>         0.0893
     31 H3         -0.5450    1.8219   -0.8730 H         1 <0>         0.0524
     32 H4         -0.5280    1.8123    0.9069 H         1 <0>         0.0527
     33 H5         -3.8381   -4.0271   -0.5162 H         1 <0>         0.0929
     34 H6         -2.1431   -4.5703   -0.5277 H         1 <0>         0.0990
     35 H7         -4.3505   -6.0845    0.9719 H         1 <0>         0.0666
     36 H8         -2.6201   -6.4854    0.8575 H         1 <0>         0.0757
     37 H9         -3.9035   -8.1127    0.8402 H         1 <0>         0.1343
     38 H10        -4.4337  -10.4746    1.0986 H         1 <0>         0.1297
     39 H11        -4.7927  -12.4266    2.5823 H         1 <0>         0.1226
     40 H12        -4.8691  -13.3598    4.8307 H         1 <0>         0.1172
     41 H13        -4.4230  -11.9521    6.7951 H         1 <0>         0.1185
     42 H14        -3.8933   -9.5882    6.5428 H         1 <0>         0.1259
     43 H15        -3.5243   -7.6359    5.0605 H         1 <0>         0.1351
     44 H16        -4.9346   -3.8117    1.6585 H         1 <0>         0.3753
@<TRIPOS>BOND
     1    1    2 1
     2    1   30 1
     3    1   31 1
     4    1   32 1
     5    2    8 1
     6    2    3 1
     7    3   12 2
     8    3    4 1
     9    4    5 2
    10    4   10 1
    11    5    6 1
    12    5    7 1
    13    7    8 2
    14    8    9 1
    15   10   11 1
    16   10   14 1
    17   11   12 1
    18   11   13 2
    19   14   15 1
    20   14   33 1
    21   14   34 1
    22   15   16 1
    23   15   17 1
    24   15   29 1
    25   17   18 1
    26   17   35 1
    27   17   36 1
    28   18   19 1
    29   19   28 ar
    30   19   20 ar
    31   20   21 ar
    32   20   37 1
    33   21   22 ar
    34   21   38 1
    35   22   27 ar
    36   22   23 ar
    37   23   24 ar
    38   23   39 1
    39   24   25 ar
    40   24   40 1
    41   25   26 ar
    42   25   41 1
    43   26   27 ar
    44   26   42 1
    45   27   28 ar
    46   28   43 1
    47   29   44 1
@<TRIPOS>MOLECULE
ZINC05447786
   46    49     0     0     0
SMALL
USER_CHARGES

@<TRIPOS>ATOM
      1 C1         -0.0178    1.4608    0.0101 C.3       1 <0>         0.0615
      2 N1          0.0021   -0.0041    0.0020 N.am      1 <0>        -0.5142
      3 C2         -1.1819   -0.7055    0.0038 C.2       1 <0>         0.3476
      4 N2         -2.4984   -0.3239    0.0129 N.pl3     1 <0>        -0.5486
      5 C3         -3.2703   -1.4274    0.0107 C.2       1 <0>         0.4820
      6 S1         -4.9822   -1.4441    0.0187 S.2       1 <0>        -0.5554
      7 N3         -2.4759   -2.5168    0.0002 N.pl3     1 <0>        -0.4067
      8 C4         -1.1498   -2.0732   -0.0042 C.2       1 <0>        -0.0916
      9 C5          0.0953   -2.7333   -0.0146 C.2       1 <0>         0.6010
     10 N4          1.2296   -2.0027   -0.0164 N.am      1 <0>        -0.6454
     11 C6          1.1785   -0.6585   -0.0127 C.2       1 <0>         0.7152
     12 O1          2.2148   -0.0223   -0.0188 O.2       1 <0>        -0.5126
     13 O2          0.1469   -3.9509   -0.0215 O.2       1 <0>        -0.4941
     14 C7         -2.9215   -3.9124   -0.0055 C.3       1 <0>         0.0852
     15 C8         -3.0836   -4.3902   -1.4499 C.3       1 <0>         0.0979
     16 H1         -3.7559   -3.7171   -1.9819 H         1 <0>         0.1246
     17 C9         -3.6671   -5.8045   -1.4569 C.3       1 <0>         0.0326
     18 O3         -3.9271   -6.2059   -2.8035 O.3       1 <0>        -0.3001
     19 C10        -4.4512   -7.4461   -2.9873 C.ar      1 <0>         0.1314
     20 C11        -4.7134   -8.2559   -1.8776 C.ar      1 <0>        -0.1912
     21 C12        -5.2376   -9.5014   -2.0294 C.ar      1 <0>        -0.0633
     22 C13        -5.5221   -9.9858   -3.3182 C.ar      1 <0>        -0.0842
     23 C14        -6.0647  -11.2676   -3.5113 C.ar      1 <0>        -0.0945
     24 C15        -6.3283  -11.7046   -4.7730 C.ar      1 <0>        -0.1282
     25 C16        -6.0682  -10.8994   -5.8805 C.ar      1 <0>        -0.1046
     26 C17        -5.5431   -9.6526   -5.7323 C.ar      1 <0>        -0.1153
     27 C18        -5.2577   -9.1667   -4.4444 C.ar      1 <0>        -0.0131
     28 C19        -4.7203   -7.8832   -4.2528 C.ar      1 <0>        -0.1515
     29 O4         -1.8085   -4.3977   -2.0951 O.3       1 <0>        -0.5433
     30 H2          1.0048    1.8381    0.0023 H         1 <0>         0.1206
     31 H3         -0.5450    1.8219   -0.8730 H         1 <0>         0.0869
     32 H4         -0.5280    1.8123    0.9069 H         1 <0>         0.0870
     33 H5         -2.1816   -4.5321    0.5013 H         1 <0>         0.1193
     34 H6         -3.8773   -3.9908    0.5126 H         1 <0>         0.1311
     35 H7         -2.9546   -6.4937   -1.0035 H         1 <0>         0.0716
     36 H8         -4.5968   -5.8168   -0.8881 H         1 <0>         0.0806
     37 H9         -4.4960   -7.8870   -0.8861 H         1 <0>         0.1299
     38 H10        -5.4343  -10.1161   -1.1635 H         1 <0>         0.1324
     39 H11        -6.2711  -11.9029   -2.6627 H         1 <0>         0.1268
     40 H12        -6.7449  -12.6904   -4.9183 H         1 <0>         0.1234
     41 H13        -6.2863  -11.2705   -6.8710 H         1 <0>         0.1242
     42 H14        -5.3465   -9.0399   -6.5996 H         1 <0>         0.1284
     43 H15        -4.5177   -7.2470   -5.1017 H         1 <0>         0.1352
     44 H16        -1.1583   -4.9767   -1.6743 H         1 <0>         0.3806
     45 H17         2.0898   -2.4509   -0.0231 H         1 <0>         0.4471
     46 H18        -2.8211    0.5908    0.0204 H         1 <0>         0.4540
@<TRIPOS>BOND
     1    1    2 1
     2    1   30 1
     3    1   31 1
     4    1   32 1
     5    2   11 am
     6    2    3 1
     7    3    8 2
     8    3    4 1
     9    4    5 1
    10    4   46 1
    11    5    6 2
    12    5    7 1
    13    7    8 1
    14    7   14 1
    15    8    9 1
    16    9   10 am
    17    9   13 2
    18   10   11 am
    19   10   45 1
    20   11   12 2
    21   14   15 1
    22   14   33 1
    23   14   34 1
    24   15   16 1
    25   15   17 1
    26   15   29 1
    27   17   18 1
    28   17   35 1
    29   17   36 1
    30   18   19 1
    31   19   28 ar
    32   19   20 ar
    33   20   21 ar
    34   20   37 1
    35   21   22 ar
    36   21   38 1
    37   22   27 ar
    38   22   23 ar
    39   23   24 ar
    40   23   39 1
    41   24   25 ar
    42   24   40 1
    43   25   26 ar
    44   25   41 1
    45   26   27 ar
    46   26   42 1
    47   27   28 ar
    48   28   43 1
    49   29   44 1
@<TRIPOS>MOLECULE
ZINC01085959
   43    47     0     0     0
SMALL
USER_CHARGES
4-[5-(oxoBLAHyl)-2-furyl]benzoic acid
@<TRIPOS>ATOM
      1 C1         -2.4662   -0.3217    0.0282 C.ar      1 <0>        -0.0948
      2 C2         -3.5647   -1.1333    0.0292 C.ar      1 <0>        -0.0809
      3 C3         -3.4075   -2.5229    0.0203 C.ar      1 <0>        -0.0841
      4 C4         -2.1255   -3.0816    0.0049 C.ar      1 <0>        -0.0906
      5 C5         -1.0270   -2.2701   -0.0010 C.ar      1 <0>        -0.1023
      6 C6         -1.1841   -0.8804    0.0079 C.ar      1 <0>        -0.0619
      7 C7          0.0021   -0.0041    0.0020 C.2       1 <0>         0.1195
      8 C8         -0.0164    1.3612    0.0095 C.2       1 <0>        -0.2210
      9 C9          1.3155    1.7902   -0.0009 C.2       1 <0>        -0.0726
     10 C10         2.0985    0.6567   -0.0145 C.2       1 <0>        -0.0526
     11 O1          1.2825   -0.4169   -0.0124 O.3       1 <0>        -0.1618
     12 C11         3.5647    0.6234   -0.0282 C.2       1 <0>         0.5095
     13 N1          4.2145   -0.5840   -0.0353 N.am      1 <0>        -0.6381
     14 H1          3.6805   -1.4294   -0.0271 H         1 <0>         0.4323
     15 C12         5.5586   -0.6510   -0.0531 C.2       1 <0>         0.5600
     16 O2          6.1234   -1.7311   -0.0645 O.2       1 <0>        -0.5212
     17 C13         6.3166    0.5654   -0.0544 C.2       1 <0>        -0.2580
     18 C14         7.7697    0.7253   -0.0684 C.2       1 <0>        -0.0440
     19 C15         8.2476    1.9882   -0.0667 C.2       1 <0>        -0.1773
     20 S1          6.8096    3.0243   -0.0463 S.3       1 <0>         0.1463
     21 C16         5.5676    1.7558   -0.0407 C.2       1 <0>         0.1215
     22 N2          4.2426    1.7565   -0.0281 N.2       1 <0>        -0.4831
     23 C17         9.6840    2.4146   -0.0789 C.3       1 <0>        -0.0344
     24 C18        10.5528    1.2006    0.2800 C.3       1 <0>        -0.1149
     25 C19        10.0958    0.0036   -0.5588 C.3       1 <0>        -0.1222
     26 C20         8.7208   -0.4683   -0.0845 C.3       1 <0>        -0.0607
     27 C21        -4.5940   -3.3995    0.0277 C.2       1 <0>         0.4841
     28 O3         -4.4575   -4.6068    0.0204 O.co2     1 <0>        -0.6248
     29 H2         -2.5876    0.7514    0.0395 H         1 <0>         0.1273
     30 H3         -4.5548   -0.7020    0.0415 H         1 <0>         0.1413
     31 H4         -2.0042   -4.1548   -0.0019 H         1 <0>         0.1349
     32 H5         -0.0370   -2.7016   -0.0122 H         1 <0>         0.1235
     33 H6         -0.8936    1.9912    0.0173 H         1 <0>         0.1659
     34 H7          1.6628    2.8128    0.0016 H         1 <0>         0.1696
     35 H8          9.9510    2.7764   -1.0719 H         1 <0>         0.0845
     36 H9          9.8380    3.2066    0.6540 H         1 <0>         0.0830
     37 H10        11.5977    1.4218    0.0625 H         1 <0>         0.0743
     38 H11        10.4406    0.9714    1.3397 H         1 <0>         0.0690
     39 H12        10.0363    0.2974   -1.6067 H         1 <0>         0.0659
     40 H13        10.8136   -0.8095   -0.4507 H         1 <0>         0.0706
     41 H14         8.3406   -1.2292   -0.7661 H         1 <0>         0.0866
     42 H15         8.8034   -0.8832    0.9200 H         1 <0>         0.0789
     43 O4         -5.8293   -2.8612    0.0425 O.co2     1 <0>        -0.7475
@<TRIPOS>BOND
     1    1    6 ar
     2    1    2 ar
     3    1   29 1
     4    2    3 ar
     5    2   30 1
     6    3    4 ar
     7    3   27 1
     8    4    5 ar
     9    4   31 1
    10    5    6 ar
    11    5   32 1
    12    6    7 1
    13    7   11 1
    14    7    8 2
    15    8    9 1
    16    8   33 1
    17    9   10 2
    18    9   34 1
    19   10   11 1
    20   10   12 1
    21   12   22 2
    22   12   13 1
    23   13   14 1
    24   13   15 am
    25   15   16 2
    26   15   17 1
    27   17   21 2
    28   17   18 1
    29   18   26 1
    30   18   19 2
    31   19   20 1
    32   19   23 1
    33   20   21 1
    34   21   22 1
    35   23   24 1
    36   23   35 1
    37   23   36 1
    38   24   25 1
    39   24   37 1
    40   24   38 1
    41   25   26 1
    42   25   39 1
    43   25   40 1
    44   26   41 1
    45   26   42 1
    46   27   28 2
    47   27   43 1
@<TRIPOS>MOLECULE
ZINC02746753
   46    49     0     0     0
SMALL
USER_CHARGES

@<TRIPOS>ATOM
      1 C1         -0.0200    1.5019    0.0078 C.3       1 <0>        -0.0756
      2 C2          0.0007   -0.0049   -0.0073 C.2       1 <0>        -0.1192
      3 C3         -1.0447   -0.8738   -0.0189 C.2       1 <0>        -0.1724
      4 C4         -0.7924   -2.2260   -0.0327 C.2       1 <0>        -0.0906
      5 C5          0.5105   -2.6534   -0.0342 C.2       1 <0>        -0.1427
      6 S1          1.4043   -1.1079   -0.0226 S.3       1 <0>         0.0663
      7 C6          1.0367   -4.0315   -0.0475 C.ar      1 <0>         0.2432
      8 C7          2.4292   -4.2272   -0.0407 C.ar      1 <0>        -0.1166
      9 C8          2.9349   -5.5177   -0.0531 C.ar      1 <0>        -0.0729
     10 C9          1.9700   -6.6187   -0.0729 C.ar      1 <0>        -0.0634
     11 C10         2.3862   -7.9539   -0.0859 C.ar      1 <0>        -0.1030
     12 C11         1.4547   -8.9500   -0.1039 C.ar      1 <0>        -0.1051
     13 C12         0.0937   -8.6540   -0.1099 C.ar      1 <0>        -0.0947
     14 C13        -0.3452   -7.3655   -0.0980 C.ar      1 <0>        -0.0907
     15 C14         0.5866   -6.3113   -0.0784 C.ar      1 <0>         0.1339
     16 N1          0.1852   -5.0387   -0.0602 N.ar      1 <0>        -0.4407
     17 C15         4.3915   -5.7723   -0.0469 C.2       1 <0>         0.5696
     18 O1          4.8091   -6.9107    0.0385 O.2       1 <0>        -0.4914
     19 N2          5.2561   -4.7423   -0.1361 N.am      1 <0>        -0.6698
     20 C16         6.6282   -4.9886   -0.2442 C.ar      1 <0>         0.2064
     21 C17         7.0834   -6.0924   -0.9538 C.ar      1 <0>        -0.1417
     22 C18         8.4393   -6.3326   -1.0591 C.ar      1 <0>         0.0013
     23 C19         9.3435   -5.4755   -0.4589 C.ar      1 <0>        -0.6926
     24 C20         8.8936   -4.3759    0.2488 C.ar      1 <0>         0.0064
     25 C21         7.5392   -4.1268    0.3530 C.ar      1 <0>        -0.1641
     26 S2         11.0726   -5.7856   -0.5956 S.o2      1 <0>         2.7035
     27 O2         11.6892   -5.1433    0.5119 O.2       1 <0>        -0.9621
     28 O3         11.2172   -7.1767   -0.8467 O.2       1 <0>        -0.9592
     29 N3         11.6047   -5.0017   -1.9538 N.pl3     1 <0>        -1.2481
     30 H1          1.0026    1.8793    0.0090 H         1 <0>         0.0753
     31 H2         -0.5411    1.8670   -0.8772 H         1 <0>         0.0860
     32 H3         -0.5365    1.8492    0.9027 H         1 <0>         0.0861
     33 H4         -2.0605   -0.5071   -0.0170 H         1 <0>         0.1403
     34 H5         -1.6050   -2.9373   -0.0417 H         1 <0>         0.1443
     35 H6          3.0985   -3.3797   -0.0262 H         1 <0>         0.1402
     36 H7          3.4390   -8.1948   -0.0821 H         1 <0>         0.1636
     37 H8          1.7764   -9.9809   -0.1139 H         1 <0>         0.1340
     38 H9         -0.6252   -9.4599   -0.1246 H         1 <0>         0.1358
     39 H10        -1.4041   -7.1533   -0.1037 H         1 <0>         0.1415
     40 H11         4.9265   -3.8301   -0.1252 H         1 <0>         0.4161
     41 H12         6.3778   -6.7624   -1.4225 H         1 <0>         0.1451
     42 H13         8.7939   -7.1909   -1.6104 H         1 <0>         0.1488
     43 H14         9.6024   -3.7087    0.7166 H         1 <0>         0.1494
     44 H15         7.1887   -3.2651    0.9017 H         1 <0>         0.1402
     45 H16        12.5152   -4.6698   -1.9969 H         1 <0>         0.4222
     46 H17        11.0060   -4.8744   -2.7063 H         1 <0>         0.4172
@<TRIPOS>BOND
     1    1    2 1
     2    1   30 1
     3    1   31 1
     4    1   32 1
     5    2    6 1
     6    2    3 2
     7    3    4 1
     8    3   33 1
     9    4    5 2
    10    4   34 1
    11    5    6 1
    12    5    7 1
    13    7   16 ar
    14    7    8 ar
    15    8    9 ar
    16    8   35 1
    17    9   10 ar
    18    9   17 1
    19   10   15 ar
    20   10   11 ar
    21   11   12 ar
    22   11   36 1
    23   12   13 ar
    24   12   37 1
    25   13   14 ar
    26   13   38 1
    27   14   15 ar
    28   14   39 1
    29   15   16 ar
    30   17   18 2
    31   17   19 am
    32   19   20 1
    33   19   40 1
    34   20   25 ar
    35   20   21 ar
    36   21   22 ar
    37   21   41 1
    38   22   23 ar
    39   22   42 1
    40   23   24 ar
    41   23   26 1
    42   24   25 ar
    43   24   43 1
    44   25   44 1
    45   26   27 2
    46   26   28 2
    47   26   29 1
    48   29   45 1
    49   29   46 1
@<TRIPOS>MOLECULE
ZINC03861807
   30    31     0     0     0
SMALL
USER_CHARGES

@<TRIPOS>ATOM
      1 C1         -0.0187    1.5258    0.0104 C.3       1 <0>        -0.1415
      2 C2          0.0021   -0.0041    0.0020 C.3       1 <0>        -0.1122
      3 C3          0.7421   -0.5109    1.2415 C.3       1 <0>        -0.1434
      4 C4         -1.4333   -0.5336    0.0129 C.3       1 <0>         0.1228
      5 N1         -2.1054   -0.1483   -1.2305 N.am      1 <0>        -0.5064
      6 C5         -2.7896    1.0542   -1.3029 C.2       1 <0>         0.3270
      7 C6         -3.4188    1.3971   -2.4931 C.2       1 <0>        -0.1566
      8 C7         -3.3428    0.5129   -3.5907 C.2       1 <0>         0.5930
      9 O1         -3.8857    0.7913   -4.6449 O.2       1 <0>        -0.5148
     10 N2         -2.6613   -0.6442   -3.4587 N.am      1 <0>        -0.5518
     11 C8         -2.0526   -0.9608   -2.3028 C.2       1 <0>         0.7063
     12 O2         -1.4428   -2.0098   -2.2221 O.2       1 <0>        -0.5287
     13 C9         -2.5785   -1.5664   -4.5940 C.3       1 <0>         0.0827
     14 N3         -4.0103    2.6257   -2.2774 N.pl3     1 <0>        -0.5187
     15 H1         -4.5284    3.1372   -2.9183 H         1 <0>         0.4381
     16 C10        -3.7321    2.9790   -1.0073 C.2       1 <0>         0.2767
     17 N4         -3.0113    2.0471   -0.4377 N.2       1 <0>        -0.4957
     18 H2          1.0039    1.9031    0.0027 H         1 <0>         0.0532
     19 H3         -0.5459    1.8868   -0.8726 H         1 <0>         0.0473
     20 H4         -0.5289    1.8773    0.9072 H         1 <0>         0.0653
     21 H5          0.5123   -0.3556   -0.8948 H         1 <0>         0.0742
     22 H6          0.2319   -0.1594    2.1383 H         1 <0>         0.0596
     23 H7          0.7568   -1.6008    1.2356 H         1 <0>         0.0591
     24 H8          1.7647   -0.1336    1.2338 H         1 <0>         0.0613
     25 H9         -1.4190   -1.6203    0.0965 H         1 <0>         0.1003
     26 H10        -1.9701   -0.1109    0.8621 H         1 <0>         0.1000
     27 H11        -3.1215   -1.1486   -5.4417 H         1 <0>         0.1034
     28 H12        -1.5337   -1.7124   -4.8680 H         1 <0>         0.0826
     29 H13        -3.0188   -2.5242   -4.3168 H         1 <0>         0.0828
     30 H14        -4.0547    3.8934   -0.5315 H         1 <0>         0.2343
@<TRIPOS>BOND
     1    1    2 1
     2    1   18 1
     3    1   19 1
     4    1   20 1
     5    2    3 1
     6    2    4 1
     7    2   21 1
     8    3   22 1
     9    3   23 1
    10    3   24 1
    11    4    5 1
    12    4   25 1
    13    4   26 1
    14    5   11 am
    15    5    6 1
    16    6   17 1
    17    6    7 2
    18    7    8 1
    19    7   14 1
    20    8    9 2
    21    8   10 am
    22   10   11 am
    23   10   13 1
    24   11   12 2
    25   13   27 1
    26   13   28 1
    27   13   29 1
    28   14   15 1
    29   14   16 1
    30   16   17 2
    31   16   30 1
@<TRIPOS>MOLECULE
ZINC14953365
   31    33     0     0     0
SMALL
USER_CHARGES

@<TRIPOS>ATOM
      1 C1         -0.0187    1.5258    0.0104 C.3       1 <0>        -0.1423
      2 C2          0.0021   -0.0041    0.0020 C.3       1 <0>        -0.1231
      3 C3          0.7421   -0.5109    1.2415 C.3       1 <0>         0.0541
      4 O1          0.7614   -1.9398    1.2337 O.3       1 <0>        -0.2395
      5 C4          1.3846   -2.5535    2.2722 C.ar      1 <0>         0.1595
      6 C5          1.9611   -1.7987    3.2821 C.ar      1 <0>        -0.2333
      7 C6          2.5948   -2.4244    4.3380 C.ar      1 <0>        -0.0982
      8 C7          2.6582   -3.8062    4.3957 C.ar      1 <0>        -0.1779
      9 C8          2.0888   -4.5703    3.3986 C.ar      1 <0>        -0.0533
     10 C9          1.4423   -3.9501    2.3303 C.ar      1 <0>        -0.0190
     11 C10         0.8245   -4.7657    1.2592 C.ar      1 <0>         0.3508
     12 N1          0.2275   -4.1264    0.2544 N.ar      1 <0>        -0.6291
     13 C11        -0.3501   -4.7739   -0.7445 C.ar      1 <0>         0.5035
     14 O2         -0.9512   -4.1076   -1.7566 O.3       1 <0>        -0.7157
     15 C12        -0.3151   -6.2310   -0.7156 C.ar      1 <0>        -0.1910
     16 N2         -0.7406   -7.2297   -1.4617 N.2       1 <0>        -0.3291
     17 N3         -0.3994   -8.3395   -0.9027 N.2       1 <0>        -0.1963
     18 N4          0.2445   -8.1643    0.1989 N.2       1 <0>        -0.3779
     19 C13         0.3620   -6.8697    0.4258 C.ar      1 <0>         0.1454
     20 N5          0.9051   -6.0766    1.3584 N.ar      1 <0>        -0.5680
     21 H1          1.0039    1.9031    0.0027 H         1 <0>         0.0496
     22 H2         -0.5459    1.8868   -0.8726 H         1 <0>         0.0570
     23 H3         -0.5289    1.8773    0.9072 H         1 <0>         0.0496
     24 H4         -1.0205   -0.3814    0.0098 H         1 <0>         0.0770
     25 H5          0.5123   -0.3556   -0.8948 H         1 <0>         0.0771
     26 H6          1.7647   -0.1336    1.2338 H         1 <0>         0.0463
     27 H7          0.2319   -0.1594    2.1383 H         1 <0>         0.0462
     28 H8          1.9151   -0.7204    3.2430 H         1 <0>         0.1171
     29 H9          3.0433   -1.8327    5.1223 H         1 <0>         0.1089
     30 H10         3.1558   -4.2876    5.2246 H         1 <0>         0.1125
     31 H11         2.1408   -5.6480    3.4470 H         1 <0>         0.1392
@<TRIPOS>BOND
     1    1    2 1
     2    1   21 1
     3    1   22 1
     4    1   23 1
     5    2    3 1
     6    2   24 1
     7    2   25 1
     8    3    4 1
     9    3   26 1
    10    3   27 1
    11    4    5 1
    12    5   10 ar
    13    5    6 ar
    14    6    7 ar
    15    6   28 1
    16    7    8 ar
    17    7   29 1
    18    8    9 ar
    19    8   30 1
    20    9   10 ar
    21    9   31 1
    22   10   11 1
    23   11   20 ar
    24   11   12 ar
    25   12   13 ar
    26   13   14 1
    27   13   15 ar
    28   15   19 ar
    29   15   16 2
    30   16   17 1
    31   17   18 1
    32   18   19 2
    33   19   20 ar
@<TRIPOS>MOLECULE
ZINC14953365
   32    34     0     0     0
SMALL
USER_CHARGES

@<TRIPOS>ATOM
      1 C1         -0.0187    1.5258    0.0104 C.3       1 <0>        -0.1458
      2 C2          0.0021   -0.0041    0.0020 C.3       1 <0>        -0.1216
      3 C3         -1.4333   -0.5336    0.0129 C.3       1 <0>         0.0534
      4 O1         -1.4139   -1.9625    0.0050 O.3       1 <0>        -0.2533
      5 C4         -2.6153   -2.5953    0.0131 C.ar      1 <0>         0.1746
      6 C5         -3.7897   -1.8588    0.0225 C.ar      1 <0>        -0.2311
      7 C6         -5.0111   -2.5039    0.0312 C.ar      1 <0>        -0.0713
      8 C7         -5.0711   -3.8869    0.0301 C.ar      1 <0>        -0.1782
      9 C8         -3.9107   -4.6328    0.0203 C.ar      1 <0>        -0.0340
     10 C9         -2.6726   -3.9927    0.0061 C.ar      1 <0>        -0.0608
     11 C10        -1.4229   -4.7891   -0.0106 C.ar      1 <0>         0.4081
     12 N1         -0.2554   -4.1511   -0.0133 N.ar      1 <0>        -0.5727
     13 C11         0.8902   -4.8180   -0.0276 C.ar      1 <0>         0.4867
     14 O2          2.0741   -4.1594   -0.0298 O.3       1 <0>        -0.6795
     15 C12         0.8508   -6.2155   -0.0399 C.ar      1 <0>        -0.1593
     16 C13        -0.4029   -6.8559   -0.0366 C.ar      1 <0>         0.2596
     17 N2         -1.5075   -6.1089   -0.0169 N.ar      1 <0>        -0.5690
     18 N3         -0.1345   -8.1734   -0.0512 N.2       1 <0>        -0.2773
     19 N4          1.1405   -8.3484   -0.0624 N.2       1 <0>        -0.0384
     20 N5          1.7753   -7.2265   -0.0565 N.pl3     1 <0>        -0.3729
     21 H1          2.7391   -7.1171   -0.0631 H         1 <0>         0.4476
     22 H2          1.0039    1.9031    0.0027 H         1 <0>         0.0602
     23 H3         -0.5459    1.8868   -0.8726 H         1 <0>         0.0527
     24 H4         -0.5289    1.8773    0.9072 H         1 <0>         0.0527
     25 H5          0.5123   -0.3556   -0.8948 H         1 <0>         0.0759
     26 H6          0.5293   -0.3651    0.8851 H         1 <0>         0.0760
     27 H7         -1.9435   -0.1821    0.9097 H         1 <0>         0.0536
     28 H8         -1.9605   -0.1726   -0.8702 H         1 <0>         0.0536
     29 H9         -3.7496   -0.7795    0.0234 H         1 <0>         0.1258
     30 H10        -5.9238   -1.9264    0.0393 H         1 <0>         0.1192
     31 H11        -6.0299   -4.3838    0.0374 H         1 <0>         0.1223
     32 H12        -3.9616   -5.7116    0.0195 H         1 <0>         0.1433
@<TRIPOS>BOND
     1    1    2 1
     2    1   22 1
     3    1   23 1
     4    1   24 1
     5    2    3 1
     6    2   25 1
     7    2   26 1
     8    3    4 1
     9    3   27 1
    10    3   28 1
    11    4    5 1
    12    5   10 ar
    13    5    6 ar
    14    6    7 ar
    15    6   29 1
    16    7    8 ar
    17    7   30 1
    18    8    9 ar
    19    8   31 1
    20    9   10 ar
    21    9   32 1
    22   10   11 1
    23   11   17 ar
    24   11   12 ar
    25   12   13 ar
    26   13   14 1
    27   13   15 ar
    28   15   16 ar
    29   15   20 1
    30   16   17 ar
    31   16   18 1
    32   18   19 2
    33   19   20 1
    34   20   21 1
@<TRIPOS>MOLECULE
ZINC14953365
   32    34     0     0     0
SMALL
USER_CHARGES

@<TRIPOS>ATOM
      1 C1         -0.0187    1.5258    0.0104 C.3       1 <0>        -0.1457
      2 C2          0.0021   -0.0041    0.0020 C.3       1 <0>        -0.1224
      3 C3         -1.4333   -0.5336    0.0129 C.3       1 <0>         0.0532
      4 O1         -1.4139   -1.9625    0.0050 O.3       1 <0>        -0.2520
      5 C4         -2.6152   -2.5953    0.0131 C.ar      1 <0>         0.1789
      6 C5         -3.7896   -1.8588    0.0225 C.ar      1 <0>        -0.2310
      7 C6         -5.0111   -2.5039    0.0308 C.ar      1 <0>        -0.0680
      8 C7         -5.0712   -3.8870    0.0297 C.ar      1 <0>        -0.1802
      9 C8         -3.9111   -4.6331    0.0208 C.ar      1 <0>        -0.0323
     10 C9         -2.6726   -3.9930    0.0061 C.ar      1 <0>        -0.0665
     11 C10        -1.4235   -4.7891   -0.0106 C.ar      1 <0>         0.4378
     12 N1         -0.2555   -4.1526   -0.0133 N.ar      1 <0>        -0.5853
     13 C11         0.8886   -4.8183   -0.0276 C.ar      1 <0>         0.5093
     14 O2          2.0713   -4.1592   -0.0297 O.3       1 <0>        -0.6423
     15 C12         0.8505   -6.2267   -0.0400 C.ar      1 <0>        -0.1919
     16 C13        -0.4080   -6.8564   -0.0366 C.ar      1 <0>         0.3382
     17 N2         -1.5070   -6.1104   -0.0169 N.ar      1 <0>        -0.6189
     18 N3         -0.1580   -8.2010   -0.0510 N.pl3     1 <0>        -0.5059
     19 N4          1.2372   -8.3495   -0.0627 N.2       1 <0>        -0.0830
     20 N5          1.7907   -7.1872   -0.0559 N.2       1 <0>        -0.1662
     21 H1         -0.8167   -8.9130   -0.0527 H         1 <0>         0.4358
     22 H2          1.0039    1.9031    0.0027 H         1 <0>         0.0608
     23 H3         -0.5459    1.8868   -0.8726 H         1 <0>         0.0526
     24 H4         -0.5289    1.8773    0.9072 H         1 <0>         0.0526
     25 H5          0.5123   -0.3556   -0.8948 H         1 <0>         0.0768
     26 H6          0.5293   -0.3651    0.8851 H         1 <0>         0.0769
     27 H7         -1.9435   -0.1821    0.9097 H         1 <0>         0.0542
     28 H8         -1.9605   -0.1726   -0.8702 H         1 <0>         0.0542
     29 H9         -3.7496   -0.7795    0.0238 H         1 <0>         0.1271
     30 H10        -5.9237   -1.9264    0.0385 H         1 <0>         0.1201
     31 H11        -6.0302   -4.3837    0.0362 H         1 <0>         0.1222
     32 H12        -3.9622   -5.7119    0.0203 H         1 <0>         0.1409
@<TRIPOS>BOND
     1    1    2 1
     2    1   22 1
     3    1   23 1
     4    1   24 1
     5    2    3 1
     6    2   25 1
     7    2   26 1
     8    3    4 1
     9    3   27 1
    10    3   28 1
    11    4    5 1
    12    5   10 ar
    13    5    6 ar
    14    6    7 ar
    15    6   29 1
    16    7    8 ar
    17    7   30 1
    18    8    9 ar
    19    8   31 1
    20    9   10 ar
    21    9   32 1
    22   10   11 1
    23   11   17 ar
    24   11   12 ar
    25   12   13 ar
    26   13   14 1
    27   13   15 ar
    28   15   16 ar
    29   15   20 1
    30   16   17 ar
    31   16   18 1
    32   18   21 1
    33   18   19 1
    34   19   20 2
@<TRIPOS>MOLECULE
ZINC14953365
   32    34     0     0     0
SMALL
USER_CHARGES

@<TRIPOS>ATOM
      1 C1         -0.0187    1.5258    0.0104 C.3       1 <0>        -0.1457
      2 C2          0.0021   -0.0041    0.0020 C.3       1 <0>        -0.1218
      3 C3          0.7421   -0.5109    1.2415 C.3       1 <0>         0.0528
      4 O1          0.7614   -1.9398    1.2337 O.3       1 <0>        -0.2494
      5 C4          1.3846   -2.5535    2.2722 C.ar      1 <0>         0.1779
      6 C5          1.9611   -1.7987    3.2821 C.ar      1 <0>        -0.2330
      7 C6          2.5948   -2.4244    4.3380 C.ar      1 <0>        -0.0705
      8 C7          2.6582   -3.8062    4.3957 C.ar      1 <0>        -0.1809
      9 C8          2.0888   -4.5703    3.3986 C.ar      1 <0>        -0.0318
     10 C9          1.4423   -3.9501    2.3303 C.ar      1 <0>        -0.0655
     11 C10         0.8245   -4.7657    1.2592 C.ar      1 <0>         0.4409
     12 N1          0.2275   -4.1264    0.2544 N.ar      1 <0>        -0.6040
     13 C11        -0.3501   -4.7739   -0.7445 C.ar      1 <0>         0.5269
     14 O2         -0.9512   -4.1076   -1.7566 O.3       1 <0>        -0.6419
     15 C12        -0.3151   -6.2310   -0.7156 C.ar      1 <0>        -0.1264
     16 N2         -0.7406   -7.2297   -1.4617 N.2       1 <0>        -0.2278
     17 N3         -0.3994   -8.3395   -0.9027 N.pl3     1 <0>        -0.2462
     18 N4          0.2445   -8.1643    0.1989 N.2       1 <0>        -0.3215
     19 C13         0.3620   -6.8697    0.4258 C.ar      1 <0>         0.2652
     20 N5          0.9051   -6.0766    1.3584 N.ar      1 <0>        -0.5901
     21 H1          1.0039    1.9031    0.0027 H         1 <0>         0.0523
     22 H2         -0.5459    1.8868   -0.8726 H         1 <0>         0.0600
     23 H3         -0.5289    1.8773    0.9072 H         1 <0>         0.0523
     24 H4         -1.0205   -0.3814    0.0098 H         1 <0>         0.0764
     25 H5          0.5123   -0.3556   -0.8948 H         1 <0>         0.0765
     26 H6          1.7647   -0.1336    1.2338 H         1 <0>         0.0531
     27 H7          0.2319   -0.1594    2.1383 H         1 <0>         0.0530
     28 H8          1.9151   -0.7204    3.2430 H         1 <0>         0.1254
     29 H9          3.0433   -1.8327    5.1223 H         1 <0>         0.1184
     30 H10         3.1558   -4.2876    5.2246 H         1 <0>         0.1211
     31 H11         2.1408   -5.6480    3.4470 H         1 <0>         0.1429
     32 H12        -0.6055   -9.2126   -1.2715 H         1 <0>         0.4610
@<TRIPOS>BOND
     1    1    2 1
     2    1   21 1
     3    1   22 1
     4    1   23 1
     5    2    3 1
     6    2   24 1
     7    2   25 1
     8    3    4 1
     9    3   26 1
    10    3   27 1
    11    4    5 1
    12    5   10 ar
    13    5    6 ar
    14    6    7 ar
    15    6   28 1
    16    7    8 ar
    17    7   29 1
    18    8    9 ar
    19    8   30 1
    20    9   10 ar
    21    9   31 1
    22   10   11 1
    23   11   20 ar
    24   11   12 ar
    25   12   13 ar
    26   13   14 1
    27   13   15 ar
    28   15   19 ar
    29   15   16 2
    30   16   17 1
    31   17   18 1
    32   17   32 1
    33   18   19 2
    34   19   20 ar
@<TRIPOS>MOLECULE
ZINC01537820
   46    49     0     0     0
SMALL
USER_CHARGES
N-(benzo[1,3]dioxol-5-ylmethyl)-6,7,8-trimethoxy-quinazolin-4-amine
@<TRIPOS>ATOM
      1 C1         -0.1990    0.8421    0.1000 C.3       1 <0>         0.0214
      2 O1         -0.7713    1.3787    1.2944 O.3       1 <0>        -0.3002
      3 C2         -0.8313    2.7334    1.3956 C.ar      1 <0>         0.1161
      4 C3         -0.3483    3.5087    0.3784 C.ar      1 <0>        -0.1701
      5 C4         -0.4135    4.9036    0.4767 C.ar      1 <0>        -0.1528
      6 C5         -0.9679    5.5053    1.6332 C.ar      1 <0>         0.1544
      7 C6         -1.4530    4.6909    2.6689 C.ar      1 <0>         0.1233
      8 C7         -1.3815    3.3174    2.5425 C.ar      1 <0>         0.1005
      9 O2         -1.8500    2.5243    3.5429 O.3       1 <0>        -0.3187
     10 C8         -3.2225    2.1328    3.4716 C.3       1 <0>         0.0387
     11 O3         -1.9893    5.2498    3.7869 O.3       1 <0>        -0.3100
     12 C9         -1.0933    5.5366    4.8626 C.3       1 <0>         0.0423
     13 N1         -1.0127    6.8448    1.7051 N.ar      1 <0>        -0.5310
     14 C10        -0.5512    7.5791    0.7215 C.ar      1 <0>         0.3411
     15 N2         -0.0247    7.0615   -0.3777 N.ar      1 <0>        -0.5866
     16 C11         0.0680    5.7500   -0.5506 C.ar      1 <0>         0.4705
     17 N3          0.6186    5.2244   -1.7016 N.pl3     1 <0>        -0.6944
     18 C12         1.1109    6.1185   -2.7526 C.3       1 <0>         0.1752
     19 C13         1.6588    5.2996   -3.8929 C.ar      1 <0>        -0.1080
     20 C14         2.9931    4.9379   -3.9036 C.ar      1 <0>        -0.0856
     21 C15         3.4990    4.1820   -4.9446 C.ar      1 <0>        -0.1023
     22 C16         2.6717    3.7952   -5.9865 C.ar      1 <0>         0.0441
     23 C17         1.3288    4.1641   -5.9783 C.ar      1 <0>         0.0302
     24 C18         0.8273    4.9166   -4.9287 C.ar      1 <0>        -0.0799
     25 O4          0.7329    3.6666   -7.1011 O.3       1 <0>        -0.3070
     26 C19         1.8122    3.3394   -7.9963 C.3       1 <0>         0.2126
     27 O5          2.9172    3.0666   -7.1144 O.3       1 <0>        -0.3071
     28 H1         -0.2123   -0.2468    0.1481 H         1 <0>         0.1069
     29 H2          0.8298    1.1889    0.0025 H         1 <0>         0.0584
     30 H3         -0.7778    1.1749   -0.7616 H         1 <0>         0.0575
     31 H4          0.0779    3.0466   -0.4998 H         1 <0>         0.1382
     32 H5         -3.8519    3.0215    3.4258 H         1 <0>         0.0525
     33 H6         -3.3819    1.5282    2.5787 H         1 <0>         0.0489
     34 H7         -3.4804    1.5499    4.3558 H         1 <0>         0.0987
     35 H8         -0.6562    4.6077    5.2288 H         1 <0>         0.0496
     36 H9         -0.3010    6.1966    4.5094 H         1 <0>         0.0494
     37 H10        -1.6394    6.0243    5.6701 H         1 <0>         0.0982
     38 H11        -0.6028    8.6541    0.8121 H         1 <0>         0.1975
     39 H12         0.6798    4.2630   -1.8148 H         1 <0>         0.4111
     40 H13         0.2920    6.7411   -3.1129 H         1 <0>         0.0850
     41 H14         1.8998    6.7534   -2.3493 H         1 <0>         0.0875
     42 H15         3.6406    5.2429   -3.0948 H         1 <0>         0.1422
     43 H16         4.5408    3.8974   -4.9484 H         1 <0>         0.1402
     44 H17        -0.2136    5.2043   -4.9199 H         1 <0>         0.1385
     45 H18         2.0403    4.1842   -8.6461 H         1 <0>         0.0881
     46 H19         1.5661    2.4565   -8.5864 H         1 <0>         0.1351
@<TRIPOS>BOND
     1    1    2 1
     2    1   28 1
     3    1   29 1
     4    1   30 1
     5    2    3 1
     6    3    8 ar
     7    3    4 ar
     8    4    5 ar
     9    4   31 1
    10    5   16 ar
    11    5    6 ar
    12    6    7 ar
    13    6   13 ar
    14    7    8 ar
    15    7   11 1
    16    8    9 1
    17    9   10 1
    18   10   32 1
    19   10   33 1
    20   10   34 1
    21   11   12 1
    22   12   35 1
    23   12   36 1
    24   12   37 1
    25   13   14 ar
    26   14   15 ar
    27   14   38 1
    28   15   16 ar
    29   16   17 1
    30   17   18 1
    31   17   39 1
    32   18   19 1
    33   18   40 1
    34   18   41 1
    35   19   24 ar
    36   19   20 ar
    37   20   21 ar
    38   20   42 1
    39   21   22 ar
    40   21   43 1
    41   22   27 1
    42   22   23 ar
    43   23   24 ar
    44   23   25 1
    45   24   44 1
    46   25   26 1
    47   26   27 1
    48   26   45 1
    49   26   46 1
@<TRIPOS>MOLECULE
ZINC02557949
   38    41     0     0     0
SMALL
USER_CHARGES

@<TRIPOS>ATOM
      1 C1          0.0248    1.4479    0.1258 C.ar      1 <0>        -0.1081
      2 C2          0.5882    0.9853    1.3016 C.ar      1 <0>        -0.1197
      3 C3          1.7868    0.3024    1.2737 C.ar      1 <0>        -0.1047
      4 C4          2.4306    0.0788    0.0565 C.ar      1 <0>        -0.0355
      5 C5          1.8573    0.5478   -1.1256 C.ar      1 <0>        -0.0815
      6 C6          0.6584    1.2294   -1.0845 C.ar      1 <0>        -0.1188
      7 C7          3.7173   -0.6530    0.0194 C.ar      1 <0>         0.1014
      8 C8          3.8966   -1.8339    0.7825 C.ar      1 <0>        -0.0335
      9 C9          2.8931   -2.3669    1.5965 C.ar      1 <0>        -0.1004
     10 C10         3.1386   -3.5085    2.3023 C.ar      1 <0>        -0.0891
     11 C11         4.3723   -4.1492    2.2236 C.ar      1 <0>        -0.1022
     12 C12         5.3723   -3.6547    1.4385 C.ar      1 <0>        -0.0893
     13 C13         5.1529   -2.4861    0.7021 C.ar      1 <0>        -0.1036
     14 C14         6.1394   -1.9127   -0.1339 C.ar      1 <0>         0.3628
     15 N1          5.8522   -0.8058   -0.7974 N.ar      1 <0>        -0.3143
     16 N2          4.7159   -0.2186   -0.7300 N.ar      1 <0>        -0.2079
     17 N3          7.3874   -2.5016   -0.2551 N.pl3     1 <0>        -0.6409
     18 C15         8.3911   -1.8666   -0.9912 C.ar      1 <0>         0.1686
     19 C16         8.4745   -0.4796   -1.0025 C.ar      1 <0>        -0.1096
     20 C17         9.4676    0.1454   -1.7304 C.ar      1 <0>        -0.0828
     21 C18        10.3789   -0.6072   -2.4484 C.ar      1 <0>        -0.1258
     22 C19        10.2993   -1.9887   -2.4397 C.ar      1 <0>        -0.0138
     23 C20         9.3109   -2.6205   -1.7084 C.ar      1 <0>        -0.1425
     24 Cl1        11.4452   -2.9293   -3.3430 Cl        1 <0>        -0.0654
     25 H1         -0.9158    1.9780    0.1524 H         1 <0>         0.1257
     26 H2          0.0890    1.1593    2.2434 H         1 <0>         0.1279
     27 H3          2.2259   -0.0580    2.1922 H         1 <0>         0.1266
     28 H4          2.3510    0.3778   -2.0711 H         1 <0>         0.1282
     29 H5          0.2136    1.5930   -1.9990 H         1 <0>         0.1279
     30 H6          1.9320   -1.8793    1.6664 H         1 <0>         0.1467
     31 H7          2.3643   -3.9213    2.9319 H         1 <0>         0.1364
     32 H8          4.5402   -5.0513    2.7932 H         1 <0>         0.1358
     33 H9          6.3250   -4.1609    1.3863 H         1 <0>         0.1321
     34 H10         7.5645   -3.3548    0.1710 H         1 <0>         0.4202
     35 H11         7.7628    0.1092   -0.4427 H         1 <0>         0.1410
     36 H12         9.5325    1.2234   -1.7392 H         1 <0>         0.1376
     37 H13        11.1543   -0.1157   -3.0173 H         1 <0>         0.1355
     38 H14         9.2512   -3.6988   -1.6984 H         1 <0>         0.1349
@<TRIPOS>BOND
     1    1    6 ar
     2    1    2 ar
     3    1   25 1
     4    2    3 ar
     5    2   26 1
     6    3    4 ar
     7    3   27 1
     8    4    5 ar
     9    4    7 1
    10    5    6 ar
    11    5   28 1
    12    6   29 1
    13    7   16 ar
    14    7    8 ar
    15    8   13 ar
    16    8    9 ar
    17    9   10 ar
    18    9   30 1
    19   10   11 ar
    20   10   31 1
    21   11   12 ar
    22   11   32 1
    23   12   13 ar
    24   12   33 1
    25   13   14 ar
    26   14   15 ar
    27   14   17 1
    28   15   16 ar
    29   17   18 1
    30   17   34 1
    31   18   23 ar
    32   18   19 ar
    33   19   20 ar
    34   19   35 1
    35   20   21 ar
    36   20   36 1
    37   21   22 ar
    38   21   37 1
    39   22   23 ar
    40   22   24 1
    41   23   38 1
@<TRIPOS>MOLECULE
ZINC04199922
   43    45     0     0     0
SMALL
USER_CHARGES
4-(2-ethoxyphenyl)-9-methyl-7-propyl-3,5,6,8-tetrazabicyclo[4.3.0]nona-4,7,9-trien-2-one
@<TRIPOS>ATOM
      1 C1         -0.0366    1.0992   -2.4903 C.3       1 <0>        -0.1513
      2 C2         -0.7527    1.5927   -1.2315 C.3       1 <0>        -0.1161
      3 C3         -0.0127    1.0858    0.0080 C.3       1 <0>        -0.0374
      4 C4         -0.7181    1.5718    1.2479 C.2       1 <0>         0.2916
      5 N1         -1.6792    0.9333    1.8731 N.2       1 <0>        -0.4782
      6 C5         -2.0791    1.6416    2.9301 C.2       1 <0>         0.1312
      7 C6         -1.3236    2.7873    2.9653 C.2       1 <0>        -0.1680
      8 N2         -0.4575    2.7212    1.8873 N.pl3     1 <0>        -0.2802
      9 N3          0.4363    3.7734    1.6691 N.2       1 <0>        -0.2699
     10 C7          0.4733    4.8020    2.4664 C.2       1 <0>         0.4200
     11 N4         -0.3605    4.9215    3.5598 N.am      1 <0>        -0.6726
     12 H1         -0.2981    5.7294    4.1457 H         1 <0>         0.4275
     13 C8         -1.2610    3.9540    3.8443 C.2       1 <0>         0.6004
     14 O1         -2.0005    4.0519    4.8066 O.2       1 <0>        -0.4912
     15 C9          1.4435    5.8816    2.1903 C.ar      1 <0>        -0.1102
     16 C10         1.5078    6.9976    3.0258 C.ar      1 <0>        -0.0467
     17 C11         2.4158    8.0018    2.7633 C.ar      1 <0>        -0.1566
     18 C12         3.2647    7.9078    1.6735 C.ar      1 <0>        -0.0434
     19 C13         3.2106    6.8080    0.8391 C.ar      1 <0>        -0.2141
     20 C14         2.3074    5.7877    1.0922 C.ar      1 <0>         0.1915
     21 O2          2.2572    4.7037    0.2762 O.3       1 <0>        -0.2774
     22 C15         3.1688    4.6771   -0.8240 C.3       1 <0>         0.0476
     23 C16         2.9655    3.3888   -1.6238 C.3       1 <0>        -0.1528
     24 C17        -3.1605    1.2552    3.9061 C.3       1 <0>        -0.0779
     25 H2          0.9860    1.4765   -2.4981 H         1 <0>         0.0571
     26 H3         -0.0218    0.0093   -2.4963 H         1 <0>         0.0585
     27 H4         -0.5637    1.4603   -3.3734 H         1 <0>         0.0579
     28 H5         -1.7753    1.2154   -1.2238 H         1 <0>         0.0691
     29 H6         -0.7675    2.6825   -1.2255 H         1 <0>         0.0624
     30 H7          0.0021   -0.0041    0.0020 H         1 <0>         0.0997
     31 H8          1.0099    1.4631    0.0003 H         1 <0>         0.0905
     32 H9          0.8471    7.0749    3.8766 H         1 <0>         0.1334
     33 H10         2.4651    8.8649    3.4105 H         1 <0>         0.1379
     34 H11         3.9732    8.6983    1.4749 H         1 <0>         0.1359
     35 H12         3.8756    6.7415   -0.0093 H         1 <0>         0.1401
     36 H13         2.9862    5.5373   -1.4680 H         1 <0>         0.0650
     37 H14         4.1917    4.7145   -0.4492 H         1 <0>         0.0648
     38 H15         3.1481    2.5286   -0.9798 H         1 <0>         0.0677
     39 H16         1.9426    3.3514   -1.9985 H         1 <0>         0.0702
     40 H17         3.6608    3.3685   -2.4630 H         1 <0>         0.0797
     41 H18        -2.7235    0.6841    4.7252 H         1 <0>         0.0811
     42 H19        -3.6316    2.1552    4.3014 H         1 <0>         0.0829
     43 H20        -3.9085    0.6470    3.3975 H         1 <0>         0.0806
@<TRIPOS>BOND
     1    1    2 1
     2    1   25 1
     3    1   26 1
     4    1   27 1
     5    2    3 1
     6    2   28 1
     7    2   29 1
     8    3    4 1
     9    3   30 1
    10    3   31 1
    11    4    8 1
    12    4    5 2
    13    5    6 1
    14    6    7 2
    15    6   24 1
    16    7   13 1
    17    7    8 1
    18    8    9 1
    19    9   10 2
    20   10   11 1
    21   10   15 1
    22   11   12 1
    23   11   13 am
    24   13   14 2
    25   15   20 ar
    26   15   16 ar
    27   16   17 ar
    28   16   32 1
    29   17   18 ar
    30   17   33 1
    31   18   19 ar
    32   18   34 1
    33   19   20 ar
    34   19   35 1
    35   20   21 1
    36   21   22 1
    37   22   23 1
    38   22   36 1
    39   22   37 1
    40   23   38 1
    41   23   39 1
    42   23   40 1
    43   24   41 1
    44   24   42 1
    45   24   43 1
@<TRIPOS>MOLECULE
ZINC05770091
   42    45     0     0     0
SMALL
USER_CHARGES
4-[5-[(3-cyano-4,5,6,7-tetrahydrobenzothiophen-2-yl)iminomethyl]-2-furyl]benzoic acid
@<TRIPOS>ATOM
      1 C1         -3.6142   13.1388   -3.1375 C.ar      1 <0>        -0.0960
      2 C2         -3.7738   14.3810   -2.5930 C.ar      1 <0>        -0.0823
      3 C3         -3.5406   14.5818   -1.2287 C.ar      1 <0>        -0.0853
      4 C4         -3.1490   13.5095   -0.4207 C.ar      1 <0>        -0.0908
      5 C5         -2.9939   12.2661   -0.9639 C.ar      1 <0>        -0.1000
      6 C6         -3.2272   12.0650   -2.3286 C.ar      1 <0>        -0.0618
      7 C7         -3.0593   10.7231   -2.9152 C.2       1 <0>         0.1125
      8 C8         -3.2565   10.3931   -4.2375 C.2       1 <0>        -0.2208
      9 C9         -2.9844    9.0285   -4.3623 C.2       1 <0>        -0.1098
     10 C10        -2.6374    8.5729   -3.1036 C.2       1 <0>        -0.0465
     11 O1         -2.6872    9.6149   -2.2486 O.3       1 <0>        -0.1389
     12 C11        -2.2852    7.2448   -2.7714 C.2       1 <0>         0.2510
     13 N1         -1.9691    6.9395   -1.5345 N.2       1 <0>        -0.4344
     14 C12        -1.6334    5.6737   -1.2178 C.2       1 <0>         0.0898
     15 C13        -1.2672    5.1409    0.0251 C.2       1 <0>        -0.0412
     16 C14        -0.9583    3.7718    0.1040 C.2       1 <0>        -0.0792
     17 C15        -1.0379    3.0572   -1.0464 C.2       1 <0>        -0.1309
     18 S1         -1.5393    4.2357   -2.2724 S.3       1 <0>         0.0186
     19 C16        -0.7619    1.5978   -1.2309 C.3       1 <0>        -0.0406
     20 C17        -0.0127    1.0858    0.0080 C.3       1 <0>        -0.1148
     21 C18        -0.7361    1.5830    1.2629 C.3       1 <0>        -0.1203
     22 C19        -0.5497    3.0926    1.4089 C.3       1 <0>        -0.0639
     23 C20        -1.2086    5.9727    1.1893 C.1       1 <0>         0.2699
     24 N2         -1.1620    6.6326    2.1128 N.1       1 <0>        -0.4094
     25 C21        -3.7071   15.9250   -0.6419 C.2       1 <0>         0.4849
     26 O2         -3.5041   16.0997    0.5432 O.co2     1 <0>        -0.6249
     27 H1         -3.7900   12.9847   -4.1919 H         1 <0>         0.1262
     28 H2         -4.0762   15.2092   -3.2167 H         1 <0>         0.1405
     29 H3         -2.9689   13.6649    0.6328 H         1 <0>         0.1344
     30 H4         -2.6908   11.4383   -0.3400 H         1 <0>         0.1247
     31 H5         -3.5597   11.0628   -5.0286 H         1 <0>         0.1625
     32 H6         -3.0372    8.4416   -5.2674 H         1 <0>         0.1639
     33 H7         -2.2762    6.4814   -3.5353 H         1 <0>         0.1421
     34 H8         -0.1472    1.4497   -2.1187 H         1 <0>         0.0854
     35 H9         -1.7022    1.0574   -1.3405 H         1 <0>         0.0875
     36 H10         0.0021   -0.0041    0.0020 H         1 <0>         0.0761
     37 H11         1.0090    1.4654    0.0003 H         1 <0>         0.0705
     38 H12        -1.7996    1.3587    1.1805 H         1 <0>         0.0685
     39 H13        -0.3282    1.0793    2.1393 H         1 <0>         0.0728
     40 H14         0.4972    3.3096    1.6213 H         1 <0>         0.0816
     41 H15        -1.1719    3.4629    2.2237 H         1 <0>         0.0773
     42 O3         -4.0844   16.9583   -1.4203 O.co2     1 <0>        -0.7488
@<TRIPOS>BOND
     1    1    6 ar
     2    1    2 ar
     3    1   27 1
     4    2    3 ar
     5    2   28 1
     6    3    4 ar
     7    3   25 1
     8    4    5 ar
     9    4   29 1
    10    5    6 ar
    11    5   30 1
    12    6    7 1
    13    7   11 1
    14    7    8 2
    15    8    9 1
    16    8   31 1
    17    9   10 2
    18    9   32 1
    19   10   11 1
    20   10   12 1
    21   12   13 2
    22   12   33 1
    23   13   14 1
    24   14   18 1
    25   14   15 2
    26   15   16 1
    27   15   23 1
    28   16   22 1
    29   16   17 2
    30   17   18 1
    31   17   19 1
    32   19   20 1
    33   19   34 1
    34   19   35 1
    35   20   21 1
    36   20   36 1
    37   20   37 1
    38   21   22 1
    39   21   38 1
    40   21   39 1
    41   22   40 1
    42   22   41 1
    43   23   24 3
    44   25   26 2
    45   25   42 1
@<TRIPOS>MOLECULE
ZINC05996560
   31    33     0     0     0
SMALL
USER_CHARGES
9-[(2-fluorophenyl)methyl]-N-methyl-purin-6-amine
@<TRIPOS>ATOM
      1 C1         -3.1510   -2.2591    6.2576 C.3       1 <0>         0.0426
      2 N1         -2.0131   -1.9587    5.3853 N.pl3     1 <0>        -0.6034
      3 C2         -2.2300   -1.4793    4.1054 C.ar      1 <0>         0.4302
      4 C3         -1.1503   -1.1859    3.2548 C.ar      1 <0>        -0.0714
      5 C4         -1.4334   -0.7025    1.9664 C.ar      1 <0>         0.2929
      6 N2         -2.7012   -0.5419    1.6007 N.ar      1 <0>        -0.5239
      7 C5         -3.6806   -0.8294    2.4316 C.ar      1 <0>         0.3430
      8 N3         -3.4640   -1.2862    3.6518 N.ar      1 <0>        -0.5713
      9 N4         -0.2181   -0.5029    1.3618 N.pl3     1 <0>        -0.4713
     10 C6          0.7467   -0.8596    2.2562 C.2       1 <0>         0.2609
     11 N5          0.1978   -1.2551    3.3679 N.2       1 <0>        -0.4564
     12 C7          0.0021   -0.0041    0.0020 C.3       1 <0>         0.1578
     13 C8         -0.0184    1.5028    0.0103 C.ar      1 <0>        -0.1634
     14 C9          1.1690    2.2104    0.0028 C.ar      1 <0>        -0.0703
     15 C10         1.1505    3.5924    0.0099 C.ar      1 <0>        -0.1355
     16 C11        -0.0554    4.2688    0.0241 C.ar      1 <0>        -0.0769
     17 C12        -1.2436    3.5635    0.0312 C.ar      1 <0>        -0.1613
     18 C13        -1.2264    2.1789    0.0197 C.ar      1 <0>         0.1257
     19 F1         -2.3876    1.4883    0.0214 F         1 <0>        -0.1133
     20 H1         -3.7396   -1.3546    6.4115 H         1 <0>         0.0453
     21 H2         -3.7738   -3.0231    5.7923 H         1 <0>         0.0776
     22 H3         -2.7863   -2.6230    7.2182 H         1 <0>         0.0845
     23 H4         -1.4418   -1.2578    5.8122 H         1 <0>         0.3662
     24 H5         -4.6995   -0.6867    2.1033 H         1 <0>         0.2035
     25 H6          1.8098   -0.8177    2.0705 H         1 <0>         0.2246
     26 H7         -0.7864   -0.3745   -0.6531 H         1 <0>         0.1071
     27 H8          0.9692   -0.3523   -0.3606 H         1 <0>         0.1142
     28 H9          2.1115    1.6831   -0.0083 H         1 <0>         0.1355
     29 H10         2.0787    4.1445    0.0040 H         1 <0>         0.1337
     30 H11        -0.0686    5.3487    0.0293 H         1 <0>         0.1353
     31 H12        -2.1854    4.0920    0.0419 H         1 <0>         0.1377
@<TRIPOS>BOND
     1    1    2 1
     2    1   20 1
     3    1   21 1
     4    1   22 1
     5    2    3 1
     6    2   23 1
     7    3    8 ar
     8    3    4 ar
     9    4   11 1
    10    4    5 ar
    11    5    6 ar
    12    5    9 1
    13    6    7 ar
    14    7    8 ar
    15    7   24 1
    16    9   10 1
    17    9   12 1
    18   10   11 2
    19   10   25 1
    20   12   13 1
    21   12   26 1
    22   12   27 1
    23   13   18 ar
    24   13   14 ar
    25   14   15 ar
    26   14   28 1
    27   15   16 ar
    28   15   29 1
    29   16   17 ar
    30   16   30 1
    31   17   18 ar
    32   17   31 1
    33   18   19 1
@<TRIPOS>MOLECULE
ZINC08855176
   43    45     0     0     0
SMALL
USER_CHARGES

@<TRIPOS>ATOM
      1 C1         -0.0187    1.5258    0.0104 C.3       1 <0>        -0.1516
      2 C2          0.0021   -0.0041    0.0020 C.3       1 <0>        -0.1156
      3 C3          0.7182   -0.4975   -1.2568 C.3       1 <0>        -0.0365
      4 C4          0.7386   -2.0043   -1.2651 C.2       1 <0>         0.1061
      5 C5          1.7436   -2.8145   -0.7017 C.2       1 <0>         0.0479
      6 C6          1.3718   -4.1454   -0.9312 C.2       1 <0>        -0.0412
      7 C7          2.2156   -5.1793   -0.4633 C.2       1 <0>         0.5710
      8 N1          3.3495   -4.8379    0.1881 N.am      1 <0>        -0.6315
      9 C8          3.6633   -3.5203    0.3843 C.2       1 <0>         0.4036
     10 N2          2.8908   -2.5515   -0.0439 N.2       1 <0>        -0.4331
     11 C9          4.9092   -3.1798    1.0995 C.ar      1 <0>        -0.1019
     12 C10         5.7529   -4.1922    1.5609 C.ar      1 <0>        -0.0580
     13 C11         6.9151   -3.8678    2.2277 C.ar      1 <0>        -0.1587
     14 C12         7.2500   -2.5413    2.4426 C.ar      1 <0>        -0.0513
     15 C13         6.4237   -1.5305    1.9916 C.ar      1 <0>        -0.2161
     16 C14         5.2544   -1.8392    1.3138 C.ar      1 <0>         0.1911
     17 O1          4.4446   -0.8467    0.8648 O.3       1 <0>        -0.2663
     18 C15         4.8614    0.4961    1.1201 C.3       1 <0>         0.0461
     19 C16         3.8299    1.4684    0.5443 C.3       1 <0>        -0.1513
     20 O2          1.9270   -6.3498   -0.6426 O.2       1 <0>        -0.5280
     21 N3          0.1845   -4.1164   -1.6087 N.pl3     1 <0>        -0.3326
     22 N4         -0.1751   -2.7746   -1.7907 N.2       1 <0>        -0.2338
     23 C17        -0.5793   -5.2823   -2.0598 C.3       1 <0>         0.1007
     24 H1          1.0039    1.9031    0.0027 H         1 <0>         0.0582
     25 H2         -0.5459    1.8868   -0.8726 H         1 <0>         0.0555
     26 H3         -0.5289    1.8773    0.9072 H         1 <0>         0.0559
     27 H4          0.5293   -0.3651    0.8851 H         1 <0>         0.0668
     28 H5         -1.0205   -0.3814    0.0098 H         1 <0>         0.0620
     29 H6          0.1910   -0.1364   -2.1398 H         1 <0>         0.0822
     30 H7          1.7408   -0.1202   -1.2645 H         1 <0>         0.0941
     31 H8          5.4952   -5.2279    1.3960 H         1 <0>         0.1295
     32 H9          7.5671   -4.6515    2.5842 H         1 <0>         0.1334
     33 H10         8.1621   -2.2958    2.9661 H         1 <0>         0.1319
     34 H11         6.6911   -0.4983    2.1635 H         1 <0>         0.1370
     35 H12         4.9469    0.6518    2.1955 H         1 <0>         0.0618
     36 H13         5.8287    0.6719    0.6495 H         1 <0>         0.0617
     37 H14         3.7445    1.3127   -0.5311 H         1 <0>         0.0678
     38 H15         2.8626    1.2926    1.0149 H         1 <0>         0.0701
     39 H16         4.1478    2.4927    0.7390 H         1 <0>         0.0762
     40 H17        -1.2782   -5.5830   -1.2792 H         1 <0>         0.0808
     41 H18        -1.1321   -5.0270   -2.9638 H         1 <0>         0.0955
     42 H19         0.1042   -6.1045   -2.2719 H         1 <0>         0.0993
     43 H20         3.9435   -5.5300    0.5183 H         1 <0>         0.4213
@<TRIPOS>BOND
     1    1    2 1
     2    1   24 1
     3    1   25 1
     4    1   26 1
     5    2    3 1
     6    2   27 1
     7    2   28 1
     8    3    4 1
     9    3   29 1
    10    3   30 1
    11    4   22 2
    12    4    5 1
    13    5   10 1
    14    5    6 2
    15    6    7 1
    16    6   21 1
    17    7    8 am
    18    7   20 2
    19    8    9 1
    20    8   43 1
    21    9   10 2
    22    9   11 1
    23   11   16 ar
    24   11   12 ar
    25   12   13 ar
    26   12   31 1
    27   13   14 ar
    28   13   32 1
    29   14   15 ar
    30   14   33 1
    31   15   16 ar
    32   15   34 1
    33   16   17 1
    34   17   18 1
    35   18   19 1
    36   18   35 1
    37   18   36 1
    38   19   37 1
    39   19   38 1
    40   19   39 1
    41   21   22 1
    42   21   23 1
    43   23   40 1
    44   23   41 1
    45   23   42 1
@<TRIPOS>MOLECULE
ZINC08855176
   42    44     0     0     0
SMALL
USER_CHARGES

@<TRIPOS>ATOM
      1 C1         -0.0187    1.5258    0.0104 C.3       1 <0>        -0.1474
      2 C2          0.0021   -0.0041    0.0020 C.3       1 <0>        -0.1158
      3 C3          0.7182   -0.4975   -1.2568 C.3       1 <0>        -0.0236
      4 C4          0.7386   -2.0043   -1.2651 C.2       1 <0>         0.0721
      5 C5          1.7462   -2.8166   -0.7003 C.ar      1 <0>         0.0669
      6 C6          1.3703   -4.1533   -0.9322 C.ar      1 <0>        -0.0552
      7 C7          2.2086   -5.1744   -0.4667 C.ar      1 <0>         0.4630
      8 N1          3.3206   -4.8425    0.1724 N.ar      1 <0>        -0.5698
      9 C8          3.6452   -3.5680    0.3741 C.ar      1 <0>         0.3647
     10 N2          2.8868   -2.5711   -0.0467 N.ar      1 <0>        -0.5589
     11 C9          4.9013   -3.2556    1.0959 C.ar      1 <0>        -0.0496
     12 C10         5.2649   -1.9301    1.3272 C.ar      1 <0>        -0.0419
     13 C11         6.4352   -1.6447    1.9995 C.ar      1 <0>        -0.1775
     14 C12         7.2509   -2.6702    2.4459 C.ar      1 <0>        -0.0786
     15 C13         6.9006   -3.9876    2.2223 C.ar      1 <0>        -0.2300
     16 C14         5.7246   -4.2895    1.5531 C.ar      1 <0>         0.1676
     17 O1          5.3763   -5.5842    1.3376 O.3       1 <0>        -0.2519
     18 C15         6.2660   -6.5865    1.8332 C.3       1 <0>         0.0490
     19 C16         5.7106   -7.9722    1.4982 C.3       1 <0>        -0.1458
     20 O2          1.8884   -6.4757   -0.6658 O.3       1 <0>        -0.6934
     21 N3          0.1814   -4.1167   -1.6104 N.pl3     1 <0>        -0.3684
     22 N4         -0.1735   -2.7733   -1.7897 N.2       1 <0>        -0.2648
     23 C17        -0.5870   -5.2783   -2.0646 C.3       1 <0>         0.1229
     24 H1          1.0039    1.9031    0.0027 H         1 <0>         0.0553
     25 H2         -0.5459    1.8868   -0.8726 H         1 <0>         0.0511
     26 H3         -0.5289    1.8773    0.9072 H         1 <0>         0.0506
     27 H4          0.5293   -0.3651    0.8851 H         1 <0>         0.0663
     28 H5         -1.0205   -0.3814    0.0098 H         1 <0>         0.0583
     29 H6          0.1910   -0.1364   -2.1398 H         1 <0>         0.0696
     30 H7          1.7408   -0.1202   -1.2645 H         1 <0>         0.0836
     31 H8          4.6312   -1.1273    0.9802 H         1 <0>         0.1401
     32 H9          6.7162   -0.6173    2.1779 H         1 <0>         0.1197
     33 H10         8.1658   -2.4391    2.9712 H         1 <0>         0.1171
     34 H11         7.5415   -4.7831    2.5727 H         1 <0>         0.1238
     35 H12         7.2447   -6.4654    1.3689 H         1 <0>         0.0519
     36 H13         6.3617   -6.4851    2.9143 H         1 <0>         0.0519
     37 H14         4.7319   -8.0934    1.9625 H         1 <0>         0.0676
     38 H15         5.6149   -8.0737    0.4172 H         1 <0>         0.0676
     39 H16         6.3893   -8.7368    1.8762 H         1 <0>         0.0660
     40 H17        -1.2870   -5.5783   -1.2848 H         1 <0>         0.0587
     41 H18        -1.1388   -5.0184   -2.9679 H         1 <0>         0.0713
     42 H19         0.0932   -6.1027   -2.2789 H         1 <0>         0.0960
@<TRIPOS>BOND
     1    1    2 1
     2    1   24 1
     3    1   25 1
     4    1   26 1
     5    2    3 1
     6    2   27 1
     7    2   28 1
     8    3    4 1
     9    3   29 1
    10    3   30 1
    11    4   22 2
    12    4    5 1
    13    5   10 ar
    14    5    6 ar
    15    6    7 ar
    16    6   21 1
    17    7    8 ar
    18    7   20 1
    19    8    9 ar
    20    9   10 ar
    21    9   11 1
    22   11   16 ar
    23   11   12 ar
    24   12   13 ar
    25   12   31 1
    26   13   14 ar
    27   13   32 1
    28   14   15 ar
    29   14   33 1
    30   15   16 ar
    31   15   34 1
    32   16   17 1
    33   17   18 1
    34   18   19 1
    35   18   35 1
    36   18   36 1
    37   19   37 1
    38   19   38 1
    39   19   39 1
    40   21   22 1
    41   21   23 1
    42   23   40 1
    43   23   41 1
    44   23   42 1
@<TRIPOS>MOLECULE
ZINC01533058
   62    65     0     0     0
SMALL
USER_CHARGES
1-[2-[4-[1-(4-iodophenyl)-2-phenyl-but-1-enyl]phenoxy]ethyl]pyrrolidine
@<TRIPOS>ATOM
      1 C1         11.0176    7.5109   -1.5347 C.3       1 <0>        -0.1443
      2 C2         11.0266    6.5411   -0.3513 C.3       1 <0>        -0.0935
      3 C3          9.6102    6.1684    0.0035 C.2       1 <0>        -0.0315
      4 C4          9.0527    5.0485   -0.5192 C.2       1 <0>        -0.0637
      5 C5          7.6267    4.7455   -0.2676 C.ar      1 <0>        -0.0474
      6 C6          6.7165    4.7338   -1.3259 C.ar      1 <0>        -0.0688
      7 C7          5.3886    4.4514   -1.0875 C.ar      1 <0>        -0.1378
      8 C8          4.9558    4.1789    0.2037 C.ar      1 <0>         0.1116
      9 C9          5.8573    4.1948    1.2600 C.ar      1 <0>        -0.1973
     10 C10         7.1878    4.4710    1.0288 C.ar      1 <0>        -0.0561
     11 O1          3.6460    3.9015    0.4349 O.3       1 <0>        -0.3271
     12 C11         3.2690    3.6303    1.7863 C.3       1 <0>         0.0265
     13 C12         1.7677    3.3424    1.8490 C.3       1 <0>         0.0091
     14 C13         0.0822    1.6674    1.3430 C.3       1 <0>        -0.0098
     15 C14         0.0875    0.1275    1.3304 C.3       1 <0>        -0.1471
     16 C15         1.5650   -0.2693    1.1075 C.3       1 <0>        -0.1460
     17 C16         2.3363    0.9911    1.5732 C.3       1 <0>        -0.0126
     18 C17         9.8706    4.1293   -1.3413 C.ar      1 <0>        -0.0167
     19 C18         9.6150    3.9952   -2.7066 C.ar      1 <0>        -0.1054
     20 C19        10.3846    3.1410   -3.4688 C.ar      1 <0>        -0.0808
     21 C20        11.4012    2.4092   -2.8798 C.ar      1 <0>        -0.0983
     22 C21        11.6559    2.5336   -1.5249 C.ar      1 <0>        -0.0811
     23 C22        10.8969    3.3888   -0.7533 C.ar      1 <0>        -0.1032
     24 I1         12.5597    1.1083   -4.0439 I         1 <0>        -0.0366
     25 C23         8.8327    7.0194    0.9167 C.ar      1 <0>        -0.0496
     26 C24         7.6987    7.6953    0.4538 C.ar      1 <0>        -0.0977
     27 C25         6.9721    8.4870    1.3176 C.ar      1 <0>        -0.1186
     28 C26         7.3681    8.6224    2.6369 C.ar      1 <0>        -0.1169
     29 C27         8.4921    7.9616    3.1013 C.ar      1 <0>        -0.1170
     30 C28         9.2265    7.1619    2.2514 C.ar      1 <0>        -0.1066
     31 H1         12.0343    7.8486   -1.7355 H         1 <0>         0.0628
     32 H2         10.6219    7.0054   -2.4157 H         1 <0>         0.0559
     33 H3         10.3900    8.3695   -1.2960 H         1 <0>         0.0565
     34 H4         11.5023    7.0180    0.5056 H         1 <0>         0.0753
     35 H5         11.5817    5.6429   -0.6219 H         1 <0>         0.0806
     36 H6          7.0524    4.9453   -2.3303 H         1 <0>         0.1335
     37 H7          4.6839    4.4418   -1.9058 H         1 <0>         0.1329
     38 H8          5.5162    3.9864    2.2633 H         1 <0>         0.1259
     39 H9          7.8890    4.4789    1.8501 H         1 <0>         0.1277
     40 H10         3.4994    4.4952    2.4083 H         1 <0>         0.1075
     41 H11         3.8207    2.7636    2.1505 H         1 <0>         0.0857
     42 H12         1.2196    4.1725    1.4031 H         1 <0>         0.1426
     43 H13         1.4637    3.2232    2.8889 H         1 <0>         0.1463
     44 H14        -0.5646    2.0430    0.5501 H         1 <0>         0.1342
     45 H15        -0.2639    2.0296    2.3110 H         1 <0>         0.1313
     46 H16        -0.2683   -0.2598    2.2851 H         1 <0>         0.1035
     47 H17        -0.5318   -0.2463    0.5150 H         1 <0>         0.1052
     48 H18         1.8294   -1.1315    1.7197 H         1 <0>         0.1160
     49 H19         1.7555   -0.4705    0.0533 H         1 <0>         0.0985
     50 H20         2.4314    1.0046    2.6590 H         1 <0>         0.1333
     51 H21         3.3168    1.0390    1.0994 H         1 <0>         0.1353
     52 H22         8.8189    4.5620   -3.1664 H         1 <0>         0.1289
     53 H23        10.1909    3.0399   -4.5265 H         1 <0>         0.1315
     54 H24        12.4507    1.9603   -1.0711 H         1 <0>         0.1324
     55 H25        11.0968    3.4853    0.3037 H         1 <0>         0.1314
     56 H26         7.3909    7.5939   -0.5765 H         1 <0>         0.1188
     57 H27         6.0943    9.0065    0.9628 H         1 <0>         0.1208
     58 H28         6.7971    9.2474    3.3076 H         1 <0>         0.1214
     59 H29         8.7949    8.0730    4.1319 H         1 <0>         0.1243
     60 H30        10.1035    6.6472    2.6152 H         1 <0>         0.1234
     61 N1          1.4704    2.0803    1.1070 N.4       1 <0>        -0.3957
     62 H31         1.6205    2.2366    0.1034 H         1 <0>         0.4365
@<TRIPOS>BOND
     1    1    2 1
     2    1   31 1
     3    1   32 1
     4    1   33 1
     5    2    3 1
     6    2   34 1
     7    2   35 1
     8    3    4 2
     9    3   25 1
    10    4    5 1
    11    4   18 1
    12    5   10 ar
    13    5    6 ar
    14    6    7 ar
    15    6   36 1
    16    7    8 ar
    17    7   37 1
    18    8    9 ar
    19    8   11 1
    20    9   10 ar
    21    9   38 1
    22   10   39 1
    23   11   12 1
    24   12   13 1
    25   12   40 1
    26   12   41 1
    27   13   42 1
    28   13   43 1
    29   13   61 1
    30   14   15 1
    31   14   44 1
    32   14   45 1
    33   14   61 1
    34   15   16 1
    35   15   46 1
    36   15   47 1
    37   16   17 1
    38   16   48 1
    39   16   49 1
    40   17   50 1
    41   17   51 1
    42   17   61 1
    43   18   23 ar
    44   18   19 ar
    45   19   20 ar
    46   19   52 1
    47   20   21 ar
    48   20   53 1
    49   21   22 ar
    50   21   24 1
    51   22   23 ar
    52   22   54 1
    53   23   55 1
    54   25   30 ar
    55   25   26 ar
    56   26   27 ar
    57   26   56 1
    58   27   28 ar
    59   27   57 1
    60   28   29 ar
    61   28   58 1
    62   29   30 ar
    63   29   59 1
    64   30   60 1
    65   61   62 1
@<TRIPOS>MOLECULE
ZINC01532942
   58    60     0     0     0
SMALL
USER_CHARGES
2-[4-[1-(4-iodophenyl)-2-phenyl-but-1-enyl]phenoxy]-N,N-dimethyl-ethanamine
@<TRIPOS>ATOM
      1 C1         -0.1285   -1.4678    1.8136 C.3       1 <0>        -0.1465
      2 C2         -1.0800   -1.8684    0.6844 C.3       1 <0>        -0.0945
      3 C3         -0.2817   -2.3746   -0.4893 C.2       1 <0>        -0.0319
      4 C4          0.0933   -1.5204   -1.4731 C.2       1 <0>        -0.0639
      5 C5          0.9948   -1.9834   -2.5508 C.ar      1 <0>        -0.0470
      6 C6          2.3068   -2.3563   -2.2538 C.ar      1 <0>        -0.0580
      7 C7          3.1416   -2.7935   -3.2597 C.ar      1 <0>        -0.1976
      8 C8          2.6830   -2.8510   -4.5693 C.ar      1 <0>         0.1122
      9 C9          1.3803   -2.4749   -4.8698 C.ar      1 <0>        -0.1380
     10 C10         0.5374   -2.0430   -3.8684 C.ar      1 <0>        -0.0639
     11 O1          3.5107   -3.2766   -5.5590 O.3       1 <0>        -0.3308
     12 C11         4.8375   -3.6481   -5.1801 C.3       1 <0>         0.0245
     13 C12         5.6150   -4.0968   -6.4191 C.3       1 <0>         0.0031
     14 C13         6.7398   -2.0065   -6.8965 C.3       1 <0>        -0.0472
     15 C14         6.0407   -3.4474   -8.7125 C.3       1 <0>        -0.0427
     16 C15        -0.3991   -0.1249   -1.4688 C.ar      1 <0>        -0.0183
     17 C16        -1.7574    0.1392   -1.6497 C.ar      1 <0>        -0.1040
     18 C17        -2.2112    1.4419   -1.6390 C.ar      1 <0>        -0.0814
     19 C18        -1.3206    2.4865   -1.4613 C.ar      1 <0>        -0.0975
     20 C19         0.0286    2.2312   -1.2870 C.ar      1 <0>        -0.0821
     21 C20         0.4937    0.9325   -1.2896 C.ar      1 <0>        -0.1015
     22 I1         -2.0178    4.4621   -1.4552 I         1 <0>        -0.0367
     23 C21         0.0906   -3.7951   -0.5675 C.ar      1 <0>        -0.0498
     24 C22        -0.4276   -4.6028   -1.5855 C.ar      1 <0>        -0.0983
     25 C23        -0.0699   -5.9326   -1.6547 C.ar      1 <0>        -0.1181
     26 C24         0.7911   -6.4713   -0.7144 C.ar      1 <0>        -0.1165
     27 C25         1.3039   -5.6801    0.2989 C.ar      1 <0>        -0.1183
     28 C26         0.9601   -4.3473    0.3790 C.ar      1 <0>        -0.1071
     29 H1          0.5201   -0.6608    1.4730 H         1 <0>         0.0562
     30 H2         -0.7070   -1.1307    2.6737 H         1 <0>         0.0635
     31 H3          0.4791   -2.3267    2.0985 H         1 <0>         0.0569
     32 H4         -1.6661   -1.0018    0.3785 H         1 <0>         0.0818
     33 H5         -1.7492   -2.6543    1.0347 H         1 <0>         0.0753
     34 H6          2.6656   -2.3074   -1.2363 H         1 <0>         0.1279
     35 H7          4.1552   -3.0872   -3.0299 H         1 <0>         0.1265
     36 H8          1.0271   -2.5213   -5.8894 H         1 <0>         0.1328
     37 H9         -0.4758   -1.7513   -4.1027 H         1 <0>         0.1341
     38 H10         5.3388   -2.7930   -4.7266 H         1 <0>         0.0856
     39 H11         4.7945   -4.4670   -4.4619 H         1 <0>         0.1083
     40 H12         6.6100   -4.4292   -6.1231 H         1 <0>         0.1502
     41 H13         5.0862   -4.9186   -6.9020 H         1 <0>         0.1408
     42 H14         7.7084   -2.5003   -6.8192 H         1 <0>         0.1255
     43 H15         6.8070   -1.1843   -7.6090 H         1 <0>         0.1249
     44 H16         6.4508   -1.6182   -5.9199 H         1 <0>         0.1187
     45 H17         5.2085   -4.0442   -9.0858 H         1 <0>         0.1227
     46 H18         6.1984   -2.5925   -9.3700 H         1 <0>         0.1238
     47 H19         6.9433   -4.0579   -8.6875 H         1 <0>         0.1240
     48 H20        -2.4526   -0.6748   -1.7933 H         1 <0>         0.1324
     49 H21        -3.2628    1.6473   -1.7741 H         1 <0>         0.1327
     50 H22         0.7186    3.0504   -1.1484 H         1 <0>         0.1305
     51 H23         1.5466    0.7345   -1.1528 H         1 <0>         0.1277
     52 H24        -1.1027   -4.1849   -2.3175 H         1 <0>         0.1198
     53 H25        -0.4661   -6.5566   -2.4421 H         1 <0>         0.1221
     54 H26         1.0639   -7.5147   -0.7714 H         1 <0>         0.1215
     55 H27         1.9748   -6.1081    1.0291 H         1 <0>         0.1235
     56 H28         1.3608   -3.7313    1.1704 H         1 <0>         0.1240
     57 N1          5.7078   -2.9589   -7.3578 N.4       1 <0>        -0.4004
     58 H29         4.8011   -2.4783   -7.3900 H         1 <0>         0.4384
@<TRIPOS>BOND
     1    1    2 1
     2    1   29 1
     3    1   30 1
     4    1   31 1
     5    2    3 1
     6    2   32 1
     7    2   33 1
     8    3    4 2
     9    3   23 1
    10    4    5 1
    11    4   16 1
    12    5   10 ar
    13    5    6 ar
    14    6    7 ar
    15    6   34 1
    16    7    8 ar
    17    7   35 1
    18    8    9 ar
    19    8   11 1
    20    9   10 ar
    21    9   36 1
    22   10   37 1
    23   11   12 1
    24   12   13 1
    25   12   38 1
    26   12   39 1
    27   13   40 1
    28   13   41 1
    29   13   57 1
    30   14   42 1
    31   14   43 1
    32   14   44 1
    33   14   57 1
    34   15   45 1
    35   15   46 1
    36   15   47 1
    37   15   57 1
    38   16   21 ar
    39   16   17 ar
    40   17   18 ar
    41   17   48 1
    42   18   19 ar
    43   18   49 1
    44   19   20 ar
    45   19   22 1
    46   20   21 ar
    47   20   50 1
    48   21   51 1
    49   23   28 ar
    50   23   24 ar
    51   24   25 ar
    52   24   52 1
    53   25   26 ar
    54   25   53 1
    55   26   27 ar
    56   26   54 1
    57   27   28 ar
    58   27   55 1
    59   28   56 1
    60   57   58 1
@<TRIPOS>MOLECULE
ZINC01490579
   71    75     0     0     0
SMALL
USER_CHARGES

@<TRIPOS>ATOM
      1 C1        -11.7309    8.6432   -0.7715 C.3       1 <0>         0.0256
      2 O1        -11.7915    7.8281    0.4006 O.3       1 <0>        -0.3010
      3 C2        -10.6149    7.5598    1.0276 C.ar      1 <0>         0.1529
      4 C3         -9.4319    8.0702    0.5247 C.ar      1 <0>        -0.1816
      5 C4         -8.2240    7.7940    1.1688 C.ar      1 <0>         0.0441
      6 C5         -8.2133    6.9984    2.3165 C.ar      1 <0>        -0.2128
      7 C6         -9.3995    6.4948    2.8184 C.ar      1 <0>         0.1497
      8 C7        -10.6021    6.7716    2.1746 C.ar      1 <0>         0.0376
      9 O2        -11.7666    6.2706    2.6669 O.3       1 <0>        -0.3124
     10 C8        -12.1772    4.9898    2.1843 C.3       1 <0>         0.0354
     11 O3         -9.3904    5.7243    3.9390 O.3       1 <0>        -0.3011
     12 C9         -8.1210    5.4805    4.5484 C.3       1 <0>         0.0240
     13 C10        -6.9585    8.3376    0.6332 C.2       1 <0>        -0.0231
     14 C11        -5.9204    7.4354    0.1138 C.ar      1 <0>        -0.0413
     15 C12        -6.0907    6.0513    0.1090 C.ar      1 <0>        -0.0610
     16 C13        -5.0943    5.2437   -0.3920 C.ar      1 <0>        -0.1714
     17 C14        -3.9140    5.7965   -0.8838 C.ar      1 <0>         0.1364
     18 C15        -3.7270    7.1684   -0.8872 C.ar      1 <0>        -0.0844
     19 C16        -4.7268    7.9997   -0.3892 C.ar      1 <0>        -0.0870
     20 C17        -4.5731    9.4617   -0.3718 C.2       1 <0>         0.5503
     21 O4         -3.5543    9.9726   -0.7999 O.2       1 <0>        -0.4960
     22 N1         -5.5606   10.2347    0.1177 N.am      1 <0>        -0.4586
     23 C18        -6.7343    9.7019    0.6137 C.2       1 <0>         0.1106
     24 C19        -7.7671   10.6041    1.1312 C.2       1 <0>         0.4960
     25 O5         -8.7548   10.1491    1.6758 O.2       1 <0>        -0.4612
     26 O6         -7.6221   11.9394    1.0034 O.3       1 <0>        -0.3257
     27 C20        -8.6093   12.7619    1.6285 C.3       1 <0>         0.0316
     28 C21        -5.3919   11.6249    0.1246 C.ar      1 <0>         0.0587
     29 C22        -4.8210   12.2498    1.2261 C.ar      1 <0>        -0.0388
     30 C23        -4.6504   13.6194    1.2309 C.ar      1 <0>        -0.1891
     31 C24        -5.0593   14.3742    0.1387 C.ar      1 <0>         0.2332
     32 C25        -5.6351   13.7498   -0.9607 C.ar      1 <0>        -0.1886
     33 C26        -5.8008   12.3796   -0.9676 C.ar      1 <0>        -0.0308
     34 N2         -4.8918   15.7622    0.1460 N.pl3     1 <0>        -0.8753
     35 O7         -2.9406    4.9830   -1.3693 O.3       1 <0>        -0.3059
     36 C27        -3.1945    3.5771   -1.3379 C.3       1 <0>         0.1121
     37 C28        -2.0124    2.8402   -1.9128 C.ar      1 <0>         0.1187
     38 C29        -0.9168    3.5523   -2.3635 C.ar      1 <0>        -0.1492
     39 C30         0.1657    2.8647   -2.8902 C.ar      1 <0>        -0.0734
     40 C31         0.1054    1.4804   -2.9440 C.ar      1 <0>        -0.1702
     41 C32        -1.0235    0.8367   -2.4743 C.ar      1 <0>         0.1049
     42 N3         -2.0372    1.5238   -1.9846 N.ar      1 <0>        -0.4800
     43 H1        -11.3065    9.6144   -0.5171 H         1 <0>         0.0562
     44 H2        -11.1043    8.1577   -1.5197 H         1 <0>         0.0557
     45 H3        -12.7356    8.7793   -1.1718 H         1 <0>         0.1031
     46 H4         -9.4423    8.6815   -0.3656 H         1 <0>         0.1285
     47 H5         -7.2799    6.7800    2.8140 H         1 <0>         0.1363
     48 H6        -12.3114    5.0347    1.1035 H         1 <0>         0.0440
     49 H7        -11.4146    4.2491    2.4252 H         1 <0>         0.0442
     50 H8        -13.1188    4.7085    2.6559 H         1 <0>         0.0921
     51 H9         -8.2556    4.8544    5.4304 H         1 <0>         0.1033
     52 H10        -7.4687    4.9724    3.8382 H         1 <0>         0.0569
     53 H11        -7.6705    6.4289    4.8413 H         1 <0>         0.0575
     54 H12        -7.0014    5.6152    0.4924 H         1 <0>         0.1428
     55 H13        -5.2274    4.1719   -0.4001 H         1 <0>         0.1426
     56 H14        -2.8115    7.5911   -1.2740 H         1 <0>         0.1526
     57 H15        -8.6759   12.5092    2.6867 H         1 <0>         0.0620
     58 H16        -8.3293   13.8100    1.5222 H         1 <0>         0.1018
     59 H17        -9.5759   12.5941    1.1534 H         1 <0>         0.0611
     60 H18        -4.5072   11.6635    2.0770 H         1 <0>         0.1208
     61 H19        -4.2024   14.1047    2.0855 H         1 <0>         0.1260
     62 H20        -5.9533   14.3365   -1.8097 H         1 <0>         0.1260
     63 H21        -6.2488   11.8942   -1.8221 H         1 <0>         0.1209
     64 H22        -5.1776   16.2892   -0.6165 H         1 <0>         0.4000
     65 H23        -4.4898   16.1982    0.9136 H         1 <0>         0.4000
     66 H24        -4.0833    3.3551   -1.9285 H         1 <0>         0.0900
     67 H25        -3.3544    3.2598   -0.3074 H         1 <0>         0.0900
     68 H26        -0.9043    4.6307   -2.3065 H         1 <0>         0.1453
     69 H27         1.0351    3.3947   -3.2503 H         1 <0>         0.1384
     70 H28         0.9303    0.9124   -3.3483 H         1 <0>         0.1385
     71 H29        -1.0783   -0.2412   -2.5127 H         1 <0>         0.1614
@<TRIPOS>BOND
     1    1    2 1
     2    1   43 1
     3    1   44 1
     4    1   45 1
     5    2    3 1
     6    3    8 ar
     7    3    4 ar
     8    4    5 ar
     9    4   46 1
    10    5    6 ar
    11    5   13 1
    12    6    7 ar
    13    6   47 1
    14    7    8 ar
    15    7   11 1
    16    8    9 1
    17    9   10 1
    18   10   48 1
    19   10   49 1
    20   10   50 1
    21   11   12 1
    22   12   51 1
    23   12   52 1
    24   12   53 1
    25   13   23 2
    26   13   14 1
    27   14   19 ar
    28   14   15 ar
    29   15   16 ar
    30   15   54 1
    31   16   17 ar
    32   16   55 1
    33   17   18 ar
    34   17   35 1
    35   18   19 ar
    36   18   56 1
    37   19   20 1
    38   20   21 2
    39   20   22 am
    40   22   23 1
    41   22   28 1
    42   23   24 1
    43   24   25 2
    44   24   26 1
    45   26   27 1
    46   27   57 1
    47   27   58 1
    48   27   59 1
    49   28   33 ar
    50   28   29 ar
    51   29   30 ar
    52   29   60 1
    53   30   31 ar
    54   30   61 1
    55   31   32 ar
    56   31   34 1
    57   32   33 ar
    58   32   62 1
    59   33   63 1
    60   34   64 1
    61   34   65 1
    62   35   36 1
    63   36   37 1
    64   36   66 1
    65   36   67 1
    66   37   42 ar
    67   37   38 ar
    68   38   39 ar
    69   38   68 1
    70   39   40 ar
    71   39   69 1
    72   40   41 ar
    73   40   70 1
    74   41   42 ar
    75   41   71 1
@<TRIPOS>MOLECULE
ZINC01530689
   58    60     0     0     0
SMALL
USER_CHARGES

@<TRIPOS>ATOM
      1 C1         -0.8620   -1.2103    0.4196 C.3       1 <0>        -0.1463
      2 C2         -0.0027   -0.0154    0.0014 C.3       1 <0>        -0.0931
      3 C3          0.8449   -0.3968   -1.1848 C.2       1 <0>        -0.0423
      4 C4          2.1086   -0.8505   -0.9971 C.2       1 <0>        -0.0550
      5 C5          2.7052   -0.8396    0.3571 C.ar      1 <0>        -0.0411
      6 C6          2.9272    0.3707    1.0153 C.ar      1 <0>        -0.1082
      7 C7          3.4837    0.3740    2.2776 C.ar      1 <0>        -0.1172
      8 C8          3.8216   -0.8192    2.8911 C.ar      1 <0>        -0.1153
      9 C9          3.6040   -2.0226    2.2439 C.ar      1 <0>        -0.1170
     10 C10         3.0428   -2.0399    0.9837 C.ar      1 <0>        -0.1043
     11 C11         2.8911   -1.3565   -2.1461 C.ar      1 <0>        -0.0464
     12 C12         2.4761   -2.5039   -2.8244 C.ar      1 <0>        -0.0587
     13 C13         3.2080   -2.9722   -3.8945 C.ar      1 <0>        -0.1371
     14 C14         4.3568   -2.3043   -4.2980 C.ar      1 <0>         0.1110
     15 C15         4.7731   -1.1628   -3.6254 C.ar      1 <0>        -0.1995
     16 C16         4.0432   -0.6847   -2.5583 C.ar      1 <0>        -0.0640
     17 O1          5.0755   -2.7690   -5.3531 O.3       1 <0>        -0.3290
     18 C17         6.2462   -2.0338   -5.7148 C.3       1 <0>         0.0247
     19 C18         6.9183   -2.7034   -6.9152 C.3       1 <0>        -0.0016
     20 N1          6.0308   -2.6198   -8.0828 N.4       1 <0>        -0.3887
     21 C19         5.8597   -1.2126   -8.4681 C.3       1 <0>        -0.0544
     22 C20         6.6223   -3.3655   -9.2018 C.3       1 <0>        -0.0475
     23 C21         0.3013   -0.2769   -2.5460 C.ar      1 <0>        -0.0452
     24 C22         0.8638    0.6300   -3.4504 C.ar      1 <0>        -0.1005
     25 C23         0.3487    0.7362   -4.7249 C.ar      1 <0>        -0.1203
     26 C24        -0.7224   -0.0512   -5.1102 C.ar      1 <0>        -0.1185
     27 C25        -1.2849   -0.9506   -4.2211 C.ar      1 <0>        -0.1169
     28 C26        -0.7774   -1.0732   -2.9450 C.ar      1 <0>        -0.1064
     29 H1         -1.5889   -1.4268   -0.3633 H         1 <0>         0.0564
     30 H2         -0.2239   -2.0805    0.5736 H         1 <0>         0.0564
     31 H3         -1.3853   -0.9749    1.3463 H         1 <0>         0.0624
     32 H4         -0.6488    0.8203   -0.2674 H         1 <0>         0.0730
     33 H5          0.6424    0.2760    0.8303 H         1 <0>         0.0829
     34 H6          2.6642    1.3028    0.5373 H         1 <0>         0.1222
     35 H7          3.6564    1.3100    2.7879 H         1 <0>         0.1251
     36 H8          4.2573   -0.8113    3.8793 H         1 <0>         0.1238
     37 H9          3.8702   -2.9506    2.7280 H         1 <0>         0.1239
     38 H10         2.8693   -2.9801    0.4814 H         1 <0>         0.1195
     39 H11         1.5831   -3.0240   -2.5110 H         1 <0>         0.1323
     40 H12         2.8878   -3.8600   -4.4196 H         1 <0>         0.1320
     41 H13         5.6672   -0.6463   -3.9419 H         1 <0>         0.1263
     42 H14         4.3649    0.2058   -2.0388 H         1 <0>         0.1288
     43 H15         5.9678   -1.0131   -5.9769 H         1 <0>         0.0863
     44 H16         6.9389   -2.0168   -4.8734 H         1 <0>         0.1083
     45 H17         7.8574   -2.1958   -7.1356 H         1 <0>         0.1490
     46 H18         7.1165   -3.7499   -6.6836 H         1 <0>         0.1425
     47 H19         5.2012   -1.1506   -9.3345 H         1 <0>         0.1272
     48 H20         5.4209   -0.6593   -7.6378 H         1 <0>         0.1214
     49 H21         6.8302   -0.7837   -8.7180 H         1 <0>         0.1246
     50 H22         6.7492   -4.4096   -8.9159 H         1 <0>         0.1247
     51 H23         5.9637   -3.3034  -10.0682 H         1 <0>         0.1258
     52 H24         7.5927   -2.9366   -9.4516 H         1 <0>         0.1230
     53 H25         1.6992    1.2456   -3.1510 H         1 <0>         0.1181
     54 H26         0.7818    1.4358   -5.4243 H         1 <0>         0.1195
     55 H27        -1.1216    0.0368   -6.1098 H         1 <0>         0.1205
     56 H28        -2.1210   -1.5610   -4.5292 H         1 <0>         0.1239
     57 H29        -1.2145   -1.7786   -2.2539 H         1 <0>         0.1248
     58 H30         5.1325   -3.0168   -7.8515 H         1 <0>         0.4340
@<TRIPOS>BOND
     1    1    2 1
     2    1   29 1
     3    1   30 1
     4    1   31 1
     5    2    3 1
     6    2   32 1
     7    2   33 1
     8    3    4 2
     9    3   23 1
    10    4    5 1
    11    4   11 1
    12    5   10 ar
    13    5    6 ar
    14    6    7 ar
    15    6   34 1
    16    7    8 ar
    17    7   35 1
    18    8    9 ar
    19    8   36 1
    20    9   10 ar
    21    9   37 1
    22   10   38 1
    23   11   16 ar
    24   11   12 ar
    25   12   13 ar
    26   12   39 1
    27   13   14 ar
    28   13   40 1
    29   14   15 ar
    30   14   17 1
    31   15   16 ar
    32   15   41 1
    33   16   42 1
    34   17   18 1
    35   18   19 1
    36   18   43 1
    37   18   44 1
    38   19   20 1
    39   19   45 1
    40   19   46 1
    41   20   21 1
    42   20   22 1
    43   20   58 1
    44   21   47 1
    45   21   48 1
    46   21   49 1
    47   22   50 1
    48   22   51 1
    49   22   52 1
    50   23   28 ar
    51   23   24 ar
    52   24   25 ar
    53   24   53 1
    54   25   26 ar
    55   25   54 1
    56   26   27 ar
    57   26   55 1
    58   27   28 ar
    59   27   56 1
    60   28   57 1
