@<TRIPOS>MOLECULE
ZINC00706043
   50    52     0     0     0
SMALL
USER_CHARGES
2-(8-quinolylsulfanyl)-N-[(3,4,5-trimethoxyphenyl)methyleneamino]acetamide
@<TRIPOS>ATOM
      1 C1          0.1857    0.9369   -9.6685 C.3       1 <0>         0.0230
      2 O1         -0.9902    1.7454   -9.5940 O.3       1 <0>        -0.3002
      3 C2         -1.4454    2.0601   -8.3517 C.ar      1 <0>         0.1462
      4 C3         -0.7742    1.6003   -7.2330 C.ar      1 <0>        -0.2050
      5 C4         -1.2427    1.9236   -5.9571 C.ar      1 <0>         0.0163
      6 C5         -2.3915    2.7059   -5.8154 C.ar      1 <0>        -0.1925
      7 C6         -3.0551    3.1675   -6.9379 C.ar      1 <0>         0.1466
      8 C7         -2.5860    2.8438   -8.2073 C.ar      1 <0>         0.0455
      9 O2         -3.2442    3.2941   -9.3093 O.3       1 <0>        -0.3126
     10 C8         -4.2789    2.4593   -9.8332 C.3       1 <0>         0.0356
     11 O3         -4.1702    3.9337   -6.8007 O.3       1 <0>        -0.3007
     12 C9         -4.5957    4.2276   -5.4685 C.3       1 <0>         0.0227
     13 C10        -0.5297    1.4353   -4.7627 C.2       1 <0>         0.1124
     14 N1         -0.9661    1.7364   -3.5781 N.2       1 <0>        -0.2184
     15 N2         -0.2884    1.2723   -2.4431 N.am      1 <0>        -0.5801
     16 C11        -0.7416    1.5850   -1.2129 C.2       1 <0>         0.5531
     17 O4         -1.7362    2.2684   -1.0884 O.2       1 <0>        -0.4755
     18 C12        -0.0127    1.0858    0.0080 C.3       1 <0>        -0.1717
     19 S1         -0.8618    1.6708    1.5005 S.3       1 <0>         0.0384
     20 C13         0.0987    1.0127    2.8230 C.ar      1 <0>        -0.0832
     21 C14         1.2140    0.2462    2.5575 C.ar      1 <0>        -0.1250
     22 C15         1.9803   -0.2796    3.5927 C.ar      1 <0>        -0.0962
     23 C16         1.6510   -0.0514    4.8948 C.ar      1 <0>        -0.1023
     24 C17         0.5229    0.7245    5.2066 C.ar      1 <0>        -0.0857
     25 C18        -0.2644    1.2707    4.1638 C.ar      1 <0>         0.1438
     26 N3         -1.3345    2.0137    4.4567 N.ar      1 <0>        -0.4661
     27 C19        -1.6764    2.2572    5.6987 C.ar      1 <0>         0.1343
     28 C20        -0.9432    1.7556    6.7720 C.ar      1 <0>        -0.1685
     29 C21         0.1562    0.9784    6.5421 C.ar      1 <0>        -0.0590
     30 H1          1.0113    1.4501   -9.1754 H         1 <0>         0.0591
     31 H2          0.0030   -0.0168   -9.1733 H         1 <0>         0.0579
     32 H3          0.4399    0.7607  -10.7138 H         1 <0>         0.1044
     33 H4          0.1108    0.9917   -7.3457 H         1 <0>         0.1415
     34 H5         -2.7586    2.9538   -4.8304 H         1 <0>         0.1495
     35 H6         -4.7209    2.9348  -10.7088 H         1 <0>         0.0942
     36 H7         -3.8587    1.4944  -10.1169 H         1 <0>         0.0453
     37 H8         -5.0465    2.3121   -9.0734 H         1 <0>         0.0457
     38 H9         -4.8128    3.2976   -4.9431 H         1 <0>         0.0598
     39 H10        -3.8050    4.7647   -4.9448 H         1 <0>         0.0610
     40 H11        -5.4937    4.8444   -5.5016 H         1 <0>         0.1052
     41 H12         0.3558    0.8269   -4.8736 H         1 <0>         0.1269
     42 H13         0.5068    0.7259   -2.5426 H         1 <0>         0.3895
     43 H14         0.0021   -0.0041    0.0020 H         1 <0>         0.1227
     44 H15         1.0099    1.4631    0.0003 H         1 <0>         0.1228
     45 H16         1.4958    0.0515    1.5333 H         1 <0>         0.1276
     46 H17         2.8494   -0.8773    3.3607 H         1 <0>         0.1317
     47 H18         2.2567   -0.4671    5.6864 H         1 <0>         0.1334
     48 H19        -2.5489    2.8627    5.8950 H         1 <0>         0.1632
     49 H20        -1.2494    1.9731    7.7846 H         1 <0>         0.1412
     50 H21         0.7361    0.5810    7.3620 H         1 <0>         0.1422
@<TRIPOS>BOND
     1    1    2 1
     2    1   30 1
     3    1   31 1
     4    1   32 1
     5    2    3 1
     6    3    8 ar
     7    3    4 ar
     8    4    5 ar
     9    4   33 1
    10    5    6 ar
    11    5   13 1
    12    6    7 ar
    13    6   34 1
    14    7    8 ar
    15    7   11 1
    16    8    9 1
    17    9   10 1
    18   10   35 1
    19   10   36 1
    20   10   37 1
    21   11   12 1
    22   12   38 1
    23   12   39 1
    24   12   40 1
    25   13   14 2
    26   13   41 1
    27   14   15 1
    28   15   16 am
    29   15   42 1
    30   16   17 2
    31   16   18 1
    32   18   19 1
    33   18   43 1
    34   18   44 1
    35   19   20 1
    36   20   25 ar
    37   20   21 ar
    38   21   22 ar
    39   21   45 1
    40   22   23 ar
    41   22   46 1
    42   23   24 ar
    43   23   47 1
    44   24   29 ar
    45   24   25 ar
    46   25   26 ar
    47   26   27 ar
    48   27   28 ar
    49   27   48 1
    50   28   29 ar
    51   28   49 1
    52   29   50 1
@<TRIPOS>MOLECULE
ZINC00825638
   50    52     0     0     0
SMALL
USER_CHARGES
2-(2-quinolylsulfanyl)-N-[(3,4,5-trimethoxyphenyl)methyleneamino]acetamide
@<TRIPOS>ATOM
      1 C1         -8.2908   14.1135    0.1619 C.3       1 <0>         0.0229
      2 O1         -7.2873   15.1308    0.1583 O.3       1 <0>        -0.3002
      3 C2         -5.9911   14.7194    0.1435 C.ar      1 <0>         0.1463
      4 C3         -5.6951   13.3683    0.1327 C.ar      1 <0>        -0.2049
      5 C4         -4.3633   12.9464    0.1179 C.ar      1 <0>         0.0167
      6 C5         -3.3342   13.8913    0.1199 C.ar      1 <0>        -0.1926
      7 C6         -3.6365   15.2411    0.1250 C.ar      1 <0>         0.1464
      8 C7         -4.9640   15.6581    0.1397 C.ar      1 <0>         0.0453
      9 O2         -5.2581   16.9862    0.1508 O.3       1 <0>        -0.3126
     10 C8         -5.3864   17.6115    1.4293 C.3       1 <0>         0.0356
     11 O3         -2.6354   16.1615    0.1213 O.3       1 <0>        -0.3007
     12 C9         -1.2961   15.6633    0.1060 C.3       1 <0>         0.0228
     13 C10        -4.0445   11.5071    0.1062 C.2       1 <0>         0.1123
     14 N1         -2.8068   11.1167    0.0925 N.2       1 <0>        -0.2192
     15 N2         -2.5038    9.7489    0.0815 N.am      1 <0>        -0.5786
     16 C11        -1.2186    9.3435    0.0672 C.2       1 <0>         0.5486
     17 O4         -0.3240   10.1629    0.0639 O.2       1 <0>        -0.4836
     18 C12        -0.8927    7.8722    0.0553 C.3       1 <0>        -0.1406
     19 S1          0.9038    7.6523    0.0375 S.3       1 <0>         0.0352
     20 C13         0.9966    5.8928    0.0260 C.ar      1 <0>         0.1331
     21 C14         2.2553    5.2729    0.0111 C.ar      1 <0>        -0.1526
     22 C15         2.3422    3.9140    0.0012 C.ar      1 <0>        -0.0378
     23 C16         1.1456    3.1673    0.0082 C.ar      1 <0>        -0.1096
     24 C17         1.1629    1.7642    0.0004 C.ar      1 <0>        -0.0894
     25 C18        -0.0126    1.0758    0.0080 C.ar      1 <0>        -0.1199
     26 C19        -1.2331    1.7467    0.0174 C.ar      1 <0>        -0.0931
     27 C20        -1.2859    3.1071    0.0306 C.ar      1 <0>        -0.1001
     28 C21        -0.0940    3.8516    0.0237 C.ar      1 <0>         0.1431
     29 N3         -0.1178    5.1893    0.0320 N.ar      1 <0>        -0.4892
     30 H1         -8.1887   13.4993   -0.7327 H         1 <0>         0.0592
     31 H2         -8.1716   13.4887    1.0471 H         1 <0>         0.0580
     32 H3         -9.2775   14.5765    0.1741 H         1 <0>         0.1044
     33 H4         -6.4927   12.6401    0.1360 H         1 <0>         0.1417
     34 H5         -2.3037   13.5682    0.1130 H         1 <0>         0.1493
     35 H6         -6.1867   17.1296    1.9909 H         1 <0>         0.0453
     36 H7         -4.4489   17.5146    1.9769 H         1 <0>         0.0457
     37 H8         -5.6214   18.6674    1.2954 H         1 <0>         0.0942
     38 H9         -0.5973   16.4998    0.1046 H         1 <0>         0.1051
     39 H10        -1.1266   15.0497    0.9908 H         1 <0>         0.0597
     40 H11        -1.1430   15.0604   -0.7891 H         1 <0>         0.0609
     41 H12        -4.8408   10.7776    0.1091 H         1 <0>         0.1271
     42 H13        -3.2191    9.0937    0.0841 H         1 <0>         0.3911
     43 H14        -1.3239    7.4117   -0.8336 H         1 <0>         0.1285
     44 H15        -1.3076    7.4009    0.9463 H         1 <0>         0.1284
     45 H16         3.1536    5.8725    0.0068 H         1 <0>         0.1444
     46 H17         3.3028    3.4206   -0.0109 H         1 <0>         0.1465
     47 H18         2.1031    1.2329   -0.0111 H         1 <0>         0.1322
     48 H19         0.0021   -0.0041    0.0020 H         1 <0>         0.1296
     49 H20        -2.1518    1.1789    0.0184 H         1 <0>         0.1314
     50 H21        -2.2404    3.6123    0.0424 H         1 <0>         0.1341
@<TRIPOS>BOND
     1    1    2 1
     2    1   30 1
     3    1   31 1
     4    1   32 1
     5    2    3 1
     6    3    8 ar
     7    3    4 ar
     8    4    5 ar
     9    4   33 1
    10    5    6 ar
    11    5   13 1
    12    6    7 ar
    13    6   34 1
    14    7    8 ar
    15    7   11 1
    16    8    9 1
    17    9   10 1
    18   10   35 1
    19   10   36 1
    20   10   37 1
    21   11   12 1
    22   12   38 1
    23   12   39 1
    24   12   40 1
    25   13   14 2
    26   13   41 1
    27   14   15 1
    28   15   16 am
    29   15   42 1
    30   16   17 2
    31   16   18 1
    32   18   19 1
    33   18   43 1
    34   18   44 1
    35   19   20 1
    36   20   29 ar
    37   20   21 ar
    38   21   22 ar
    39   21   45 1
    40   22   23 ar
    41   22   46 1
    42   23   28 ar
    43   23   24 ar
    44   24   25 ar
    45   24   47 1
    46   25   26 ar
    47   25   48 1
    48   26   27 ar
    49   26   49 1
    50   27   28 ar
    51   27   50 1
    52   28   29 ar
@<TRIPOS>MOLECULE
ZINC00871076
   53    55     0     0     0
SMALL
USER_CHARGES
2-[(2-methyl-4-quinolyl)sulfanyl]-N-[(3,4,5-trimethoxyphenyl)methyleneamino]acetamide
@<TRIPOS>ATOM
      1 C1         -0.0127    1.0858    0.0080 C.3       1 <0>        -0.1082
      2 C2         -0.7181    1.5718    1.2479 C.ar      1 <0>         0.1766
      3 C3         -2.0888    1.7835    1.2044 C.ar      1 <0>        -0.1947
      4 C4         -2.7520    2.2249    2.3399 C.ar      1 <0>        -0.0490
      5 C5         -1.9844    2.4545    3.5078 C.ar      1 <0>        -0.0890
      6 C6         -2.5784    2.9064    4.6938 C.ar      1 <0>        -0.0933
      7 C7         -1.8060    3.1163    5.7968 C.ar      1 <0>        -0.1126
      8 C8         -0.4331    2.8863    5.7604 C.ar      1 <0>        -0.0926
      9 C9          0.1749    2.4467    4.6243 C.ar      1 <0>        -0.0965
     10 C10        -0.5897    2.2197    3.4671 C.ar      1 <0>         0.1494
     11 N1         -0.0174    1.7880    2.3370 N.ar      1 <0>        -0.4806
     12 S1         -4.4924    2.4995    2.3272 S.3       1 <0>         0.0282
     13 C11        -4.8701    2.0437    0.6168 C.3       1 <0>        -0.1663
     14 C12        -6.3477    2.2052    0.3684 C.2       1 <0>         0.5517
     15 O1         -7.0741    2.5906    1.2603 O.2       1 <0>        -0.4782
     16 N2         -6.8621    1.9215   -0.8446 N.am      1 <0>        -0.5789
     17 N3         -8.2358    2.0716   -1.0754 N.2       1 <0>        -0.2203
     18 C13        -8.7312    1.7983   -2.2435 C.2       1 <0>         0.1158
     19 C14       -10.1766    1.9563   -2.4865 C.ar      1 <0>         0.0148
     20 C15       -11.0154    2.3946   -1.4587 C.ar      1 <0>        -0.1921
     21 C16       -12.3703    2.5474   -1.6914 C.ar      1 <0>         0.1463
     22 C17       -12.8999    2.2540   -2.9442 C.ar      1 <0>         0.0464
     23 C18       -12.0680    1.8118   -3.9682 C.ar      1 <0>         0.1463
     24 C19       -10.7114    1.6626   -3.7433 C.ar      1 <0>        -0.2042
     25 O2        -12.5894    1.5257   -5.1912 O.3       1 <0>        -0.2999
     26 C20       -11.6780    1.0761   -6.1959 C.3       1 <0>         0.0229
     27 O3        -14.2338    2.3994   -3.1683 O.3       1 <0>        -0.3126
     28 C21       -15.0623    1.2639   -2.9112 C.3       1 <0>         0.0356
     29 O4        -13.1866    2.9793   -0.6930 O.3       1 <0>        -0.3005
     30 C22       -12.5759    3.2621    0.5676 C.3       1 <0>         0.0228
     31 H1          0.0021   -0.0041    0.0020 H         1 <0>         0.0830
     32 H2          1.0099    1.4631    0.0003 H         1 <0>         0.0822
     33 H3         -0.5399    1.4469   -0.8751 H         1 <0>         0.0762
     34 H4         -2.6374    1.6010    0.2922 H         1 <0>         0.1369
     35 H5         -3.6424    3.0874    4.7335 H         1 <0>         0.1316
     36 H6         -2.2644    3.4649    6.7104 H         1 <0>         0.1320
     37 H7          0.1587    3.0597    6.6470 H         1 <0>         0.1338
     38 H8          1.2408    2.2734    4.6123 H         1 <0>         0.1387
     39 H9         -4.3147    2.6903   -0.0626 H         1 <0>         0.1282
     40 H10        -4.5842    1.0059    0.4457 H         1 <0>         0.1281
     41 H11        -6.2813    1.6133   -1.5577 H         1 <0>         0.3902
     42 H12        -8.0845    1.4552   -3.0375 H         1 <0>         0.1276
     43 H13       -10.6055    2.6182   -0.4848 H         1 <0>         0.1492
     44 H14       -10.0662    1.3190   -4.5384 H         1 <0>         0.1418
     45 H15       -10.9234    1.8429   -6.3713 H         1 <0>         0.0593
     46 H16       -11.1931    0.1587   -5.8623 H         1 <0>         0.0580
     47 H17       -12.2224    0.8838   -7.1205 H         1 <0>         0.1047
     48 H18       -14.9709    0.9771   -1.8636 H         1 <0>         0.0458
     49 H19       -16.1003    1.5145   -3.1300 H         1 <0>         0.0945
     50 H20       -14.7478    0.4339   -3.5439 H         1 <0>         0.0455
     51 H21       -13.3366    3.5967    1.2729 H         1 <0>         0.1053
     52 H22       -12.0975    2.3604    0.9500 H         1 <0>         0.0595
     53 H23       -11.8279    4.0448    0.4416 H         1 <0>         0.0608
@<TRIPOS>BOND
     1    1    2 1
     2    1   31 1
     3    1   32 1
     4    1   33 1
     5    2   11 ar
     6    2    3 ar
     7    3    4 ar
     8    3   34 1
     9    4    5 ar
    10    4   12 1
    11    5   10 ar
    12    5    6 ar
    13    6    7 ar
    14    6   35 1
    15    7    8 ar
    16    7   36 1
    17    8    9 ar
    18    8   37 1
    19    9   10 ar
    20    9   38 1
    21   10   11 ar
    22   12   13 1
    23   13   14 1
    24   13   39 1
    25   13   40 1
    26   14   15 2
    27   14   16 am
    28   16   17 1
    29   16   41 1
    30   17   18 2
    31   18   19 1
    32   18   42 1
    33   19   24 ar
    34   19   20 ar
    35   20   21 ar
    36   20   43 1
    37   21   22 ar
    38   21   29 1
    39   22   23 ar
    40   22   27 1
    41   23   24 ar
    42   23   25 1
    43   24   44 1
    44   25   26 1
    45   26   45 1
    46   26   46 1
    47   26   47 1
    48   27   28 1
    49   28   48 1
    50   28   49 1
    51   28   50 1
    52   29   30 1
    53   30   51 1
    54   30   52 1
    55   30   53 1
@<TRIPOS>MOLECULE
ZINC00871068
   49    51     0     0     0
SMALL
USER_CHARGES
N-[(3,4-dimethoxyphenyl)methyleneamino]-2-[(2-methyl-4-quinolyl)sulfanyl]acetamide
@<TRIPOS>ATOM
      1 C1         -0.0127    1.0858    0.0080 C.3       1 <0>        -0.1082
      2 C2         -0.7181    1.5718    1.2479 C.ar      1 <0>         0.1767
      3 C3         -2.0888    1.7835    1.2044 C.ar      1 <0>        -0.1950
      4 C4         -2.7520    2.2249    2.3399 C.ar      1 <0>        -0.0487
      5 C5         -1.9844    2.4545    3.5078 C.ar      1 <0>        -0.0892
      6 C6         -2.5784    2.9064    4.6938 C.ar      1 <0>        -0.0929
      7 C7         -1.8060    3.1163    5.7968 C.ar      1 <0>        -0.1131
      8 C8         -0.4331    2.8863    5.7604 C.ar      1 <0>        -0.0927
      9 C9          0.1749    2.4467    4.6243 C.ar      1 <0>        -0.0967
     10 C10        -0.5897    2.2197    3.4671 C.ar      1 <0>         0.1494
     11 N1         -0.0174    1.7880    2.3370 N.ar      1 <0>        -0.4811
     12 S1         -4.4924    2.4995    2.3272 S.3       1 <0>         0.0282
     13 C11        -4.8701    2.0437    0.6168 C.3       1 <0>        -0.1660
     14 C12        -6.3477    2.2052    0.3684 C.2       1 <0>         0.5511
     15 O1         -7.0741    2.5906    1.2603 O.2       1 <0>        -0.4795
     16 N2         -6.8621    1.9215   -0.8446 N.am      1 <0>        -0.5798
     17 N3         -8.2358    2.0716   -1.0754 N.2       1 <0>        -0.2300
     18 C13        -8.7311    1.7984   -2.2435 C.2       1 <0>         0.1240
     19 C14       -10.1766    1.9563   -2.4865 C.ar      1 <0>        -0.0619
     20 C15       -11.0157    2.3946   -1.4588 C.ar      1 <0>        -0.0671
     21 C16       -12.3666    2.5472   -1.6899 C.ar      1 <0>        -0.1798
     22 C17       -12.8975    2.2560   -2.9381 C.ar      1 <0>         0.1222
     23 C18       -12.0678    1.8126   -3.9656 C.ar      1 <0>         0.0950
     24 C19       -10.7118    1.6626   -3.7433 C.ar      1 <0>        -0.1422
     25 O2        -12.5920    1.5276   -5.1877 O.3       1 <0>        -0.3043
     26 C20       -11.6832    1.0782   -6.1947 C.3       1 <0>         0.0243
     27 O3        -14.2307    2.4032   -3.1589 O.3       1 <0>        -0.3035
     28 C21       -15.0233    2.8616   -2.0617 C.3       1 <0>         0.0233
     29 H1          0.0021   -0.0041    0.0020 H         1 <0>         0.0829
     30 H2          1.0099    1.4631    0.0003 H         1 <0>         0.0821
     31 H3         -0.5399    1.4469   -0.8751 H         1 <0>         0.0761
     32 H4         -2.6374    1.6010    0.2922 H         1 <0>         0.1370
     33 H5         -3.6424    3.0874    4.7335 H         1 <0>         0.1317
     34 H6         -2.2644    3.4649    6.7104 H         1 <0>         0.1319
     35 H7          0.1587    3.0597    6.6470 H         1 <0>         0.1336
     36 H8          1.2408    2.2734    4.6123 H         1 <0>         0.1385
     37 H9         -4.3147    2.6903   -0.0626 H         1 <0>         0.1275
     38 H10        -4.5842    1.0059    0.4457 H         1 <0>         0.1275
     39 H11        -6.2813    1.6133   -1.5577 H         1 <0>         0.3885
     40 H12        -8.0844    1.4552   -3.0375 H         1 <0>         0.1223
     41 H13       -10.6057    2.6178   -0.4849 H         1 <0>         0.1412
     42 H14       -13.0135    2.8900   -0.8959 H         1 <0>         0.1416
     43 H15       -10.0675    1.3197   -4.5393 H         1 <0>         0.1416
     44 H16       -10.9285    1.8447   -6.3712 H         1 <0>         0.0559
     45 H17       -11.1981    0.1603   -5.8629 H         1 <0>         0.0559
     46 H18       -12.2297    0.8870   -7.1182 H         1 <0>         0.1025
     47 H19       -14.9395    2.1576   -1.2338 H         1 <0>         0.0580
     48 H20       -14.6693    3.8419   -1.7424 H         1 <0>         0.0580
     49 H21       -16.0656    2.9351   -2.3721 H         1 <0>         0.1033
@<TRIPOS>BOND
     1    1    2 1
     2    1   29 1
     3    1   30 1
     4    1   31 1
     5    2   11 ar
     6    2    3 ar
     7    3    4 ar
     8    3   32 1
     9    4    5 ar
    10    4   12 1
    11    5   10 ar
    12    5    6 ar
    13    6    7 ar
    14    6   33 1
    15    7    8 ar
    16    7   34 1
    17    8    9 ar
    18    8   35 1
    19    9   10 ar
    20    9   36 1
    21   10   11 ar
    22   12   13 1
    23   13   14 1
    24   13   37 1
    25   13   38 1
    26   14   15 2
    27   14   16 am
    28   16   17 1
    29   16   39 1
    30   17   18 2
    31   18   19 1
    32   18   40 1
    33   19   24 ar
    34   19   20 ar
    35   20   21 ar
    36   20   41 1
    37   21   22 ar
    38   21   42 1
    39   22   23 ar
    40   22   27 1
    41   23   24 ar
    42   23   25 1
    43   24   43 1
    44   25   26 1
    45   26   44 1
    46   26   45 1
    47   26   46 1
    48   27   28 1
    49   28   47 1
    50   28   48 1
    51   28   49 1
