@<TRIPOS>MOLECULE
ZINC43206679
   38    40     0     0     0
SMALL
USER_CHARGES

@<TRIPOS>ATOM
      1 C1          0.0575    1.6813    0.0331 C.3       1 <0>        -0.1497
      2 C2          0.1730    0.1560    0.0005 C.3       1 <0>        -0.1129
      3 C3         -1.2268   -0.4611   -0.0221 C.3       1 <0>        -0.0381
      4 C4         -1.1130   -1.9635   -0.0543 C.2       1 <0>         0.2508
      5 N1         -1.0431   -2.6950   -1.1385 N.2       1 <0>        -0.4634
      6 C5         -0.9494   -3.9849   -0.8101 C.2       1 <0>         0.0841
      7 C6         -0.9614   -4.0646    0.5648 C.2       1 <0>        -0.0770
      8 N2         -1.0613   -2.7631    1.0259 N.pl3     1 <0>        -0.3727
      9 C7         -1.0896   -2.5399    2.3928 C.ar      1 <0>         0.3305
     10 C8         -1.0129   -3.6413    3.2624 C.ar      1 <0>         0.0219
     11 C9         -1.0414   -3.4175    4.6464 C.ar      1 <0>         0.0059
     12 C10        -1.1441   -2.1174    5.0975 C.ar      1 <0>        -0.1761
     13 C11        -1.2157   -1.0766    4.1759 C.ar      1 <0>         0.3580
     14 N3         -1.1867   -1.3112    2.8754 N.ar      1 <0>        -0.5431
     15 O1         -1.3172    0.2010    4.6204 O.3       1 <0>        -0.2954
     16 C12        -1.3872    1.2288    3.6300 C.3       1 <0>         0.0339
     17 N4         -0.9123   -4.9030    2.7714 N.2       1 <0>        -0.4748
     18 C13        -0.8925   -5.1315    1.4848 C.2       1 <0>         0.2429
     19 C14        -0.7784   -6.5467    0.9797 C.3       1 <0>        -0.1058
     20 C15        -0.8495   -5.1433   -1.7688 C.3       1 <0>        -0.0782
     21 H1          1.0547    2.1210    0.0493 H         1 <0>         0.0586
     22 H2         -0.4765    2.0243   -0.8530 H         1 <0>         0.0595
     23 H3         -0.4881    1.9853    0.9265 H         1 <0>         0.0545
     24 H4          0.7186   -0.1480   -0.8928 H         1 <0>         0.0683
     25 H5          0.7071   -0.1869    0.8867 H         1 <0>         0.0578
     26 H6         -1.7724   -0.1571    0.8712 H         1 <0>         0.0936
     27 H7         -1.7608   -0.1181   -0.9083 H         1 <0>         0.0970
     28 H8         -0.9847   -4.2419    5.3418 H         1 <0>         0.1661
     29 H9         -1.1690   -1.9091    6.1570 H         1 <0>         0.1606
     30 H10        -1.4656    2.1998    4.1189 H         1 <0>         0.1034
     31 H11        -0.4874    1.2030    3.0154 H         1 <0>         0.0638
     32 H12        -2.2621    1.0674    3.0002 H         1 <0>         0.0614
     33 H13         0.0831   -6.6275    0.3168 H         1 <0>         0.0905
     34 H14        -0.6522   -7.2247    1.8237 H         1 <0>         0.0895
     35 H15        -1.6835   -6.8115    0.4331 H         1 <0>         0.0914
     36 H16         0.1982   -5.4088   -1.9099 H         1 <0>         0.0811
     37 H17        -1.3895   -5.9986   -1.3627 H         1 <0>         0.0808
     38 H18        -1.2849   -4.8604   -2.7271 H         1 <0>         0.0813
@<TRIPOS>BOND
     1    1    2 1
     2    1   21 1
     3    1   22 1
     4    1   23 1
     5    2    3 1
     6    2   24 1
     7    2   25 1
     8    3    4 1
     9    3   26 1
    10    3   27 1
    11    4    8 1
    12    4    5 2
    13    5    6 1
    14    6    7 2
    15    6   20 1
    16    7   18 1
    17    7    8 1
    18    8    9 1
    19    9   14 ar
    20    9   10 ar
    21   10   11 ar
    22   10   17 1
    23   11   12 ar
    24   11   28 1
    25   12   13 ar
    26   12   29 1
    27   13   14 ar
    28   13   15 1
    29   15   16 1
    30   16   30 1
    31   16   31 1
    32   16   32 1
    33   17   18 2
    34   18   19 1
    35   19   33 1
    36   19   34 1
    37   19   35 1
    38   20   36 1
    39   20   37 1
    40   20   38 1
@<TRIPOS>MOLECULE
ZINC00056555
   46    48     0     0     0
SMALL
USER_CHARGES

@<TRIPOS>ATOM
      1 C1         -0.0173    1.4248    0.0099 C.3       1 <0>         0.0258
      2 O1          0.0021   -0.0041    0.0020 O.3       1 <0>        -0.3063
      3 C2          0.6262   -0.6188    1.0422 C.ar      1 <0>         0.0999
      4 C3          1.2021    0.1367    2.0510 C.ar      1 <0>        -0.1710
      5 C4          1.8358   -0.4897    3.1079 C.ar      1 <0>        -0.1122
      6 C5          1.8971   -1.8699    3.1612 C.ar      1 <0>        -0.0760
      7 C6          1.3251   -2.6295    2.1578 C.ar      1 <0>        -0.1547
      8 C7          0.6830   -2.0080    1.0988 C.ar      1 <0>         0.1015
      9 O2          0.1145   -2.7540    0.1140 O.3       1 <0>        -0.3064
     10 C8          0.2115   -4.1743    0.2380 C.3       1 <0>         0.0255
     11 C9          2.5896   -2.5476    4.3154 C.3       1 <0>        -0.0305
     12 C10         1.5954   -2.8002    5.4194 C.ar      1 <0>         0.1803
     13 C11         1.3868   -1.8306    6.4126 C.ar      1 <0>        -0.0927
     14 C12         2.0813   -0.6102    6.4178 C.ar      1 <0>        -0.1656
     15 C13         1.8397    0.2976    7.4073 C.ar      1 <0>         0.1202
     16 C14         0.9067    0.0284    8.4207 C.ar      1 <0>         0.1418
     17 C15         0.2161   -1.1496    8.4419 C.ar      1 <0>        -0.1891
     18 C16         0.4428   -2.1015    7.4380 C.ar      1 <0>        -0.0102
     19 C17        -0.2384   -3.3323    7.4069 C.ar      1 <0>        -0.1601
     20 C18         0.0362   -4.2060    6.3992 C.ar      1 <0>         0.0826
     21 N1          0.9194   -3.9252    5.4505 N.ar      1 <0>        -0.4840
     22 O3          0.6880    0.9516    9.3935 O.3       1 <0>        -0.3019
     23 C19        -0.2734    0.6206   10.3977 C.3       1 <0>         0.0223
     24 O4          2.5122    1.4790    7.4120 O.3       1 <0>        -0.3019
     25 C20         3.4494    1.6962    6.3553 C.3       1 <0>         0.0208
     26 H1          1.0053    1.8021    0.0021 H         1 <0>         0.0553
     27 H2         -0.5445    1.7859   -0.8732 H         1 <0>         0.1013
     28 H3         -0.5275    1.7763    0.9067 H         1 <0>         0.0545
     29 H4          1.1562    1.2150    2.0113 H         1 <0>         0.1358
     30 H5          2.2842    0.1003    3.8935 H         1 <0>         0.1221
     31 H6          1.3747   -3.7075    2.2017 H         1 <0>         0.1401
     32 H7          1.2614   -4.4664    0.2576 H         1 <0>         0.0558
     33 H8         -0.2714   -4.4922    1.1620 H         1 <0>         0.0564
     34 H9         -0.2815   -4.6476   -0.6111 H         1 <0>         0.1010
     35 H10         3.0097   -3.4961    3.9808 H         1 <0>         0.0985
     36 H11         3.3894   -1.9067    4.6863 H         1 <0>         0.0913
     37 H12         2.8023   -0.3917    5.6438 H         1 <0>         0.1473
     38 H13        -0.4993   -1.3466    9.2266 H         1 <0>         0.1459
     39 H14        -0.9645   -3.5793    8.1673 H         1 <0>         0.1371
     40 H15        -0.4831   -5.1525    6.3692 H         1 <0>         0.1540
     41 H16        -0.3511    1.4413   11.1107 H         1 <0>         0.1057
     42 H17        -1.2436    0.4521    9.9304 H         1 <0>         0.0589
     43 H18         0.0414   -0.2840   10.9179 H         1 <0>         0.0591
     44 H19         4.2164    0.9223    6.3853 H         1 <0>         0.0590
     45 H20         2.9316    1.6577    5.3969 H         1 <0>         0.0571
     46 H21         3.9148    2.6741    6.4778 H         1 <0>         0.1062
@<TRIPOS>BOND
     1    1    2 1
     2    1   26 1
     3    1   27 1
     4    1   28 1
     5    2    3 1
     6    3    8 ar
     7    3    4 ar
     8    4    5 ar
     9    4   29 1
    10    5    6 ar
    11    5   30 1
    12    6    7 ar
    13    6   11 1
    14    7    8 ar
    15    7   31 1
    16    8    9 1
    17    9   10 1
    18   10   32 1
    19   10   33 1
    20   10   34 1
    21   11   12 1
    22   11   35 1
    23   11   36 1
    24   12   21 ar
    25   12   13 ar
    26   13   18 ar
    27   13   14 ar
    28   14   15 ar
    29   14   37 1
    30   15   16 ar
    31   15   24 1
    32   16   17 ar
    33   16   22 1
    34   17   18 ar
    35   17   38 1
    36   18   19 ar
    37   19   20 ar
    38   19   39 1
    39   20   21 ar
    40   20   40 1
    41   22   23 1
    42   23   41 1
    43   23   42 1
    44   23   43 1
    45   24   25 1
    46   25   44 1
    47   25   45 1
    48   25   46 1
@<TRIPOS>MOLECULE
ZINC28564081
   32    35     0     0     0
SMALL
USER_CHARGES

@<TRIPOS>ATOM
      1 C1         -0.0178    1.4608    0.0101 C.3       1 <0>         0.0742
      2 N1          0.0021   -0.0041    0.0020 N.am      1 <0>        -0.5422
      3 C2         -1.1474   -0.7989    0.0032 C.ar      1 <0>         0.1328
      4 C3         -2.4897   -0.4451    0.0115 C.ar      1 <0>        -0.0891
      5 C4         -3.4671   -1.4370    0.0103 C.ar      1 <0>        -0.0892
      6 C5         -4.9356   -1.4272    0.0164 C.2       1 <0>        -0.2156
      7 C6         -5.3183   -2.7112    0.0104 C.2       1 <0>         0.0252
      8 O1         -4.2414   -3.5158    0.0012 O.3       1 <0>        -0.1885
      9 C7         -3.1022   -2.7938    0.0007 C.ar      1 <0>         0.0370
     10 C8         -1.7551   -3.1344   -0.0076 C.ar      1 <0>        -0.0217
     11 C9         -0.7980   -2.1483   -0.0063 C.ar      1 <0>        -0.1020
     12 C10         0.7136   -2.1936   -0.0141 C.3       1 <0>        -0.0943
     13 H1          1.0848   -2.6998    0.8770 H         1 <0>         0.1623
     14 C11         1.1273   -0.7377   -0.0131 C.2       1 <0>         0.5394
     15 O2          2.2632   -0.3126   -0.0219 O.2       1 <0>        -0.4874
     16 C12         1.2144   -2.8820   -1.2576 C.2       1 <0>         0.5302
     17 O3          0.4256   -3.3048   -2.0762 O.2       1 <0>        -0.4377
     18 N2          2.5388   -3.0279   -1.4601 N.am      1 <0>        -0.6081
     19 C13         3.0010   -3.6633   -2.6077 C.2       1 <0>         0.2388
     20 N3          2.3127   -4.1800   -3.6065 N.2       1 <0>        -0.3055
     21 N4          2.8786   -4.7315   -4.5925 N.2       1 <0>        -0.2320
     22 C14         4.1948   -4.7926   -4.6247 C.2       1 <0>         0.0079
     23 S1          4.5880   -3.9674   -3.0887 S.3       1 <0>         0.0870
     24 H2          1.0048    1.8381    0.0023 H         1 <0>         0.0950
     25 H3         -0.5450    1.8219   -0.8730 H         1 <0>         0.0759
     26 H4         -0.5280    1.8123    0.9069 H         1 <0>         0.0776
     27 H5         -2.7751    0.5965    0.0192 H         1 <0>         0.1360
     28 H6         -5.5782   -0.5592    0.0241 H         1 <0>         0.1625
     29 H7         -6.3436   -3.0507    0.0131 H         1 <0>         0.2128
     30 H8         -1.4605   -4.1734   -0.0146 H         1 <0>         0.1424
     31 H9          3.1697   -2.6898   -0.8055 H         1 <0>         0.4351
     32 H10         4.8505   -5.2173   -5.3704 H         1 <0>         0.2413
@<TRIPOS>BOND
     1    1    2 1
     2    1   24 1
     3    1   25 1
     4    1   26 1
     5    2   14 am
     6    2    3 1
     7    3   11 ar
     8    3    4 ar
     9    4    5 ar
    10    4   27 1
    11    5    9 ar
    12    5    6 1
    13    6    7 2
    14    6   28 1
    15    7    8 1
    16    7   29 1
    17    8    9 1
    18    9   10 ar
    19   10   11 ar
    20   10   30 1
    21   11   12 1
    22   12   13 1
    23   12   14 1
    24   12   16 1
    25   14   15 2
    26   16   17 2
    27   16   18 am
    28   18   19 1
    29   18   31 1
    30   19   23 1
    31   19   20 2
    32   20   21 1
    33   21   22 2
    34   22   23 1
    35   22   32 1
@<TRIPOS>MOLECULE
ZINC28564081
   31    34     0     0     0
SMALL
USER_CHARGES
(7R)-5-methyl-6-oxo-N-(1,3,4-thiadiazol-2-yl)-7H-furo[2,3-f]indole-7-carboxamide
@<TRIPOS>ATOM
      1 C1          0.4556    7.5752    3.2221 C.3       1 <0>         0.0846
      2 N1          0.1768    6.9292    1.9371 N.pl3     1 <0>        -0.5592
      3 C2         -1.0120    7.0978    1.2220 C.ar      1 <0>         0.0989
      4 C3         -2.1404    7.8527    1.5114 C.ar      1 <0>        -0.1071
      5 C4         -3.2159    7.8572    0.6269 C.ar      1 <0>        -0.1458
      6 C5         -4.5277    8.5174    0.6134 C.2       1 <0>        -0.2080
      7 C6         -5.1302    8.1292   -0.5186 C.2       1 <0>        -0.0170
      8 O1         -4.3298    7.2978   -1.2082 O.3       1 <0>        -0.2020
      9 C7         -3.1644    7.1034   -0.5578 C.ar      1 <0>         0.0431
     10 C8         -2.0287    6.3529   -0.8360 C.ar      1 <0>        -0.0918
     11 C9         -0.9729    6.3542    0.0437 C.ar      1 <0>         0.0154
     12 C10         0.3695    5.6579    0.0273 C.2       1 <0>        -0.4484
     13 C11         1.0343    6.1063    1.3109 C.2       1 <0>         0.5317
     14 O2          2.1359    5.7824    1.7017 O.3       1 <0>        -0.5725
     15 C12         0.1879    4.1619    0.0217 C.2       1 <0>         0.5577
     16 O3         -0.9278    3.6864    0.0301 O.2       1 <0>        -0.5203
     17 N2          1.2654    3.3524    0.0073 N.am      1 <0>        -0.6159
     18 C13         1.0978    1.9718    0.0022 C.2       1 <0>         0.3234
     19 N3         -0.0150    1.2581    0.0090 N.2       1 <0>        -0.3242
     20 N4          0.0021   -0.0041    0.0020 N.2       1 <0>        -0.2377
     21 C14         1.1450   -0.6605   -0.0124 C.2       1 <0>        -0.0161
     22 S1          2.2948    0.7100   -0.0160 S.3       1 <0>        -0.0396
     23 H1         -0.4046    8.1950    3.5151 H         1 <0>         0.0698
     24 H2          1.3493    8.2095    3.1273 H         1 <0>         0.0606
     25 H3          0.6314    6.8061    3.9886 H         1 <0>         0.0568
     26 H4         -2.1847    8.4338    2.4207 H         1 <0>         0.1108
     27 H5         -4.9266    9.1823    1.3651 H         1 <0>         0.1461
     28 H6         -6.1163    8.4391   -0.8317 H         1 <0>         0.1967
     29 H7         -1.9755    5.7692   -1.7431 H         1 <0>         0.1220
     30 H8          2.2773    3.7837   -0.0004 H         1 <0>         0.4582
     31 H9          1.3337   -1.7238   -0.0202 H         1 <0>         0.2300
@<TRIPOS>BOND
     1    1    2 1
     2    1   23 1
     3    1   24 1
     4    1   25 1
     5    2   13 1
     6    2    3 1
     7    3   11 ar
     8    3    4 ar
     9    4    5 ar
    10    4   26 1
    11    5    9 ar
    12    5    6 1
    13    6    7 2
    14    6   27 1
    15    7    8 1
    16    7   28 1
    17    8    9 1
    18    9   10 ar
    19   10   11 ar
    20   10   29 1
    21   11   12 1
    22   12   13 2
    23   12   15 1
    24   13   14 1
    25   15   16 2
    26   15   17 am
    27   17   18 1
    28   17   30 1
    29   18   22 1
    30   18   19 2
    31   19   20 1
    32   20   21 2
    33   21   22 1
    34   21   31 1
@<TRIPOS>MOLECULE
ZINC01558334
   43    44     0     0     0
SMALL
USER_CHARGES
3-(6-aminopurin-9-yl)nonan-2-ol
@<TRIPOS>ATOM
      1 C1         -2.5792    5.4900    7.5230 C.3       1 <0>        -0.1546
      2 C2         -3.4664    5.7632    6.3068 C.3       1 <0>        -0.1248
      3 C3         -2.6847    5.4605    5.0269 C.3       1 <0>        -0.1207
      4 C4         -3.5719    5.7336    3.8107 C.3       1 <0>        -0.1176
      5 C5         -2.7901    5.4309    2.5308 C.3       1 <0>        -0.1182
      6 C6         -3.6774    5.7041    1.3146 C.3       1 <0>        -0.1274
      7 C7         -2.8586    5.5228    0.0350 C.3       1 <0>         0.1077
      8 H1         -1.9697    6.1521    0.0801 H         1 <0>         0.1111
      9 C8         -3.7063    5.9235   -1.1740 C.3       1 <0>         0.0984
     10 H2         -4.5712    5.2640   -1.2460 H         1 <0>         0.1065
     11 C9         -2.8668    5.8044   -2.4476 C.3       1 <0>        -0.1859
     12 O1         -4.1484    7.2735   -1.0194 O.3       1 <0>        -0.5468
     13 N1         -2.4574    4.1196   -0.0934 N.pl3     1 <0>        -0.4588
     14 C10        -3.2934    3.0461   -0.1775 C.2       1 <0>         0.2624
     15 N2         -2.6001    1.9497   -0.2817 N.2       1 <0>        -0.4645
     16 C11        -1.2789    2.2495   -0.2766 C.ar      1 <0>        -0.1052
     17 C12        -1.1714    3.6449   -0.1502 C.ar      1 <0>         0.2983
     18 N3          0.0359    4.1992   -0.1160 N.ar      1 <0>        -0.5401
     19 C13         1.1186    3.4544   -0.1940 C.ar      1 <0>         0.3489
     20 N4          1.0679    2.1399   -0.3085 N.ar      1 <0>        -0.5500
     21 C14        -0.0946    1.4970   -0.3510 C.ar      1 <0>         0.4564
     22 N5         -0.1377    0.1190   -0.4717 N.pl3     1 <0>        -0.7516
     23 H3         -2.2741    4.4436    7.5225 H         1 <0>         0.0532
     24 H4         -1.6952    6.1262    7.4781 H         1 <0>         0.0536
     25 H5         -3.1361    5.7057    8.4348 H         1 <0>         0.0545
     26 H6         -3.7715    6.8096    6.3073 H         1 <0>         0.0612
     27 H7         -4.3503    5.1270    6.3517 H         1 <0>         0.0605
     28 H8         -2.3796    4.4141    5.0264 H         1 <0>         0.0589
     29 H9         -1.8007    6.0967    4.9820 H         1 <0>         0.0610
     30 H10        -3.8770    6.7801    3.8112 H         1 <0>         0.0643
     31 H11        -4.4558    5.0974    3.8556 H         1 <0>         0.0619
     32 H12        -2.4851    4.3845    2.5303 H         1 <0>         0.0561
     33 H13        -1.9062    6.0671    2.4859 H         1 <0>         0.0640
     34 H14        -4.0552    6.7254    1.3626 H         1 <0>         0.0965
     35 H15        -4.5150    5.0066    1.3119 H         1 <0>         0.0729
     36 H16        -2.5296    4.7746   -2.5655 H         1 <0>         0.0616
     37 H17        -3.4708    6.0898   -3.3089 H         1 <0>         0.0728
     38 H18        -2.0020    6.4639   -2.3756 H         1 <0>         0.0636
     39 H19        -3.4300    7.9170   -0.9488 H         1 <0>         0.3802
     40 H20        -4.3720    3.0980   -0.1607 H         1 <0>         0.2213
     41 H21         2.0845    3.9365   -0.1628 H         1 <0>         0.2081
     42 H22         0.3132   -0.1555   -1.3210 H         1 <0>         0.3673
     43 H23        -0.9924   -0.3387   -0.5016 H         1 <0>         0.3831
@<TRIPOS>BOND
     1    1    2 1
     2    1   23 1
     3    1   24 1
     4    1   25 1
     5    2    3 1
     6    2   26 1
     7    2   27 1
     8    3    4 1
     9    3   28 1
    10    3   29 1
    11    4    5 1
    12    4   30 1
    13    4   31 1
    14    5    6 1
    15    5   32 1
    16    5   33 1
    17    6    7 1
    18    6   34 1
    19    6   35 1
    20    7    8 1
    21    7    9 1
    22    7   13 1
    23    9   10 1
    24    9   11 1
    25    9   12 1
    26   11   36 1
    27   11   37 1
    28   11   38 1
    29   12   39 1
    30   13   17 1
    31   13   14 1
    32   14   15 2
    33   14   40 1
    34   15   16 1
    35   16   21 ar
    36   16   17 ar
    37   17   18 ar
    38   18   19 ar
    39   19   20 ar
    40   19   41 1
    41   20   21 ar
    42   21   22 1
    43   22   42 1
    44   22   43 1
@<TRIPOS>MOLECULE
ZINC01537820
   46    49     0     0     0
SMALL
USER_CHARGES
N-(benzo[1,3]dioxol-5-ylmethyl)-6,7,8-trimethoxy-quinazolin-4-amine
@<TRIPOS>ATOM
      1 C1         -0.1990    0.8421    0.1000 C.3       1 <0>         0.0214
      2 O1         -0.7713    1.3787    1.2944 O.3       1 <0>        -0.3002
      3 C2         -0.8313    2.7334    1.3956 C.ar      1 <0>         0.1161
      4 C3         -0.3483    3.5087    0.3784 C.ar      1 <0>        -0.1701
      5 C4         -0.4135    4.9036    0.4767 C.ar      1 <0>        -0.1528
      6 C5         -0.9679    5.5053    1.6332 C.ar      1 <0>         0.1544
      7 C6         -1.4530    4.6909    2.6689 C.ar      1 <0>         0.1233
      8 C7         -1.3815    3.3174    2.5425 C.ar      1 <0>         0.1005
      9 O2         -1.8500    2.5243    3.5429 O.3       1 <0>        -0.3187
     10 C8         -3.2225    2.1328    3.4716 C.3       1 <0>         0.0387
     11 O3         -1.9893    5.2498    3.7869 O.3       1 <0>        -0.3100
     12 C9         -1.0933    5.5366    4.8626 C.3       1 <0>         0.0423
     13 N1         -1.0127    6.8448    1.7051 N.ar      1 <0>        -0.5310
     14 C10        -0.5512    7.5791    0.7215 C.ar      1 <0>         0.3411
     15 N2         -0.0247    7.0615   -0.3777 N.ar      1 <0>        -0.5866
     16 C11         0.0680    5.7500   -0.5506 C.ar      1 <0>         0.4705
     17 N3          0.6186    5.2244   -1.7016 N.pl3     1 <0>        -0.6944
     18 C12         1.1109    6.1185   -2.7526 C.3       1 <0>         0.1752
     19 C13         1.6588    5.2996   -3.8929 C.ar      1 <0>        -0.1080
     20 C14         2.9931    4.9379   -3.9036 C.ar      1 <0>        -0.0856
     21 C15         3.4990    4.1820   -4.9446 C.ar      1 <0>        -0.1023
     22 C16         2.6717    3.7952   -5.9865 C.ar      1 <0>         0.0441
     23 C17         1.3288    4.1641   -5.9783 C.ar      1 <0>         0.0302
     24 C18         0.8273    4.9166   -4.9287 C.ar      1 <0>        -0.0799
     25 O4          0.7329    3.6666   -7.1011 O.3       1 <0>        -0.3070
     26 C19         1.8122    3.3394   -7.9963 C.3       1 <0>         0.2126
     27 O5          2.9172    3.0666   -7.1144 O.3       1 <0>        -0.3071
     28 H1         -0.2123   -0.2468    0.1481 H         1 <0>         0.1069
     29 H2          0.8298    1.1889    0.0025 H         1 <0>         0.0584
     30 H3         -0.7778    1.1749   -0.7616 H         1 <0>         0.0575
     31 H4          0.0779    3.0466   -0.4998 H         1 <0>         0.1382
     32 H5         -3.8519    3.0215    3.4258 H         1 <0>         0.0525
     33 H6         -3.3819    1.5282    2.5787 H         1 <0>         0.0489
     34 H7         -3.4804    1.5499    4.3558 H         1 <0>         0.0987
     35 H8         -0.6562    4.6077    5.2288 H         1 <0>         0.0496
     36 H9         -0.3010    6.1966    4.5094 H         1 <0>         0.0494
     37 H10        -1.6394    6.0243    5.6701 H         1 <0>         0.0982
     38 H11        -0.6028    8.6541    0.8121 H         1 <0>         0.1975
     39 H12         0.6798    4.2630   -1.8148 H         1 <0>         0.4111
     40 H13         0.2920    6.7411   -3.1129 H         1 <0>         0.0850
     41 H14         1.8998    6.7534   -2.3493 H         1 <0>         0.0875
     42 H15         3.6406    5.2429   -3.0948 H         1 <0>         0.1422
     43 H16         4.5408    3.8974   -4.9484 H         1 <0>         0.1402
     44 H17        -0.2136    5.2043   -4.9199 H         1 <0>         0.1385
     45 H18         2.0403    4.1842   -8.6461 H         1 <0>         0.0881
     46 H19         1.5661    2.4565   -8.5864 H         1 <0>         0.1351
@<TRIPOS>BOND
     1    1    2 1
     2    1   28 1
     3    1   29 1
     4    1   30 1
     5    2    3 1
     6    3    8 ar
     7    3    4 ar
     8    4    5 ar
     9    4   31 1
    10    5   16 ar
    11    5    6 ar
    12    6    7 ar
    13    6   13 ar
    14    7    8 ar
    15    7   11 1
    16    8    9 1
    17    9   10 1
    18   10   32 1
    19   10   33 1
    20   10   34 1
    21   11   12 1
    22   12   35 1
    23   12   36 1
    24   12   37 1
    25   13   14 ar
    26   14   15 ar
    27   14   38 1
    28   15   16 ar
    29   16   17 1
    30   17   18 1
    31   17   39 1
    32   18   19 1
    33   18   40 1
    34   18   41 1
    35   19   24 ar
    36   19   20 ar
    37   20   21 ar
    38   20   42 1
    39   21   22 ar
    40   21   43 1
    41   22   27 1
    42   22   23 ar
    43   23   24 ar
    44   23   25 1
    45   24   44 1
    46   25   26 1
    47   26   27 1
    48   26   45 1
    49   26   46 1
@<TRIPOS>MOLECULE
ZINC00596596
   67    70     0     0     0
SMALL
USER_CHARGES

@<TRIPOS>ATOM
      1 C1         -0.1127    1.1222   -0.8773 C.3       1 <0>        -0.0780
      2 C2         -0.2030   -0.3649   -0.6501 C.2       1 <0>         0.1312
      3 C3         -0.4418   -1.3198   -1.6058 C.2       1 <0>        -0.1682
      4 C4         -0.6767   -1.3021   -3.0491 C.2       1 <0>         0.5970
      5 O1         -0.6880   -0.2542   -3.6690 O.2       1 <0>        -0.4894
      6 N1         -0.8805   -2.4833   -3.6753 N.am      1 <0>        -0.6698
      7 H1         -1.0383   -2.4995   -4.6322 H         1 <0>         0.4252
      8 C5         -0.8654   -3.6590   -2.9681 C.2       1 <0>         0.3688
      9 N2         -0.6610   -3.7049   -1.6935 N.2       1 <0>        -0.2843
     10 N3         -0.4394   -2.5408   -0.9524 N.pl3     1 <0>        -0.2842
     11 C6         -0.2052   -2.2887    0.3429 C.2       1 <0>         0.3014
     12 N4         -0.0599   -0.9961    0.5162 N.2       1 <0>        -0.4530
     13 C7         -0.1165   -3.3284    1.4301 C.3       1 <0>        -0.0380
     14 H2         -0.2724   -4.3179    1.0002 H         1 <0>         0.1021
     15 C8          1.2662   -3.2677    2.0823 C.3       1 <0>        -0.1168
     16 C9          2.3296   -3.6798    1.0624 C.3       1 <0>        -0.1061
     17 C10         3.7036   -3.6930    1.7354 C.3       1 <0>        -0.0803
     18 C11         4.7511   -4.0989    0.7308 C.ar      1 <0>        -0.0797
     19 C12         5.0698   -5.4338    0.5657 C.ar      1 <0>        -0.1181
     20 C13         6.0306   -5.8062   -0.3558 C.ar      1 <0>        -0.1183
     21 C14         6.6724   -4.8437   -1.1124 C.ar      1 <0>        -0.1259
     22 C15         6.3531   -3.5088   -0.9479 C.ar      1 <0>        -0.1177
     23 C16         5.3892   -3.1368   -0.0295 C.ar      1 <0>        -0.1178
     24 C17        -1.1905   -3.0559    2.4853 C.3       1 <0>         0.1177
     25 H3         -2.1691   -3.0191    2.0066 H         1 <0>         0.0943
     26 C18        -1.1752   -4.1743    3.5293 C.3       1 <0>        -0.1859
     27 O2         -0.9249   -1.8051    3.1232 O.3       1 <0>        -0.5421
     28 C19        -1.0975   -4.9505   -3.7092 C.3       1 <0>        -0.0222
     29 C20        -1.0377   -6.1033   -2.7404 C.ar      1 <0>        -0.0776
     30 C21         0.1689   -6.7282   -2.4857 C.ar      1 <0>        -0.0920
     31 C22         0.2291   -7.7862   -1.5979 C.ar      1 <0>        -0.1701
     32 C23        -0.9215   -8.2221   -0.9607 C.ar      1 <0>         0.1082
     33 C24        -2.1360   -7.5928   -1.2167 C.ar      1 <0>         0.1018
     34 C25        -2.1884   -6.5299   -2.1041 C.ar      1 <0>        -0.1518
     35 O3         -3.2680   -8.0171   -0.5938 O.3       1 <0>        -0.3048
     36 C26        -4.4783   -7.3241   -0.9050 C.3       1 <0>         0.0260
     37 O4         -0.8642   -9.2630   -0.0873 O.3       1 <0>        -0.3054
     38 C27         0.4160   -9.8609    0.1262 C.3       1 <0>         0.0256
     39 H4          0.9187    1.3932   -1.1028 H         1 <0>         0.0797
     40 H5         -0.7530    1.4015   -1.7139 H         1 <0>         0.0813
     41 H6         -0.4383    1.6473    0.0207 H         1 <0>         0.0813
     42 H7          1.4633   -2.2510    2.4221 H         1 <0>         0.0815
     43 H8          1.2965   -3.9476    2.9337 H         1 <0>         0.0805
     44 H9          2.1018   -4.6756    0.6821 H         1 <0>         0.0635
     45 H10         2.3362   -2.9683    0.2367 H         1 <0>         0.0572
     46 H11         3.9315   -2.6972    2.1156 H         1 <0>         0.0736
     47 H12         3.6970   -4.4045    2.5611 H         1 <0>         0.0737
     48 H13         4.5683   -6.1859    1.1568 H         1 <0>         0.1198
     49 H14         6.2801   -6.8491   -0.4843 H         1 <0>         0.1208
     50 H15         7.4236   -5.1345   -1.8318 H         1 <0>         0.1204
     51 H16         6.8548   -2.7567   -1.5388 H         1 <0>         0.1206
     52 H17         5.1371   -2.0942    0.0964 H         1 <0>         0.1192
     53 H18        -0.2376   -4.1405    4.0842 H         1 <0>         0.0649
     54 H19        -2.0097   -4.0403    4.2175 H         1 <0>         0.0684
     55 H20        -1.2673   -5.1388    3.0299 H         1 <0>         0.0671
     56 H21        -0.0687   -1.7659    3.5708 H         1 <0>         0.3727
     57 H22        -2.0783   -4.9256   -4.1842 H         1 <0>         0.1164
     58 H23        -0.3280   -5.0757   -4.4709 H         1 <0>         0.1185
     59 H24         1.0665   -6.3894   -2.9817 H         1 <0>         0.1249
     60 H25         1.1728   -8.2731   -1.4012 H         1 <0>         0.1360
     61 H26        -3.1290   -6.0373   -2.3017 H         1 <0>         0.1329
     62 H27        -4.3738   -6.2724   -0.6382 H         1 <0>         0.0537
     63 H28        -4.6818   -7.4096   -1.9724 H         1 <0>         0.0549
     64 H29        -5.3026   -7.7616   -0.3418 H         1 <0>         0.1019
     65 H30         0.3211  -10.6766    0.8429 H         1 <0>         0.1016
     66 H31         0.7976  -10.2495   -0.8180 H         1 <0>         0.0555
     67 H32         1.1060   -9.1128    0.5165 H         1 <0>         0.0554
@<TRIPOS>BOND
     1    1    2 1
     2    1   39 1
     3    1   40 1
     4    1   41 1
     5    2   12 1
     6    2    3 2
     7    3   10 1
     8    3    4 1
     9    4    5 2
    10    4    6 am
    11    6    7 1
    12    6    8 1
    13    8    9 2
    14    8   28 1
    15    9   10 1
    16   10   11 1
    17   11   12 2
    18   11   13 1
    19   13   14 1
    20   13   15 1
    21   13   24 1
    22   15   16 1
    23   15   42 1
    24   15   43 1
    25   16   17 1
    26   16   44 1
    27   16   45 1
    28   17   18 1
    29   17   46 1
    30   17   47 1
    31   18   23 ar
    32   18   19 ar
    33   19   20 ar
    34   19   48 1
    35   20   21 ar
    36   20   49 1
    37   21   22 ar
    38   21   50 1
    39   22   23 ar
    40   22   51 1
    41   23   52 1
    42   24   25 1
    43   24   26 1
    44   24   27 1
    45   26   53 1
    46   26   54 1
    47   26   55 1
    48   27   56 1
    49   28   29 1
    50   28   57 1
    51   28   58 1
    52   29   34 ar
    53   29   30 ar
    54   30   31 ar
    55   30   59 1
    56   31   32 ar
    57   31   60 1
    58   32   33 ar
    59   32   37 1
    60   33   34 ar
    61   33   35 1
    62   34   61 1
    63   35   36 1
    64   36   62 1
    65   36   63 1
    66   36   64 1
    67   37   38 1
    68   38   65 1
    69   38   66 1
    70   38   67 1
@<TRIPOS>MOLECULE
ZINC00596596
   67    70     0     0     0
SMALL
USER_CHARGES

@<TRIPOS>ATOM
      1 C1         -0.1164    1.0986   -0.9068 C.3       1 <0>        -0.0757
      2 C2         -0.2069   -0.3868   -0.6690 C.2       1 <0>         0.1103
      3 C3         -0.4455   -1.3366   -1.6099 C.2       1 <0>        -0.1404
      4 C4         -0.6841   -1.3295   -3.0587 C.2       1 <0>         0.5684
      5 O1         -0.6954   -0.2830   -3.6827 O.2       1 <0>        -0.4546
      6 N1         -0.8904   -2.5092   -3.6849 N.2       1 <0>        -0.5792
      7 C5         -0.8812   -3.6385   -3.0321 C.2       1 <0>         0.4653
      8 N2         -0.6687   -3.7141   -1.7025 N.pl3     1 <0>        -0.5077
      9 H1         -0.6718   -4.5786   -1.2626 H         1 <0>         0.4349
     10 N3         -0.4434   -2.5547   -0.9535 N.pl3     1 <0>        -0.2581
     11 C6         -0.2071   -2.3008    0.3410 C.2       1 <0>         0.2578
     12 N4         -0.0611   -1.0084    0.5048 N.2       1 <0>        -0.4299
     13 C7         -0.1170   -3.3359    1.4325 C.3       1 <0>         0.0026
     14 H2         -0.2740   -4.3272    1.0071 H         1 <0>         0.0899
     15 C8          1.2669   -3.2731    2.0821 C.3       1 <0>        -0.1065
     16 C9          2.3287   -3.6867    1.0611 C.3       1 <0>        -0.1134
     17 C10         3.7035   -3.7007    1.7324 C.3       1 <0>        -0.0789
     18 C11         4.7494   -4.1081    0.7268 C.ar      1 <0>        -0.0823
     19 C12         5.0667   -5.4434    0.5620 C.ar      1 <0>        -0.1196
     20 C13         6.0261   -5.8171   -0.3604 C.ar      1 <0>        -0.1186
     21 C14         6.6678   -4.8556   -1.1183 C.ar      1 <0>        -0.1251
     22 C15         6.3499   -3.5203   -0.9542 C.ar      1 <0>        -0.1170
     23 C16         5.3874   -3.1470   -0.0348 C.ar      1 <0>        -0.1175
     24 C17        -1.1890   -3.0584    2.4883 C.3       1 <0>         0.1148
     25 H3         -2.1680   -3.0204    2.0107 H         1 <0>         0.0525
     26 C18        -1.1751   -4.1745    3.5348 C.3       1 <0>        -0.1894
     27 O2         -0.9196   -1.8068    3.1231 O.3       1 <0>        -0.5406
     28 C19        -1.1189   -4.9148   -3.7973 C.3       1 <0>        -0.0296
     29 C20        -1.3316   -4.5947   -5.2544 C.ar      1 <0>        -0.0671
     30 C21        -2.6060   -4.3397   -5.7257 C.ar      1 <0>        -0.0900
     31 C22        -2.8064   -4.0456   -7.0616 C.ar      1 <0>        -0.1708
     32 C23        -1.7284   -4.0054   -7.9313 C.ar      1 <0>         0.1087
     33 C24        -0.4456   -4.2615   -7.4568 C.ar      1 <0>         0.1017
     34 C25        -0.2512   -4.5510   -6.1158 C.ar      1 <0>        -0.1478
     35 O3          0.6156   -4.2232   -8.3065 O.3       1 <0>        -0.3056
     36 C26         1.9029   -4.4965   -7.7496 C.3       1 <0>         0.0266
     37 O4         -1.9238   -3.7166   -9.2458 O.3       1 <0>        -0.3063
     38 C27        -3.2675   -3.4651   -9.6620 C.3       1 <0>         0.0257
     39 H4          0.9147    1.3677   -1.1362 H         1 <0>         0.0796
     40 H5         -0.7582    1.3722   -1.7442 H         1 <0>         0.0832
     41 H6         -0.4401    1.6302   -0.0120 H         1 <0>         0.0798
     42 H7          1.4640   -2.2555    2.4193 H         1 <0>         0.0924
     43 H8          1.2991   -3.9511    2.9348 H         1 <0>         0.0796
     44 H9          2.0995   -4.6825    0.6817 H         1 <0>         0.0580
     45 H10         2.3350   -2.9756    0.2350 H         1 <0>         0.0581
     46 H11         3.9327   -2.7049    2.1118 H         1 <0>         0.0751
     47 H12         3.6973   -4.4117    2.5585 H         1 <0>         0.0742
     48 H13         4.5653   -6.1946    1.1542 H         1 <0>         0.1200
     49 H14         6.2745   -6.8603   -0.4886 H         1 <0>         0.1214
     50 H15         7.4179   -5.1475   -1.8385 H         1 <0>         0.1211
     51 H16         6.8515   -2.7690   -1.5461 H         1 <0>         0.1215
     52 H17         5.1364   -2.1041    0.0908 H         1 <0>         0.1199
     53 H18        -1.2691   -5.1399    3.0377 H         1 <0>         0.0656
     54 H19        -0.2372   -4.1410    4.0892 H         1 <0>         0.0729
     55 H20        -2.0091   -4.0375    4.2232 H         1 <0>         0.0648
     56 H21        -1.5609   -1.5659    3.8056 H         1 <0>         0.3772
     57 H22        -0.2531   -5.5685   -3.6915 H         1 <0>         0.1165
     58 H23        -2.0028   -5.4158   -3.4026 H         1 <0>         0.1189
     59 H24        -3.4471   -4.3708   -5.0489 H         1 <0>         0.1243
     60 H25        -3.8030   -3.8476   -7.4274 H         1 <0>         0.1359
     61 H26         0.7439   -4.7464   -5.7442 H         1 <0>         0.1317
     62 H27         1.9076   -5.4983   -7.3200 H         1 <0>         0.0538
     63 H28         2.6584   -4.4333   -8.5326 H         1 <0>         0.1008
     64 H29         2.1244   -3.7663   -6.9712 H         1 <0>         0.0542
     65 H30        -3.8807   -4.3435   -9.4608 H         1 <0>         0.0551
     66 H31        -3.6643   -2.6114   -9.1125 H         1 <0>         0.0560
     67 H32        -3.2825   -3.2484  -10.7301 H         1 <0>         0.1010
@<TRIPOS>BOND
     1    1    2 1
     2    1   39 1
     3    1   40 1
     4    1   41 1
     5    2   12 1
     6    2    3 2
     7    3   10 1
     8    3    4 1
     9    4    5 2
    10    4    6 1
    11    6    7 2
    12    7    8 1
    13    7   28 1
    14    8    9 1
    15    8   10 1
    16   10   11 1
    17   11   12 2
    18   11   13 1
    19   13   14 1
    20   13   15 1
    21   13   24 1
    22   15   16 1
    23   15   42 1
    24   15   43 1
    25   16   17 1
    26   16   44 1
    27   16   45 1
    28   17   18 1
    29   17   46 1
    30   17   47 1
    31   18   23 ar
    32   18   19 ar
    33   19   20 ar
    34   19   48 1
    35   20   21 ar
    36   20   49 1
    37   21   22 ar
    38   21   50 1
    39   22   23 ar
    40   22   51 1
    41   23   52 1
    42   24   25 1
    43   24   26 1
    44   24   27 1
    45   26   53 1
    46   26   54 1
    47   26   55 1
    48   27   56 1
    49   28   29 1
    50   28   57 1
    51   28   58 1
    52   29   34 ar
    53   29   30 ar
    54   30   31 ar
    55   30   59 1
    56   31   32 ar
    57   31   60 1
    58   32   33 ar
    59   32   37 1
    60   33   34 ar
    61   33   35 1
    62   34   61 1
    63   35   36 1
    64   36   62 1
    65   36   63 1
    66   36   64 1
    67   37   38 1
    68   38   65 1
    69   38   66 1
    70   38   67 1
@<TRIPOS>MOLECULE
ZINC00596596
   68    71     0     0     0
SMALL
USER_CHARGES
4-[(3,4-dimethoxyphenyl)methyl]-7-[1-(1-hydroxyethyl)-4-phenyl-butyl]-9-methyl-3,5,6,8-tetrazabicyclo[4.3.0]nona-4,7,9-trien-2-one
@<TRIPOS>ATOM
      1 C1          0.3170   -2.3935   -0.4149 C.3       1 <0>        -0.1107
      2 C2          1.3707   -1.3176   -0.4711 C.2       1 <0>         0.1665
      3 C3          1.1558    0.0197   -0.6898 C.2       1 <0>        -0.0990
      4 C4         -0.0228    0.8521   -0.9273 C.2       1 <0>         0.5979
      5 O1         -1.1376    0.3639   -0.9628 O.2       1 <0>        -0.4409
      6 N1          0.1614    2.1799   -1.1059 N.am      1 <0>        -0.6595
      7 H1         -0.6273    2.7723   -1.2700 H         1 <0>         0.4528
      8 C5          1.4216    2.7209   -1.0638 C.2       1 <0>         0.4200
      9 N2          2.4800    2.0105   -0.8556 N.2       1 <0>        -0.2774
     10 N3          2.3990    0.6290   -0.6594 N.pl3     1 <0>        -0.2312
     11 C6          3.3000   -0.3360   -0.4292 C.cat     1 <0>         0.3802
     12 C7          4.7884   -0.1287   -0.3160 C.3       1 <0>        -0.0744
     13 H2          5.0192    0.9281   -0.4503 H         1 <0>         0.1431
     14 C8          5.2629   -0.5827    1.0659 C.3       1 <0>        -0.1268
     15 C9          4.6450    0.3168    2.1383 C.3       1 <0>        -0.1158
     16 C10         5.2123   -0.0596    3.5084 C.3       1 <0>        -0.0792
     17 C11         4.6037    0.8263    4.5647 C.ar      1 <0>        -0.0914
     18 C12         5.2151    2.0192    4.9026 C.ar      1 <0>        -0.1154
     19 C13         4.6540    2.8344    5.8677 C.ar      1 <0>        -0.1146
     20 C14         3.4874    2.4516    6.5028 C.ar      1 <0>        -0.1186
     21 C15         2.8791    1.2560    6.1690 C.ar      1 <0>        -0.1170
     22 C16         3.4371    0.4435    5.1998 C.ar      1 <0>        -0.1204
     23 C17         5.5008   -0.9474   -1.3944 C.3       1 <0>         0.1142
     24 H3          5.3112   -2.0081   -1.2299 H         1 <0>         0.0665
     25 C18         4.9744   -0.5430   -2.7729 C.3       1 <0>        -0.1592
     26 O2          6.9067   -0.6993   -1.3298 O.3       1 <0>        -0.5372
     27 C19         1.5773    4.2057   -1.2690 C.3       1 <0>        -0.0287
     28 C20         3.0358    4.5746   -1.1821 C.ar      1 <0>        -0.0989
     29 C21         3.5875    4.9240    0.0365 C.ar      1 <0>        -0.0905
     30 C22         4.9263    5.2577    0.1224 C.ar      1 <0>        -0.1721
     31 C23         5.7158    5.2535   -1.0163 C.ar      1 <0>         0.1189
     32 C24         5.1592    4.9073   -2.2438 C.ar      1 <0>         0.1047
     33 C25         3.8179    4.5684   -2.3220 C.ar      1 <0>        -0.1533
     34 O3          5.9300    4.9013   -3.3642 O.3       1 <0>        -0.3010
     35 C26         5.2915    4.5353   -4.5890 C.3       1 <0>         0.0259
     36 O4          7.0316    5.5873   -0.9345 O.3       1 <0>        -0.3017
     37 C27         7.5344    5.9315    0.3580 C.3       1 <0>         0.0241
     38 H4          0.1617   -2.8025   -1.4132 H         1 <0>         0.1159
     39 H5          0.6441   -3.1876    0.2563 H         1 <0>         0.1039
     40 H6         -0.6169   -1.9685   -0.0470 H         1 <0>         0.1185
     41 H7          4.9544   -1.6144    1.2351 H         1 <0>         0.0758
     42 H8          6.3496   -0.5154    1.1171 H         1 <0>         0.1057
     43 H9          4.8826    1.3580    1.9202 H         1 <0>         0.0779
     44 H10         3.5631    0.1846    2.1442 H         1 <0>         0.0528
     45 H11         4.9747   -1.1008    3.7265 H         1 <0>         0.0740
     46 H12         6.2942    0.0726    3.5025 H         1 <0>         0.0806
     47 H13         6.1290    2.3162    4.4095 H         1 <0>         0.1217
     48 H14         5.1292    3.7686    6.1283 H         1 <0>         0.1248
     49 H15         3.0511    3.0867    7.2595 H         1 <0>         0.1246
     50 H16         1.9676    0.9569    6.6652 H         1 <0>         0.1229
     51 H17         2.9618   -0.4906    4.9390 H         1 <0>         0.1162
     52 H18         5.1641    0.5177   -2.9374 H         1 <0>         0.0768
     53 H19         5.4820   -1.1263   -3.5411 H         1 <0>         0.0853
     54 H20         3.9021   -0.7323   -2.8221 H         1 <0>         0.0554
     55 H21         7.3229   -1.0055   -0.5124 H         1 <0>         0.3869
     56 H22         1.1912    4.4793   -2.2509 H         1 <0>         0.1335
     57 H23         1.0210    4.7393   -0.4983 H         1 <0>         0.1355
     58 H24         2.9721    4.9322    0.9240 H         1 <0>         0.1266
     59 H25         5.3557    5.5263    1.0763 H         1 <0>         0.1395
     60 H26         3.3834    4.2997   -3.2735 H         1 <0>         0.1344
     61 H27         6.0169    4.5712   -5.4018 H         1 <0>         0.1056
     62 H28         4.8922    3.5247   -4.5028 H         1 <0>         0.0513
     63 H29         4.4783    5.2307   -4.7968 H         1 <0>         0.0571
     64 H30         8.5940    6.1760    0.2824 H         1 <0>         0.1059
     65 H31         6.9891    6.7936    0.7423 H         1 <0>         0.0586
     66 H32         7.4038    5.0876    1.0353 H         1 <0>         0.0559
     67 N4          2.6855   -1.4915   -0.3178 N.pl3     1 <0>        -0.4893
     68 H33         3.1463   -2.3917   -0.1400 H         1 <0>         0.4860
@<TRIPOS>BOND
     1    1    2 1
     2    1   38 1
     3    1   39 1
     4    1   40 1
     5    2    3 2
     6    2   67 1
     7    3   10 1
     8    3    4 1
     9    4    5 2
    10    4    6 am
    11    6    7 1
    12    6    8 1
    13    8    9 2
    14    8   27 1
    15    9   10 1
    16   10   11 1
    17   11   12 1
    18   11   67 2
    19   12   13 1
    20   12   14 1
    21   12   23 1
    22   14   15 1
    23   14   41 1
    24   14   42 1
    25   15   16 1
    26   15   43 1
    27   15   44 1
    28   16   17 1
    29   16   45 1
    30   16   46 1
    31   17   22 ar
    32   17   18 ar
    33   18   19 ar
    34   18   47 1
    35   19   20 ar
    36   19   48 1
    37   20   21 ar
    38   20   49 1
    39   21   22 ar
    40   21   50 1
    41   22   51 1
    42   23   24 1
    43   23   25 1
    44   23   26 1
    45   25   52 1
    46   25   53 1
    47   25   54 1
    48   26   55 1
    49   27   28 1
    50   27   56 1
    51   27   57 1
    52   28   33 ar
    53   28   29 ar
    54   29   30 ar
    55   29   58 1
    56   30   31 ar
    57   30   59 1
    58   31   32 ar
    59   31   36 1
    60   32   33 ar
    61   32   34 1
    62   33   60 1
    63   34   35 1
    64   35   61 1
    65   35   62 1
    66   35   63 1
    67   36   37 1
    68   37   64 1
    69   37   65 1
    70   37   66 1
    71   67   68 1
@<TRIPOS>MOLECULE
ZINC01614354
   43    44     0     0     0
SMALL
USER_CHARGES

@<TRIPOS>ATOM
      1 C1          4.1428   -3.7780   -3.3773 C.3       1 <0>        -0.1547
      2 C2          3.0380   -3.6341   -2.3287 C.3       1 <0>        -0.1247
      3 C3          3.5761   -4.0550   -0.9598 C.3       1 <0>        -0.1208
      4 C4          2.4713   -3.9110    0.0888 C.3       1 <0>        -0.1177
      5 C5          3.0094   -4.3320    1.4578 C.3       1 <0>        -0.1165
      6 C6          1.9046   -4.1880    2.5064 C.3       1 <0>        -0.1347
      7 C7          2.4214   -4.6744    3.8618 C.3       1 <0>         0.1082
      8 H1          3.3342   -4.1360    4.1171 H         1 <0>         0.1174
      9 C8          1.3608   -4.4172    4.9342 C.3       1 <0>         0.0986
     10 H2          0.4308   -4.9103    4.6511 H         1 <0>         0.0649
     11 C9          1.8454   -4.9733    6.2746 C.3       1 <0>        -0.1477
     12 O1          1.1367   -3.0110    5.0549 O.3       1 <0>        -0.5512
     13 N1          2.7050   -6.1098    3.7899 N.pl3     1 <0>        -0.4573
     14 C10         1.8112   -7.0946    3.4906 C.2       1 <0>         0.2467
     15 N2          2.4021   -8.2539    3.5151 N.2       1 <0>        -0.4590
     16 C11         3.7089   -8.0873    3.8308 C.ar      1 <0>        -0.1137
     17 C12         3.9202   -6.7091    4.0055 C.ar      1 <0>         0.3081
     18 N3          5.1371   -6.2769    4.3193 N.ar      1 <0>        -0.5588
     19 C13         6.1340   -7.1247    4.4625 C.ar      1 <0>         0.3653
     20 N4          5.9848   -8.4272    4.3052 N.ar      1 <0>        -0.5936
     21 C14         4.8028   -8.9528    3.9995 C.ar      1 <0>         0.5091
     22 N5          4.6566  -10.3191    3.8356 N.pl3     1 <0>        -0.8178
     23 H3          4.4706   -4.8168   -3.4195 H         1 <0>         0.0531
     24 H4          3.7595   -3.4781   -4.3526 H         1 <0>         0.0544
     25 H5          4.9856   -3.1418   -3.1069 H         1 <0>         0.0538
     26 H6          2.7103   -2.5954   -2.2865 H         1 <0>         0.0611
     27 H7          2.1953   -4.2703   -2.5992 H         1 <0>         0.0602
     28 H8          3.9039   -5.0937   -1.0019 H         1 <0>         0.0591
     29 H9          4.4189   -3.4188   -0.6893 H         1 <0>         0.0616
     30 H10         2.1436   -2.8723    0.1310 H         1 <0>         0.0637
     31 H11         1.6286   -4.5472   -0.1816 H         1 <0>         0.0614
     32 H12         3.3372   -5.3707    1.4156 H         1 <0>         0.0589
     33 H13         3.8522   -3.6958    1.7282 H         1 <0>         0.0665
     34 H14         1.6113   -3.1411    2.5837 H         1 <0>         0.0873
     35 H15         1.0426   -4.7859    2.2104 H         1 <0>         0.0744
     36 H16         2.7754   -4.4803    6.5577 H         1 <0>         0.0671
     37 H17         1.0898   -4.7901    7.0385 H         1 <0>         0.0701
     38 H18         2.0163   -6.0459    6.1824 H         1 <0>         0.0664
     39 H19         0.7398   -2.6072    4.2710 H         1 <0>         0.3801
     40 H20         0.7666   -6.9362    3.2665 H         1 <0>         0.2172
     41 H21         7.1105   -6.7405    4.7178 H         1 <0>         0.2041
     42 H22         3.7912  -10.6897    3.6015 H         1 <0>         0.4188
     43 H23         5.4194  -10.9063    3.9548 H         1 <0>         0.4107
@<TRIPOS>BOND
     1    1    2 1
     2    1   23 1
     3    1   24 1
     4    1   25 1
     5    2    3 1
     6    2   26 1
     7    2   27 1
     8    3    4 1
     9    3   28 1
    10    3   29 1
    11    4    5 1
    12    4   30 1
    13    4   31 1
    14    5    6 1
    15    5   32 1
    16    5   33 1
    17    6    7 1
    18    6   34 1
    19    6   35 1
    20    7    8 1
    21    7    9 1
    22    7   13 1
    23    9   10 1
    24    9   11 1
    25    9   12 1
    26   11   36 1
    27   11   37 1
    28   11   38 1
    29   12   39 1
    30   13   17 1
    31   13   14 1
    32   14   15 2
    33   14   40 1
    34   15   16 1
    35   16   21 ar
    36   16   17 ar
    37   17   18 ar
    38   18   19 ar
    39   19   20 ar
    40   19   41 1
    41   20   21 ar
    42   21   22 1
    43   22   42 1
    44   22   43 1
@<TRIPOS>MOLECULE
ZINC00643046
   76    79     0     0     0
SMALL
USER_CHARGES

@<TRIPOS>ATOM
      1 C1          0.4883    2.4897    1.2990 C.3       1 <0>        -0.1142
      2 C2          1.1580    2.1388    2.6297 C.3       1 <0>        -0.1362
      3 C3          1.3103    0.6181    2.7347 C.3       1 <0>         0.1570
      4 N1          2.0305    0.1319    1.5500 N.pl3     1 <0>        -0.6468
      5 C4          1.5224    0.4890    0.2185 C.3       1 <0>         0.1574
      6 C5          1.3678    2.0112    0.1416 C.3       1 <0>        -0.1364
      7 C6          3.1637   -0.6453    1.6854 C.ar      1 <0>         0.5085
      8 C7          3.0733   -2.0580    1.7467 C.ar      1 <0>         0.0614
      9 C8          4.2673   -2.7976    1.8855 C.ar      1 <0>         0.0615
     10 C9          4.1770   -4.2103    1.9469 C.ar      1 <0>         0.5084
     11 N2          2.9771   -4.7656    1.8709 N.ar      1 <0>        -0.5394
     12 C10         1.8782   -4.0279    1.7403 C.ar      1 <0>         0.5543
     13 N3          1.9084   -2.7098    1.6788 N.ar      1 <0>        -0.5235
     14 N4          0.6525   -4.6689    1.6658 N.pl3     1 <0>        -0.5657
     15 C11        -0.5766   -3.8848    1.5217 C.3       1 <0>         0.1412
     16 C12        -0.8807   -3.6815    0.0361 C.3       1 <0>         0.0611
     17 O1         -1.1650   -4.9445   -0.5691 O.3       1 <0>        -0.5712
     18 C13         0.5852   -6.1309    1.7310 C.3       1 <0>         0.1388
     19 C14         0.4380   -6.5701    3.1892 C.3       1 <0>         0.0609
     20 O2         -0.8147   -6.1108    3.7009 O.3       1 <0>        -0.5703
     21 N5          5.3102   -4.9876    2.0819 N.pl3     1 <0>        -0.6466
     22 C15         5.8166   -5.3477    3.4132 C.3       1 <0>         0.1569
     23 C16         5.9722   -6.8700    3.4864 C.3       1 <0>        -0.1363
     24 C17         6.8536   -7.3449    2.3290 C.3       1 <0>        -0.1141
     25 C18         6.1855   -6.9910    0.9983 C.3       1 <0>        -0.1368
     26 C19         6.0290   -5.4752    0.8969 C.3       1 <0>         0.1575
     27 N6          5.4322   -2.1458    1.9543 N.ar      1 <0>        -0.5233
     28 C20         5.4623   -0.8277    1.8928 C.ar      1 <0>         0.5543
     29 N7          4.3640   -0.0904    1.7559 N.ar      1 <0>        -0.5392
     30 N8          6.6881   -0.1867    1.9678 N.pl3     1 <0>        -0.5657
     31 C21         7.9171   -0.9709    2.1123 C.3       1 <0>         0.1413
     32 C22         8.4692   -1.3136    0.7271 C.3       1 <0>         0.0611
     33 O3          8.8633   -0.1124    0.0609 O.3       1 <0>        -0.5711
     34 C23         6.7554    1.2753    1.9026 C.3       1 <0>         0.1387
     35 C24         6.6545    1.8540    3.3153 C.3       1 <0>         0.0609
     36 O4          7.7974    1.4565    4.0756 O.3       1 <0>        -0.5703
     37 H1         -0.4844    2.0011    1.2421 H         1 <0>         0.0624
     38 H2          0.3565    3.5696    1.2325 H         1 <0>         0.0610
     39 H3          2.1412    2.6070    2.6767 H         1 <0>         0.0658
     40 H4          0.5425    2.5006    3.4533 H         1 <0>         0.0687
     41 H5          1.8745    0.3686    3.6333 H         1 <0>         0.0616
     42 H6          0.3248    0.1544    2.7790 H         1 <0>         0.0608
     43 H7          2.2266    0.1543   -0.5432 H         1 <0>         0.0616
     44 H8          0.5542    0.0148    0.0576 H         1 <0>         0.0598
     45 H9          0.9016    2.2821   -0.8057 H         1 <0>         0.0686
     46 H10         2.3490    2.4805    0.2121 H         1 <0>         0.0663
     47 H11        -1.4038   -4.4160    1.9926 H         1 <0>         0.0919
     48 H12        -0.4472   -2.9149    2.0021 H         1 <0>         0.0972
     49 H13        -1.7438   -3.0246   -0.0716 H         1 <0>         0.0528
     50 H14        -0.0175   -3.2303   -0.4531 H         1 <0>         0.0456
     51 H15        -1.3673   -4.8916   -1.5132 H         1 <0>         0.3764
     52 H16        -0.2732   -6.4810    1.1577 H         1 <0>         0.0932
     53 H17         1.4983   -6.5556    1.3140 H         1 <0>         0.0953
     54 H18         0.4771   -7.6579    3.2467 H         1 <0>         0.0527
     55 H19         1.2495   -6.1456    3.7802 H         1 <0>         0.0445
     56 H20        -0.9758   -6.3537    4.6229 H         1 <0>         0.3766
     57 H21         6.7842   -4.8733    3.5767 H         1 <0>         0.0609
     58 H22         5.1111   -5.0155    4.1748 H         1 <0>         0.0615
     59 H23         6.4372   -7.1430    4.4336 H         1 <0>         0.0688
     60 H24         4.9913   -7.3398    3.4133 H         1 <0>         0.0658
     61 H25         7.8259   -6.8558    2.3885 H         1 <0>         0.0624
     62 H26         6.9861   -8.4249    2.3929 H         1 <0>         0.0611
     63 H27         6.8025   -7.3503    0.1746 H         1 <0>         0.0691
     64 H28         5.2027   -7.4597    0.9486 H         1 <0>         0.0661
     65 H29         5.4635   -5.2271   -0.0013 H         1 <0>         0.0615
     66 H30         7.0143   -5.0114    0.8506 H         1 <0>         0.0595
     67 H31         8.6559   -0.3900    2.6644 H         1 <0>         0.0919
     68 H32         7.6994   -1.8910    2.6545 H         1 <0>         0.0972
     69 H33         9.3325   -1.9706    0.8325 H         1 <0>         0.0527
     70 H34         7.6986   -1.8169    0.1432 H         1 <0>         0.0456
     71 H35         9.2237   -0.2542   -0.8252 H         1 <0>         0.3764
     72 H36         7.7021    1.5757    1.4536 H         1 <0>         0.0932
     73 H37         5.9306    1.6503    1.2966 H         1 <0>         0.0954
     74 H38         6.6152    2.9419    3.2604 H         1 <0>         0.0528
     75 H39         5.7504    1.4816    3.7968 H         1 <0>         0.0444
     76 H40         7.8004    1.7883    4.9839 H         1 <0>         0.3766
@<TRIPOS>BOND
     1    1    6 1
     2    1    2 1
     3    1   37 1
     4    1   38 1
     5    2    3 1
     6    2   39 1
     7    2   40 1
     8    3    4 1
     9    3   41 1
    10    3   42 1
    11    4    5 1
    12    4    7 1
    13    5    6 1
    14    5   43 1
    15    5   44 1
    16    6   45 1
    17    6   46 1
    18    7   29 ar
    19    7    8 ar
    20    8   13 ar
    21    8    9 ar
    22    9   10 ar
    23    9   27 ar
    24   10   11 ar
    25   10   21 1
    26   11   12 ar
    27   12   13 ar
    28   12   14 1
    29   14   15 1
    30   14   18 1
    31   15   16 1
    32   15   47 1
    33   15   48 1
    34   16   17 1
    35   16   49 1
    36   16   50 1
    37   17   51 1
    38   18   19 1
    39   18   52 1
    40   18   53 1
    41   19   20 1
    42   19   54 1
    43   19   55 1
    44   20   56 1
    45   21   26 1
    46   21   22 1
    47   22   23 1
    48   22   57 1
    49   22   58 1
    50   23   24 1
    51   23   59 1
    52   23   60 1
    53   24   25 1
    54   24   61 1
    55   24   62 1
    56   25   26 1
    57   25   63 1
    58   25   64 1
    59   26   65 1
    60   26   66 1
    61   27   28 ar
    62   28   29 ar
    63   28   30 1
    64   30   31 1
    65   30   34 1
    66   31   32 1
    67   31   67 1
    68   31   68 1
    69   32   33 1
    70   32   69 1
    71   32   70 1
    72   33   71 1
    73   34   35 1
    74   34   72 1
    75   34   73 1
    76   35   36 1
    77   35   74 1
    78   35   75 1
    79   36   76 1
