@<TRIPOS>MOLECULE
ZINC09224016
   25    26     0     0     0
SMALL
USER_CHARGES

@<TRIPOS>ATOM
      1 C1         -0.0184    1.5028    0.0103 C.3       1 <0>        -0.1391
      2 C2          0.0021   -0.0041    0.0020 C.2       1 <0>         0.2276
      3 C3         -1.1906   -0.6918    0.0041 C.2       1 <0>        -0.1838
      4 C4         -1.1990   -2.0975   -0.0031 C.2       1 <0>         0.0727
      5 C5          0.0161   -2.7742   -0.0126 C.2       1 <0>        -0.1606
      6 C6          1.2525   -1.9900   -0.0149 C.2       1 <0>         0.5412
      7 N1          1.1865   -0.6449   -0.0127 N.am      1 <0>        -0.5906
      8 O1          2.3345   -2.5509   -0.0232 O.2       1 <0>        -0.5158
      9 C7          0.0570   -4.2056   -0.0197 C.1       1 <0>         0.2716
     10 N2          0.0895   -5.3411   -0.0253 N.1       1 <0>        -0.4064
     11 C8         -2.4728    0.0540    0.0144 C.ar      1 <0>         0.0158
     12 C9         -2.8306    0.8519    1.1050 C.ar      1 <0>        -0.1625
     13 C10        -4.0319    1.5289    1.0733 C.ar      1 <0>         0.1042
     14 N3         -4.8375    1.4306    0.0329 N.ar      1 <0>        -0.4835
     15 C11        -4.5375    0.6886   -1.0161 C.ar      1 <0>         0.1054
     16 C12        -3.3536   -0.0172   -1.0689 C.ar      1 <0>        -0.1591
     17 H1          1.0042    1.8801    0.0026 H         1 <0>         0.0841
     18 H2         -0.5455    1.8639   -0.8728 H         1 <0>         0.1024
     19 H3         -0.5286    1.8543    0.9071 H         1 <0>         0.1042
     20 H4         -2.1318   -2.6419   -0.0008 H         1 <0>         0.1516
     21 H5         -2.1762    0.9367    1.9600 H         1 <0>         0.1377
     22 H6         -4.3172    2.1475    1.9114 H         1 <0>         0.1588
     23 H7         -5.2263    0.6366   -1.8464 H         1 <0>         0.1591
     24 H8         -3.1125   -0.6192   -1.9325 H         1 <0>         0.1389
     25 H9          2.0073   -0.1280   -0.0178 H         1 <0>         0.4261
@<TRIPOS>BOND
     1    1    2 1
     2    1   17 1
     3    1   18 1
     4    1   19 1
     5    2    7 1
     6    2    3 2
     7    3    4 1
     8    3   11 1
     9    4    5 2
    10    4   20 1
    11    5    6 1
    12    5    9 1
    13    6    7 am
    14    6    8 2
    15    7   25 1
    16    9   10 3
    17   11   16 ar
    18   11   12 ar
    19   12   13 ar
    20   12   21 1
    21   13   14 ar
    22   13   22 1
    23   14   15 ar
    24   15   16 ar
    25   15   23 1
    26   16   24 1
@<TRIPOS>MOLECULE
ZINC13817033
   62    63     0     0     0
SMALL
USER_CHARGES
(E)-1-[2,4-dihydroxy-3-[(2R)-2-isopropenyl-5-methyl-hex-4-enyl]-6-methoxy-phenyl]-3-(2,4-dihydroxyphenyl)prop-2-en-1-one
@<TRIPOS>ATOM
      1 C1         -9.4739   -1.7996    0.5743 C.3       1 <0>        -0.1201
      2 C2         -9.6410   -0.3110    0.4095 C.2       1 <0>        -0.1385
      3 C3         -8.9451    0.5125    1.1536 C.2       1 <0>        -0.1564
      4 C4         -8.0858   -0.0233    2.2696 C.3       1 <0>        -0.0882
      5 C5         -6.6395    0.4309    2.0628 C.3       1 <0>        -0.0385
      6 H1         -6.3022    0.1290    1.0712 H         1 <0>         0.0774
      7 C6         -5.7457   -0.2142    3.1239 C.3       1 <0>        -0.0556
      8 C7         -4.3049    0.1251    2.8408 C.ar      1 <0>        -0.1622
      9 C8         -3.5744   -0.6466    1.9460 C.ar      1 <0>         0.1789
     10 C9         -2.2461   -0.3423    1.6782 C.ar      1 <0>        -0.2493
     11 C10        -1.6400    0.7334    2.3012 C.ar      1 <0>         0.1872
     12 C11        -2.3698    1.5154    3.2105 C.ar      1 <0>        -0.2173
     13 C12        -3.7138    1.2039    3.4720 C.ar      1 <0>         0.2049
     14 O1         -4.4290    1.9565    4.3456 O.3       1 <0>        -0.4771
     15 C13        -1.7310    2.6588    3.8823 C.2       1 <0>         0.4559
     16 O2         -1.0937    2.4855    4.9065 O.2       1 <0>        -0.4538
     17 C14        -1.8571    3.9623    3.3376 C.2       1 <0>        -0.2294
     18 C15        -1.3571    5.0263    4.0067 C.2       1 <0>         0.0030
     19 C16        -1.4876    6.3743    3.4434 C.ar      1 <0>        -0.1194
     20 C17        -2.1241    6.5631    2.2100 C.ar      1 <0>        -0.0618
     21 C18        -2.2483    7.8192    1.6897 C.ar      1 <0>        -0.1568
     22 C19        -1.7364    8.9184    2.3733 C.ar      1 <0>         0.1410
     23 C20        -1.0981    8.7493    3.5937 C.ar      1 <0>        -0.1779
     24 C21        -0.9692    7.4826    4.1360 C.ar      1 <0>         0.1533
     25 O3         -0.3456    7.3111    5.3288 O.3       1 <0>        -0.4899
     26 O4         -1.8618   10.1617    1.8433 O.3       1 <0>        -0.4953
     27 O5         -0.3421    1.0288    2.0386 O.3       1 <0>        -0.3085
     28 C22         0.3395    0.1860    1.1074 C.3       1 <0>         0.0252
     29 O6         -4.1619   -1.7039    1.3305 O.3       1 <0>        -0.4882
     30 C23        -6.5617    1.9309    2.1848 C.2       1 <0>        -0.0942
     31 C24        -6.0185    2.6388    1.2256 C.2       1 <0>        -0.2045
     32 C25        -7.1088    2.6166    3.4102 C.3       1 <0>        -0.1132
     33 C26       -10.6085    0.2303   -0.6112 C.3       1 <0>        -0.1170
     34 H2        -10.1201   -2.1509    1.3787 H         1 <0>         0.0637
     35 H3         -9.7453   -2.3007   -0.3549 H         1 <0>         0.0595
     36 H4         -8.4355   -2.0239    0.8182 H         1 <0>         0.0676
     37 H5         -8.9872    1.5755    0.9673 H         1 <0>         0.1073
     38 H6         -8.1281   -1.1125    2.2698 H         1 <0>         0.0736
     39 H7         -8.4524    0.3547    3.2240 H         1 <0>         0.0736
     40 H8         -5.8757   -1.2961    3.0995 H         1 <0>         0.0732
     41 H9         -6.0210    0.1628    4.1088 H         1 <0>         0.0758
     42 H10        -1.6850   -0.9472    0.9813 H         1 <0>         0.1416
     43 H11        -4.3819    1.6479    5.2608 H         1 <0>         0.3947
     44 H12        -2.3524    4.1053    2.3885 H         1 <0>         0.1313
     45 H13        -0.8619    4.8832    4.9558 H         1 <0>         0.1395
     46 H14        -2.5202    5.7146    1.6718 H         1 <0>         0.1385
     47 H15        -2.7428    7.9604    0.7400 H         1 <0>         0.1367
     48 H16        -0.7021    9.6054    4.1198 H         1 <0>         0.1410
     49 H17         0.6070    7.1615    5.2567 H         1 <0>         0.3977
     50 H18        -1.1262   10.4218    1.2721 H         1 <0>         0.3967
     51 H19         0.3417   -0.8387    1.4788 H         1 <0>         0.0597
     52 H20         1.3664    0.5316    0.9886 H         1 <0>         0.1053
     53 H21        -0.1698    0.2223    0.1443 H         1 <0>         0.0605
     54 H22        -4.0127   -2.5500    1.7742 H         1 <0>         0.3952
     55 H23        -5.9628    3.7138    1.3131 H         1 <0>         0.0920
     56 H24        -5.6264    2.1474    0.3475 H         1 <0>         0.0889
     57 H25        -7.4432    1.8669    4.1272 H         1 <0>         0.0569
     58 H26        -6.3289    3.2294    3.8623 H         1 <0>         0.0739
     59 H27        -7.9499    3.2495    3.1273 H         1 <0>         0.0564
     60 H28       -10.5924    1.3199   -0.5852 H         1 <0>         0.0591
     61 H29       -10.3193   -0.1137   -1.6042 H         1 <0>         0.0622
     62 H30       -11.6138   -0.1238   -0.3825 H         1 <0>         0.0645
@<TRIPOS>BOND
     1    1    2 1
     2    1   34 1
     3    1   35 1
     4    1   36 1
     5    2    3 2
     6    2   33 1
     7    3    4 1
     8    3   37 1
     9    4    5 1
    10    4   38 1
    11    4   39 1
    12    5    6 1
    13    5    7 1
    14    5   30 1
    15    7    8 1
    16    7   40 1
    17    7   41 1
    18    8   13 ar
    19    8    9 ar
    20    9   10 ar
    21    9   29 1
    22   10   11 ar
    23   10   42 1
    24   11   12 ar
    25   11   27 1
    26   12   13 ar
    27   12   15 1
    28   13   14 1
    29   14   43 1
    30   15   16 2
    31   15   17 1
    32   17   18 2
    33   17   44 1
    34   18   19 1
    35   18   45 1
    36   19   24 ar
    37   19   20 ar
    38   20   21 ar
    39   20   46 1
    40   21   22 ar
    41   21   47 1
    42   22   23 ar
    43   22   26 1
    44   23   24 ar
    45   23   48 1
    46   24   25 1
    47   25   49 1
    48   26   50 1
    49   27   28 1
    50   28   51 1
    51   28   52 1
    52   28   53 1
    53   29   54 1
    54   30   31 2
    55   30   32 1
    56   31   55 1
    57   31   56 1
    58   32   57 1
    59   32   58 1
    60   32   59 1
    61   33   60 1
    62   33   61 1
    63   33   62 1
