@<TRIPOS>MOLECULE
ZINC03453546
   38    41     0     0     0
SMALL
USER_CHARGES

@<TRIPOS>ATOM
      1 C1         -0.0167    1.3781    0.0096 C.ar      1 <0>        -0.1086
      2 C2          1.1709    2.0855    0.0021 C.ar      1 <0>        -0.1216
      3 C3          2.3773    1.4107   -0.0130 C.ar      1 <0>        -0.0987
      4 C4          2.3960    0.0285   -0.0201 C.ar      1 <0>        -0.1162
      5 C5          1.2084   -0.6789   -0.0117 C.ar      1 <0>        -0.0987
      6 C6          0.0021   -0.0041    0.0020 C.ar      1 <0>        -0.1216
      7 C7          3.7112   -0.7071   -0.0376 C.3       1 <0>         0.1688
      8 N1          4.1518   -0.9524    1.3379 N.pl3     1 <0>        -0.6910
      9 C8          5.3374   -1.6154    1.5741 C.ar      1 <0>         0.4824
     10 C9          5.7777   -1.8673    2.8986 C.ar      1 <0>        -0.1996
     11 C10         5.0395   -1.4605    4.0145 C.ar      1 <0>        -0.0682
     12 C11         5.5098   -1.7293    5.2668 C.ar      1 <0>        -0.1338
     13 C12         6.7142   -2.4029    5.4489 C.ar      1 <0>        -0.0722
     14 C13         7.4579   -2.8126    4.3823 C.ar      1 <0>        -0.1093
     15 C14         7.0038   -2.5532    3.0812 C.ar      1 <0>         0.1950
     16 N2          7.6973   -2.9358    2.0005 N.ar      1 <0>        -0.5380
     17 C15         7.2417   -2.6758    0.7861 C.ar      1 <0>         0.4543
     18 N3          6.0901   -2.0373    0.5705 N.ar      1 <0>        -0.5878
     19 C16         8.0362   -3.1140   -0.3765 C.2       1 <0>        -0.1181
     20 C17         9.2306   -3.7871   -0.4026 C.2       1 <0>        -0.0981
     21 C18         9.7908   -4.0927   -1.6208 C.2       1 <0>        -0.1675
     22 C19         9.1466   -3.7201   -2.7586 C.2       1 <0>        -0.1693
     23 S1          7.6895   -2.9131   -2.1164 S.3       1 <0>         0.1122
     24 H1         -0.9591    1.9053    0.0259 H         1 <0>         0.1248
     25 H2          1.1563    3.1654    0.0076 H         1 <0>         0.1255
     26 H3          3.3051    1.9634   -0.0196 H         1 <0>         0.1243
     27 H4          1.2231   -1.7588   -0.0176 H         1 <0>         0.1243
     28 H5         -0.9258   -0.5567    0.0082 H         1 <0>         0.1255
     29 H6          3.5884   -1.6586   -0.5549 H         1 <0>         0.0815
     30 H7          4.4573   -0.1052   -0.5563 H         1 <0>         0.0815
     31 H8          3.6095   -0.6484    2.0824 H         1 <0>         0.4134
     32 H9          4.1038   -0.9368    3.8859 H         1 <0>         0.1249
     33 H10         4.9399   -1.4149    6.1286 H         1 <0>         0.1308
     34 H11         7.0650   -2.6038    6.4504 H         1 <0>         0.1343
     35 H12         8.3909   -3.3336    4.5385 H         1 <0>         0.1407
     36 H13         9.7222   -4.0715    0.5160 H         1 <0>         0.1447
     37 H14        10.7309   -4.6218   -1.6730 H         1 <0>         0.1392
     38 H15         9.4392   -3.8758   -3.7865 H         1 <0>         0.1901
@<TRIPOS>BOND
     1    1    6 ar
     2    1    2 ar
     3    1   24 1
     4    2    3 ar
     5    2   25 1
     6    3    4 ar
     7    3   26 1
     8    4    5 ar
     9    4    7 1
    10    5    6 ar
    11    5   27 1
    12    6   28 1
    13    7    8 1
    14    7   29 1
    15    7   30 1
    16    8    9 1
    17    8   31 1
    18    9   18 ar
    19    9   10 ar
    20   10   15 ar
    21   10   11 ar
    22   11   12 ar
    23   11   32 1
    24   12   13 ar
    25   12   33 1
    26   13   14 ar
    27   13   34 1
    28   14   15 ar
    29   14   35 1
    30   15   16 ar
    31   16   17 ar
    32   17   18 ar
    33   17   19 1
    34   19   23 1
    35   19   20 2
    36   20   21 1
    37   20   36 1
    38   21   22 2
    39   21   37 1
    40   22   23 1
    41   22   38 1
@<TRIPOS>MOLECULE
ZINC00509842
   40    43     0     0     0
SMALL
USER_CHARGES
N-benzyl-2-(4-pyridyl)quinazolin-4-amine
@<TRIPOS>ATOM
      1 C1         -2.1273    8.3398    0.0767 C.ar      1 <0>        -0.1081
      2 C2         -2.2311    7.6605   -1.1227 C.ar      1 <0>        -0.1215
      3 C3         -2.4041    6.2890   -1.1275 C.ar      1 <0>        -0.0986
      4 C4         -2.4737    5.5969    0.0671 C.ar      1 <0>        -0.1174
      5 C5         -2.3756    6.2770    1.2666 C.ar      1 <0>        -0.0986
      6 C6         -2.1969    7.6477    1.2713 C.ar      1 <0>        -0.1215
      7 C7         -2.6628    4.1018    0.0619 C.3       1 <0>         0.1690
      8 N1         -1.3539    3.4442    0.0397 N.pl3     1 <0>        -0.6908
      9 C8         -1.2741    2.0677    0.0312 C.ar      1 <0>         0.4801
     10 C9         -0.0171    1.4126    0.0098 C.ar      1 <0>        -0.1965
     11 C10         1.1886    2.1215    0.0021 C.ar      1 <0>        -0.0699
     12 C11         2.3698    1.4391   -0.0133 C.ar      1 <0>        -0.1313
     13 C12         2.3914    0.0472   -0.0206 C.ar      1 <0>        -0.0726
     14 C13         1.2343   -0.6734   -0.0134 C.ar      1 <0>        -0.1084
     15 C14         0.0021   -0.0041    0.0020 C.ar      1 <0>         0.1914
     16 N2         -1.1630   -0.6654    0.0101 N.ar      1 <0>        -0.5382
     17 C15        -2.3055   -0.0060    0.0250 C.ar      1 <0>         0.4079
     18 N3         -2.3698    1.3238    0.0332 N.ar      1 <0>        -0.5851
     19 C16        -3.5722   -0.7789    0.0334 C.ar      1 <0>         0.0006
     20 C17        -4.8093   -0.1293    0.0551 C.ar      1 <0>        -0.1249
     21 C18        -5.9635   -0.8868    0.0566 C.ar      1 <0>         0.0902
     22 N4         -5.9084   -2.2044    0.0490 N.ar      1 <0>        -0.4746
     23 C19        -4.7620   -2.8561    0.0341 C.ar      1 <0>         0.0913
     24 C20        -3.5605   -2.1763    0.0258 C.ar      1 <0>        -0.1242
     25 H1         -1.9914    9.4112    0.0805 H         1 <0>         0.1250
     26 H2         -2.1767    8.2012   -2.0560 H         1 <0>         0.1257
     27 H3         -2.4852    5.7582   -2.0646 H         1 <0>         0.1243
     28 H4         -2.4344    5.7368    2.2000 H         1 <0>         0.1243
     29 H5         -2.1154    8.1784    2.2084 H         1 <0>         0.1257
     30 H6         -3.2308    3.8105   -0.8217 H         1 <0>         0.0815
     31 H7         -3.2054    3.8011    0.9581 H         1 <0>         0.0813
     32 H8         -0.5435    3.9771    0.0309 H         1 <0>         0.4135
     33 H9          1.1846    3.2014    0.0076 H         1 <0>         0.1254
     34 H10         3.3009    1.9862   -0.0200 H         1 <0>         0.1315
     35 H11         3.3396   -0.4698   -0.0324 H         1 <0>         0.1349
     36 H12         1.2663   -1.7529   -0.0198 H         1 <0>         0.1413
     37 H13        -4.8618    0.9494    0.0664 H         1 <0>         0.1467
     38 H14        -6.9243   -0.3938    0.0691 H         1 <0>         0.1605
     39 H15        -4.7632   -3.9361    0.0287 H         1 <0>         0.1613
     40 H16        -2.6254   -2.7165    0.0133 H         1 <0>         0.1487
@<TRIPOS>BOND
     1    1    6 ar
     2    1    2 ar
     3    1   25 1
     4    2    3 ar
     5    2   26 1
     6    3    4 ar
     7    3   27 1
     8    4    5 ar
     9    4    7 1
    10    5    6 ar
    11    5   28 1
    12    6   29 1
    13    7    8 1
    14    7   30 1
    15    7   31 1
    16    8    9 1
    17    8   32 1
    18    9   18 ar
    19    9   10 ar
    20   10   15 ar
    21   10   11 ar
    22   11   12 ar
    23   11   33 1
    24   12   13 ar
    25   12   34 1
    26   13   14 ar
    27   13   35 1
    28   14   15 ar
    29   14   36 1
    30   15   16 ar
    31   16   17 ar
    32   17   18 ar
    33   17   19 1
    34   19   24 ar
    35   19   20 ar
    36   20   21 ar
    37   20   37 1
    38   21   22 ar
    39   21   38 1
    40   22   23 ar
    41   23   24 ar
    42   23   39 1
    43   24   40 1
@<TRIPOS>MOLECULE
ZINC00005903
   40    43     0     0     0
SMALL
USER_CHARGES

@<TRIPOS>ATOM
      1 C1         -0.0167    1.3781    0.0096 C.ar      1 <0>        -0.1084
      2 C2          1.1709    2.0855    0.0021 C.ar      1 <0>        -0.1216
      3 C3          2.3773    1.4107   -0.0130 C.ar      1 <0>        -0.0986
      4 C4          2.3960    0.0285   -0.0201 C.ar      1 <0>        -0.1168
      5 C5          1.2084   -0.6789   -0.0117 C.ar      1 <0>        -0.0986
      6 C6          0.0021   -0.0041    0.0020 C.ar      1 <0>        -0.1216
      7 C7          3.7112   -0.7071   -0.0376 C.3       1 <0>         0.1683
      8 N1          4.1518   -0.9524    1.3379 N.pl3     1 <0>        -0.6909
      9 C8          5.3374   -1.6154    1.5741 C.ar      1 <0>         0.4818
     10 C9          5.7780   -1.8674    2.8978 C.ar      1 <0>        -0.1995
     11 C10         5.0405   -1.4615    4.0149 C.ar      1 <0>        -0.0684
     12 C11         5.5122   -1.7310    5.2662 C.ar      1 <0>        -0.1340
     13 C12         6.7174   -2.4039    5.4465 C.ar      1 <0>        -0.0721
     14 C13         7.4602   -2.8125    4.3791 C.ar      1 <0>        -0.1106
     15 C14         7.0046   -2.5529    3.0786 C.ar      1 <0>         0.1939
     16 N2          7.6967   -2.9343    1.9965 N.ar      1 <0>        -0.5455
     17 C15         7.2407   -2.6742    0.7856 C.ar      1 <0>         0.4179
     18 N3          6.0909   -2.0377    0.5703 N.ar      1 <0>        -0.5890
     19 C16         8.0392   -3.1140   -0.3839 C.ar      1 <0>        -0.0989
     20 C17         9.2470   -3.7952   -0.2040 C.ar      1 <0>        -0.0261
     21 C18         9.9548   -4.1843   -1.3279 C.ar      1 <0>        -0.1829
     22 C19         9.4494   -3.8896   -2.5814 C.ar      1 <0>         0.1150
     23 N4          8.3070   -3.2451   -2.7198 N.ar      1 <0>        -0.4910
     24 C20         7.5953   -2.8603   -1.6802 C.ar      1 <0>         0.1495
     25 H1         -0.9591    1.9053    0.0259 H         1 <0>         0.1248
     26 H2          1.1563    3.1654    0.0076 H         1 <0>         0.1255
     27 H3          3.3051    1.9634   -0.0196 H         1 <0>         0.1244
     28 H4          1.2231   -1.7588   -0.0176 H         1 <0>         0.1244
     29 H5         -0.9258   -0.5567    0.0082 H         1 <0>         0.1255
     30 H6          3.5884   -1.6586   -0.5549 H         1 <0>         0.0820
     31 H7          4.4573   -0.1052   -0.5563 H         1 <0>         0.0820
     32 H8          3.6095   -0.6484    2.0824 H         1 <0>         0.4133
     33 H9          4.1044   -0.9381    3.8876 H         1 <0>         0.1249
     34 H10         4.9430   -1.4177    6.1289 H         1 <0>         0.1308
     35 H11         7.0695   -2.6050    6.4475 H         1 <0>         0.1341
     36 H12         8.3937   -3.3330    4.5340 H         1 <0>         0.1402
     37 H13         9.6183   -4.0119    0.7867 H         1 <0>         0.1481
     38 H14        10.8917   -4.7119   -1.2274 H         1 <0>         0.1412
     39 H15         9.9991   -4.1917   -3.4606 H         1 <0>         0.1595
     40 H16         6.6620   -2.3390   -1.8339 H         1 <0>         0.1677
@<TRIPOS>BOND
     1    1    6 ar
     2    1    2 ar
     3    1   25 1
     4    2    3 ar
     5    2   26 1
     6    3    4 ar
     7    3   27 1
     8    4    5 ar
     9    4    7 1
    10    5    6 ar
    11    5   28 1
    12    6   29 1
    13    7    8 1
    14    7   30 1
    15    7   31 1
    16    8    9 1
    17    8   32 1
    18    9   18 ar
    19    9   10 ar
    20   10   15 ar
    21   10   11 ar
    22   11   12 ar
    23   11   33 1
    24   12   13 ar
    25   12   34 1
    26   13   14 ar
    27   13   35 1
    28   14   15 ar
    29   14   36 1
    30   15   16 ar
    31   16   17 ar
    32   17   18 ar
    33   17   19 1
    34   19   24 ar
    35   19   20 ar
    36   20   21 ar
    37   20   37 1
    38   21   22 ar
    39   21   38 1
    40   22   23 ar
    41   22   39 1
    42   23   24 ar
    43   24   40 1
@<TRIPOS>MOLECULE
ZINC13860721
   39    41     0     0     0
SMALL
USER_CHARGES
N-benzyl-2-phenoxy-pyridine-3-carboxamide
@<TRIPOS>ATOM
      1 C1          0.0790   14.3031   -0.6191 C.ar      1 <0>        -0.1106
      2 C2          0.1942   13.7188    0.6284 C.ar      1 <0>        -0.1214
      3 C3          0.5152   12.3786    0.7369 C.ar      1 <0>        -0.1005
      4 C4          0.7213   11.6228   -0.4021 C.ar      1 <0>        -0.1124
      5 C5          0.6116   12.2084   -1.6494 C.ar      1 <0>        -0.1004
      6 C6          0.2851   13.5473   -1.7581 C.ar      1 <0>        -0.1214
      7 C7          1.0716   10.1619   -0.2837 C.3       1 <0>         0.1633
      8 N1         -0.1573    9.3643   -0.2733 N.am      1 <0>        -0.7251
      9 C8         -0.0886    8.0220   -0.1742 C.2       1 <0>         0.5636
     10 O1          0.9932    7.4729   -0.0935 O.2       1 <0>        -0.5106
     11 C9         -1.3260    7.2189   -0.1636 C.ar      1 <0>        -0.2073
     12 C10        -2.5782    7.8381   -0.2554 C.ar      1 <0>        -0.0095
     13 C11        -3.7082    7.0402   -0.2407 C.ar      1 <0>        -0.2141
     14 C12        -3.5707    5.6674   -0.1368 C.ar      1 <0>         0.1697
     15 N2         -2.3808    5.1044   -0.0569 N.ar      1 <0>        -0.5303
     16 C13        -1.2692    5.8208   -0.0610 C.ar      1 <0>         0.3702
     17 O2         -0.0685    5.2008    0.0288 O.3       1 <0>        -0.2135
     18 C14        -0.0486    3.8422    0.0033 C.ar      1 <0>         0.0898
     19 C15         0.2643    3.1301    1.1523 C.ar      1 <0>        -0.1143
     20 C16         0.2844    1.7492    1.1235 C.ar      1 <0>        -0.1061
     21 C17        -0.0070    1.0766   -0.0489 C.ar      1 <0>        -0.1175
     22 C18        -0.3139    1.7840   -1.1966 C.ar      1 <0>        -0.1059
     23 C19        -0.3405    3.1649   -1.1719 C.ar      1 <0>        -0.1165
     24 H1         -0.1724   15.3500   -0.7039 H         1 <0>         0.1242
     25 H2          0.0332   14.3092    1.5182 H         1 <0>         0.1251
     26 H3          0.6052   11.9221    1.7115 H         1 <0>         0.1245
     27 H4          0.7770   11.6190   -2.5391 H         1 <0>         0.1245
     28 H5          0.1948   14.0037   -2.7327 H         1 <0>         0.1251
     29 H6          1.6216    9.9939    0.6422 H         1 <0>         0.0791
     30 H7          1.6892    9.8665   -1.1319 H         1 <0>         0.0791
     31 H8         -1.0203    9.8024   -0.3376 H         1 <0>         0.3989
     32 H9         -2.6599    8.9120   -0.3360 H         1 <0>         0.1454
     33 H10        -4.6898    7.4853   -0.3100 H         1 <0>         0.1476
     34 H11        -4.4535    5.0453   -0.1254 H         1 <0>         0.1681
     35 H12         0.4923    3.6550    2.0682 H         1 <0>         0.1293
     36 H13         0.5282    1.1944    2.0175 H         1 <0>         0.1307
     37 H14         0.0096   -0.0031   -0.0693 H         1 <0>         0.1276
     38 H15        -0.5371    1.2563   -2.1121 H         1 <0>         0.1286
     39 H16        -0.5843    3.7169   -2.0676 H         1 <0>         0.1228
@<TRIPOS>BOND
     1    1    6 ar
     2    1    2 ar
     3    1   24 1
     4    2    3 ar
     5    2   25 1
     6    3    4 ar
     7    3   26 1
     8    4    5 ar
     9    4    7 1
    10    5    6 ar
    11    5   27 1
    12    6   28 1
    13    7    8 1
    14    7   29 1
    15    7   30 1
    16    8    9 am
    17    8   31 1
    18    9   10 2
    19    9   11 1
    20   11   16 ar
    21   11   12 ar
    22   12   13 ar
    23   12   32 1
    24   13   14 ar
    25   13   33 1
    26   14   15 ar
    27   14   34 1
    28   15   16 ar
    29   16   17 1
    30   17   18 1
    31   18   23 ar
    32   18   19 ar
    33   19   20 ar
    34   19   35 1
    35   20   21 ar
    36   20   36 1
    37   21   22 ar
    38   21   37 1
    39   22   23 ar
    40   22   38 1
    41   23   39 1
@<TRIPOS>MOLECULE
ZINC02011307
   42    43     0     0     0
SMALL
USER_CHARGES

@<TRIPOS>ATOM
      1 C1         -0.0187    1.5258    0.0104 C.3       1 <0>        -0.1523
      2 C2          0.0021   -0.0041    0.0020 C.3       1 <0>        -0.1222
      3 C3          0.7421   -0.5109    1.2415 C.3       1 <0>        -0.1187
      4 C4          0.7628   -2.0407    1.2331 C.3       1 <0>         0.0576
      5 O1          1.4540   -2.5141    2.3908 O.3       1 <0>        -0.3034
      6 C5          1.5628   -3.8618    2.5369 C.ar      1 <0>         0.1077
      7 C6          1.0214   -4.7095    1.5838 C.ar      1 <0>        -0.1714
      8 C7          1.1333   -6.0792    1.7336 C.ar      1 <0>        -0.0845
      9 C8          1.7844   -6.6065    2.8332 C.ar      1 <0>        -0.1117
     10 C9          2.3264   -5.7664    3.7880 C.ar      1 <0>        -0.1694
     11 C10         2.2232   -4.3925    3.6408 C.ar      1 <0>         0.0981
     12 O2          2.7611   -3.5646    4.5760 O.3       1 <0>        -0.3062
     13 C11         3.4243   -4.1796    5.6824 C.3       1 <0>         0.0259
     14 C12         0.5438   -6.9996    0.6960 C.3       1 <0>        -0.0867
     15 C13         1.5898   -7.2888   -0.3825 C.3       1 <0>         0.1255
     16 H1          2.5060   -7.6712    0.0674 H         1 <0>         0.0953
     17 C14         1.0375   -8.2880   -1.4175 C.3       1 <0>         0.0940
     18 N1          1.0600   -7.5354   -2.6807 N.am      1 <0>        -0.7411
     19 C15         1.5385   -6.3054   -2.4516 C.2       1 <0>         0.6991
     20 O3          1.6654   -5.4699   -3.3258 O.2       1 <0>        -0.5877
     21 N2          1.8676   -6.0783   -1.1699 N.am      1 <0>        -0.7347
     22 H2          1.0039    1.9031    0.0027 H         1 <0>         0.0563
     23 H3         -0.5459    1.8868   -0.8726 H         1 <0>         0.0577
     24 H4         -0.5289    1.8773    0.9072 H         1 <0>         0.0558
     25 H5         -1.0205   -0.3814    0.0098 H         1 <0>         0.0644
     26 H6          0.5123   -0.3556   -0.8948 H         1 <0>         0.0658
     27 H7          1.7647   -0.1336    1.2338 H         1 <0>         0.0747
     28 H8          0.2319   -0.1594    2.1383 H         1 <0>         0.0741
     29 H9         -0.2598   -2.4180    1.2409 H         1 <0>         0.0610
     30 H10         1.2730   -2.3923    0.3363 H         1 <0>         0.0617
     31 H11         0.5116   -4.3001    0.7242 H         1 <0>         0.1340
     32 H12         1.8695   -7.6772    2.9469 H         1 <0>         0.1288
     33 H13         2.8343   -6.1809    4.6463 H         1 <0>         0.1361
     34 H14         2.7199   -4.8126    6.2220 H         1 <0>         0.0552
     35 H15         4.2527   -4.7868    5.3175 H         1 <0>         0.0552
     36 H16         3.8061   -3.4084    6.3515 H         1 <0>         0.1013
     37 H17         0.2416   -7.9340    1.1689 H         1 <0>         0.0927
     38 H18        -0.3255   -6.5248    0.2410 H         1 <0>         0.0808
     39 H19         1.6809   -9.1654   -1.4834 H         1 <0>         0.0859
     40 H20         0.0181   -8.5781   -1.1631 H         1 <0>         0.0863
     41 H21         0.7738   -7.8755   -3.5428 H         1 <0>         0.4308
     42 H22         2.2294   -5.2499   -0.8183 H         1 <0>         0.4284
@<TRIPOS>BOND
     1    1    2 1
     2    1   22 1
     3    1   23 1
     4    1   24 1
     5    2    3 1
     6    2   25 1
     7    2   26 1
     8    3    4 1
     9    3   27 1
    10    3   28 1
    11    4    5 1
    12    4   29 1
    13    4   30 1
    14    5    6 1
    15    6   11 ar
    16    6    7 ar
    17    7    8 ar
    18    7   31 1
    19    8    9 ar
    20    8   14 1
    21    9   10 ar
    22    9   32 1
    23   10   11 ar
    24   10   33 1
    25   11   12 1
    26   12   13 1
    27   13   34 1
    28   13   35 1
    29   13   36 1
    30   14   15 1
    31   14   37 1
    32   14   38 1
    33   15   16 1
    34   15   21 1
    35   15   17 1
    36   17   18 1
    37   17   39 1
    38   17   40 1
    39   18   19 am
    40   18   41 1
    41   19   20 2
    42   19   21 am
    43   21   42 1
@<TRIPOS>MOLECULE
ZINC02011308
   42    43     0     0     0
SMALL
USER_CHARGES

@<TRIPOS>ATOM
      1 C1         -0.0187    1.5258    0.0104 C.3       1 <0>        -0.1533
      2 C2          0.0021   -0.0041    0.0020 C.3       1 <0>        -0.1209
      3 C3          0.7421   -0.5109    1.2415 C.3       1 <0>        -0.1201
      4 C4          0.7628   -2.0407    1.2331 C.3       1 <0>         0.0581
      5 O1          1.4540   -2.5141    2.3908 O.3       1 <0>        -0.3039
      6 C5          1.5628   -3.8618    2.5369 C.ar      1 <0>         0.1068
      7 C6          1.0214   -4.7095    1.5838 C.ar      1 <0>        -0.1689
      8 C7          1.1333   -6.0792    1.7336 C.ar      1 <0>        -0.0844
      9 C8          1.7844   -6.6065    2.8332 C.ar      1 <0>        -0.1134
     10 C9          2.3264   -5.7664    3.7880 C.ar      1 <0>        -0.1688
     11 C10         2.2232   -4.3925    3.6408 C.ar      1 <0>         0.0987
     12 O2          2.7611   -3.5646    4.5760 O.3       1 <0>        -0.3063
     13 C11         3.4243   -4.1796    5.6824 C.3       1 <0>         0.0255
     14 C12         0.5438   -6.9996    0.6960 C.3       1 <0>        -0.0867
     15 C13         1.5898   -7.2888   -0.3825 C.3       1 <0>         0.1257
     16 H1          1.9777   -6.3583   -0.7971 H         1 <0>         0.0938
     17 C14         0.9894   -8.1684   -1.4963 C.3       1 <0>         0.0940
     18 N1          1.8065   -9.3904   -1.4592 N.am      1 <0>        -0.7412
     19 C15         2.7323   -9.2718   -0.4984 C.2       1 <0>         0.6992
     20 O3          3.5452  -10.1412   -0.2500 O.2       1 <0>        -0.5877
     21 N2          2.6834   -8.1055    0.1649 N.am      1 <0>        -0.7339
     22 H2          1.0039    1.9031    0.0027 H         1 <0>         0.0562
     23 H3         -0.5459    1.8868   -0.8726 H         1 <0>         0.0576
     24 H4         -0.5289    1.8773    0.9072 H         1 <0>         0.0562
     25 H5         -1.0205   -0.3814    0.0098 H         1 <0>         0.0647
     26 H6          0.5123   -0.3556   -0.8948 H         1 <0>         0.0646
     27 H7          1.7647   -0.1336    1.2338 H         1 <0>         0.0744
     28 H8          0.2319   -0.1594    2.1383 H         1 <0>         0.0744
     29 H9         -0.2598   -2.4180    1.2409 H         1 <0>         0.0615
     30 H10         1.2730   -2.3923    0.3363 H         1 <0>         0.0612
     31 H11         0.5116   -4.3001    0.7242 H         1 <0>         0.1356
     32 H12         1.8695   -7.6772    2.9469 H         1 <0>         0.1270
     33 H13         2.8343   -6.1809    4.6463 H         1 <0>         0.1363
     34 H14         2.7199   -4.8126    6.2220 H         1 <0>         0.0553
     35 H15         4.2527   -4.7868    5.3175 H         1 <0>         0.0556
     36 H16         3.8061   -3.4084    6.3515 H         1 <0>         0.1016
     37 H17         0.2416   -7.9340    1.1689 H         1 <0>         0.0833
     38 H18        -0.3255   -6.5248    0.2410 H         1 <0>         0.0902
     39 H19        -0.0539   -8.3992   -1.2810 H         1 <0>         0.0862
     40 H20         1.0814   -7.6759   -2.4643 H         1 <0>         0.0854
     41 H21         1.6932  -10.1602   -2.0384 H         1 <0>         0.4308
     42 H22         3.2729   -7.8428    0.8890 H         1 <0>         0.4296
@<TRIPOS>BOND
     1    1    2 1
     2    1   22 1
     3    1   23 1
     4    1   24 1
     5    2    3 1
     6    2   25 1
     7    2   26 1
     8    3    4 1
     9    3   27 1
    10    3   28 1
    11    4    5 1
    12    4   29 1
    13    4   30 1
    14    5    6 1
    15    6   11 ar
    16    6    7 ar
    17    7    8 ar
    18    7   31 1
    19    8    9 ar
    20    8   14 1
    21    9   10 ar
    22    9   32 1
    23   10   11 ar
    24   10   33 1
    25   11   12 1
    26   12   13 1
    27   13   34 1
    28   13   35 1
    29   13   36 1
    30   14   15 1
    31   14   37 1
    32   14   38 1
    33   15   16 1
    34   15   21 1
    35   15   17 1
    36   17   18 1
    37   17   39 1
    38   17   40 1
    39   18   19 am
    40   18   41 1
    41   19   20 2
    42   19   21 am
    43   21   42 1
@<TRIPOS>MOLECULE
ZINC19796168
   63    66     0     0     0
SMALL
USER_CHARGES

@<TRIPOS>ATOM
      1 C1         -0.0187    1.5258    0.0104 C.3       1 <0>        -0.1516
      2 C2          0.0021   -0.0041    0.0020 C.3       1 <0>        -0.1160
      3 C3          0.7182   -0.4975   -1.2568 C.3       1 <0>        -0.0368
      4 C4          0.7386   -2.0043   -1.2651 C.2       1 <0>         0.1083
      5 C5          1.7436   -2.8145   -0.7017 C.2       1 <0>         0.0436
      6 C6          1.3716   -4.1454   -0.9309 C.2       1 <0>        -0.0357
      7 C7          2.2155   -5.1793   -0.4631 C.2       1 <0>         0.5719
      8 O1          1.9272   -6.3498   -0.6430 O.2       1 <0>        -0.5217
      9 N1          3.3497   -4.8379    0.1877 N.am      1 <0>        -0.6330
     10 H1          3.9439   -5.5300    0.5176 H         1 <0>         0.4219
     11 C8          3.6639   -3.5203    0.3833 C.2       1 <0>         0.3994
     12 N2          2.8908   -2.5515   -0.0437 N.2       1 <0>        -0.4298
     13 C9          4.9101   -3.1798    1.0980 C.ar      1 <0>        -0.1126
     14 C10         5.7536   -4.1922    1.5597 C.ar      1 <0>         0.0399
     15 C11         6.9158   -3.8678    2.2265 C.ar      1 <0>        -0.7185
     16 C12         7.2508   -2.5412    2.4411 C.ar      1 <0>         0.0430
     17 C13         6.4250   -1.5305    1.9894 C.ar      1 <0>        -0.2315
     18 C14         5.2556   -1.8391    1.3116 C.ar      1 <0>         0.2415
     19 O2          4.4461   -0.8467    0.8623 O.3       1 <0>        -0.2578
     20 C15         4.8632    0.4961    1.1168 C.3       1 <0>         0.0414
     21 C16         3.8319    1.4685    0.5407 C.3       1 <0>        -0.1519
     22 S1          7.9793   -5.1464    2.8085 S.o2      1 <0>         2.6926
     23 O3          8.7312   -4.5930    3.8798 O.2       1 <0>        -0.9482
     24 O4          7.1730   -6.3063    2.9631 O.2       1 <0>        -0.9501
     25 N3          9.0568   -5.4772    1.5953 N.pl3     1 <0>        -0.9979
     26 C17         8.7556   -6.4921    0.5742 C.3       1 <0>         0.1239
     27 C18         8.9742   -5.8704   -0.8093 C.3       1 <0>         0.0382
     28 N4         10.3268   -5.3015   -0.8788 N.3       1 <0>        -0.5395
     29 C19        10.4964   -4.2104    0.0900 C.3       1 <0>         0.0386
     30 C20        10.3376   -4.7598    1.5068 C.3       1 <0>         0.1243
     31 C21        10.6381   -4.8489   -2.2412 C.3       1 <0>         0.0245
     32 N5          0.1842   -4.1164   -1.6082 N.pl3     1 <0>        -0.3299
     33 N6         -0.1751   -2.7746   -1.7907 N.2       1 <0>        -0.2328
     34 C22        -0.5794   -5.2824   -2.0596 C.3       1 <0>         0.0994
     35 H2          1.0039    1.9031    0.0027 H         1 <0>         0.0577
     36 H3         -0.5459    1.8868   -0.8726 H         1 <0>         0.0559
     37 H4         -0.5289    1.8773    0.9072 H         1 <0>         0.0565
     38 H5          0.5293   -0.3651    0.8851 H         1 <0>         0.0665
     39 H6         -1.0205   -0.3814    0.0098 H         1 <0>         0.0628
     40 H7          0.1910   -0.1364   -2.1398 H         1 <0>         0.0831
     41 H8          1.7408   -0.1202   -1.2645 H         1 <0>         0.0935
     42 H9          5.4957   -5.2279    1.3950 H         1 <0>         0.1438
     43 H10         8.1628   -2.2958    2.9650 H         1 <0>         0.1492
     44 H11         6.6926   -0.4983    2.1608 H         1 <0>         0.1488
     45 H12         4.9489    0.6524    2.1922 H         1 <0>         0.0678
     46 H13         5.8306    0.6715    0.6460 H         1 <0>         0.0666
     47 H14         3.7463    1.3123   -0.5346 H         1 <0>         0.0692
     48 H15         2.8646    1.2931    1.0115 H         1 <0>         0.0720
     49 H16         4.1502    2.4927    0.7349 H         1 <0>         0.0796
     50 H17         9.4199   -7.3470    0.7005 H         1 <0>         0.0879
     51 H18         7.7185   -6.8131    0.6717 H         1 <0>         0.0935
     52 H19         8.8627   -6.6382   -1.5748 H         1 <0>         0.0901
     53 H20         8.2393   -5.0824   -0.9741 H         1 <0>         0.0394
     54 H21        11.4890   -3.7744   -0.0233 H         1 <0>         0.0905
     55 H22         9.7403   -3.4456   -0.0874 H         1 <0>         0.0393
     56 H23        10.3460   -3.9360    2.2206 H         1 <0>         0.0948
     57 H24        11.1569   -5.4449    1.7245 H         1 <0>         0.0867
     58 H25         9.9216   -4.0848   -2.5429 H         1 <0>         0.0257
     59 H26        11.6450   -4.4322   -2.2645 H         1 <0>         0.0713
     60 H27        10.5786   -5.6939   -2.9273 H         1 <0>         0.0713
     61 H28        -1.2781   -5.5834   -1.2791 H         1 <0>         0.0824
     62 H29        -1.1323   -5.0268   -2.9634 H         1 <0>         0.0965
     63 H30         0.1042   -6.1043   -2.2721 H         1 <0>         0.1003
@<TRIPOS>BOND
     1    1    2 1
     2    1   35 1
     3    1   36 1
     4    1   37 1
     5    2    3 1
     6    2   38 1
     7    2   39 1
     8    3    4 1
     9    3   40 1
    10    3   41 1
    11    4   33 2
    12    4    5 1
    13    5   12 1
    14    5    6 2
    15    6    7 1
    16    6   32 1
    17    7    8 2
    18    7    9 am
    19    9   10 1
    20    9   11 1
    21   11   12 2
    22   11   13 1
    23   13   18 ar
    24   13   14 ar
    25   14   15 ar
    26   14   42 1
    27   15   16 ar
    28   15   22 1
    29   16   17 ar
    30   16   43 1
    31   17   18 ar
    32   17   44 1
    33   18   19 1
    34   19   20 1
    35   20   21 1
    36   20   45 1
    37   20   46 1
    38   21   47 1
    39   21   48 1
    40   21   49 1
    41   22   23 2
    42   22   24 2
    43   22   25 1
    44   25   30 1
    45   25   26 1
    46   26   27 1
    47   26   50 1
    48   26   51 1
    49   27   28 1
    50   27   52 1
    51   27   53 1
    52   28   29 1
    53   28   31 1
    54   29   30 1
    55   29   54 1
    56   29   55 1
    57   30   56 1
    58   30   57 1
    59   31   58 1
    60   31   59 1
    61   31   60 1
    62   32   33 1
    63   32   34 1
    64   34   61 1
    65   34   62 1
    66   34   63 1
@<TRIPOS>MOLECULE
ZINC19796168
   63    66     0     0     0
SMALL
USER_CHARGES

@<TRIPOS>ATOM
      1 C1         -0.0187    1.5258    0.0104 C.3       1 <0>        -0.1539
      2 C2          0.0021   -0.0041    0.0020 C.3       1 <0>        -0.1188
      3 C3          0.7182   -0.4975   -1.2568 C.3       1 <0>        -0.0455
      4 C4          0.7386   -2.0043   -1.2651 C.2       1 <0>         0.0795
      5 C5          1.7371   -2.8090   -0.7054 C.2       1 <0>         0.0226
      6 C6          1.3740   -4.1350   -0.9304 C.2       1 <0>        -0.0270
      7 C7          2.2608   -5.1909   -0.4384 C.2       1 <0>         0.5560
      8 O1          1.9844   -6.3672   -0.6123 O.2       1 <0>        -0.4907
      9 N1          3.3842   -4.8398    0.2075 N.2       1 <0>        -0.5489
     10 C8          3.6977   -3.5767    0.4033 C.2       1 <0>         0.4949
     11 N2          2.9154   -2.5523   -0.0295 N.pl3     1 <0>        -0.5912
     12 C9          4.9471   -3.2598    1.1207 C.ar      1 <0>        -0.1387
     13 C10         5.3072   -1.9297    1.3507 C.ar      1 <0>         0.0502
     14 C11         6.4754   -1.6404    2.0219 C.ar      1 <0>        -0.7241
     15 C12         7.2958   -2.6630    2.4697 C.ar      1 <0>         0.0516
     16 C13         6.9520   -3.9820    2.2486 C.ar      1 <0>        -0.2347
     17 C14         5.7769   -4.2915    1.5805 C.ar      1 <0>         0.2542
     18 O2          5.4349   -5.5872    1.3679 O.3       1 <0>        -0.2513
     19 C15         6.3296   -6.5843    1.8652 C.3       1 <0>         0.0415
     20 C16         5.7806   -7.9733    1.5332 C.3       1 <0>        -0.1498
     21 S1          6.9282    0.0377    2.3112 S.o2      1 <0>         2.6935
     22 O3          8.3389    0.0542    2.4813 O.2       1 <0>        -0.9470
     23 O4          6.2716    0.8126    1.3174 O.2       1 <0>        -0.9501
     24 N3          6.2708    0.4783    3.7659 N.pl3     1 <0>        -0.9978
     25 C17         4.9211    1.0580    3.8397 C.3       1 <0>         0.1243
     26 C18         4.1139    0.2804    4.8848 C.3       1 <0>         0.0380
     27 N4          4.8523    0.2619    6.1546 N.3       1 <0>        -0.5392
     28 C19         6.1314   -0.4472    6.0169 C.3       1 <0>         0.0382
     29 C20         7.0189    0.2948    5.0189 C.3       1 <0>         0.1242
     30 C21         4.0386   -0.3238    7.2283 C.3       1 <0>         0.0243
     31 N5          0.1890   -4.1166   -1.6070 N.pl3     1 <0>        -0.3265
     32 N6         -0.1769   -2.7759   -1.7917 N.2       1 <0>        -0.2363
     33 C22        -0.5677   -5.2881   -2.0556 C.3       1 <0>         0.1018
     34 H1          1.0039    1.9031    0.0027 H         1 <0>         0.0587
     35 H2         -0.5459    1.8868   -0.8726 H         1 <0>         0.0584
     36 H3         -0.5289    1.8773    0.9072 H         1 <0>         0.0590
     37 H4          0.5293   -0.3651    0.8851 H         1 <0>         0.0617
     38 H5         -1.0205   -0.3814    0.0098 H         1 <0>         0.0685
     39 H6          0.1910   -0.1364   -2.1398 H         1 <0>         0.0924
     40 H7          1.7408   -0.1202   -1.2645 H         1 <0>         0.0851
     41 H8          4.6710   -1.1293    1.0027 H         1 <0>         0.1448
     42 H9          8.2097   -2.4272    2.9946 H         1 <0>         0.1511
     43 H10         7.5970   -4.7736    2.6002 H         1 <0>         0.1511
     44 H11         7.3075   -6.4595    1.4002 H         1 <0>         0.0690
     45 H12         6.4252   -6.4802    2.9460 H         1 <0>         0.0679
     46 H13         6.4630   -8.7339    1.9125 H         1 <0>         0.0796
     47 H14         4.8027   -8.0982    1.9981 H         1 <0>         0.0699
     48 H15         5.6850   -8.0774    0.4524 H         1 <0>         0.0705
     49 H16         4.9880    2.1054    4.1338 H         1 <0>         0.0882
     50 H17         4.4346    0.9780    2.8676 H         1 <0>         0.0929
     51 H18         3.1485    0.7644    5.0325 H         1 <0>         0.0901
     52 H19         3.9598   -0.7416    4.5387 H         1 <0>         0.0392
     53 H20         6.6291   -0.4910    6.9857 H         1 <0>         0.0908
     54 H21         5.9492   -1.4591    5.6551 H         1 <0>         0.0394
     55 H22         7.9186   -0.2894    4.8260 H         1 <0>         0.0949
     56 H23         7.2913    1.2675    5.4285 H         1 <0>         0.0873
     57 H24         3.7712   -1.3470    6.9645 H         1 <0>         0.0259
     58 H25         4.6091   -0.3253    8.1570 H         1 <0>         0.0715
     59 H26         3.1316    0.2663    7.3599 H         1 <0>         0.0715
     60 H27        -1.2651   -5.5910   -1.2745 H         1 <0>         0.0826
     61 H28        -1.1218   -5.0381   -2.9604 H         1 <0>         0.0959
     62 H29         0.1207   -6.1067   -2.2656 H         1 <0>         0.1018
     63 H30         3.1857   -1.6357    0.1370 H         1 <0>         0.4171
@<TRIPOS>BOND
     1    1    2 1
     2    1   34 1
     3    1   35 1
     4    1   36 1
     5    2    3 1
     6    2   37 1
     7    2   38 1
     8    3    4 1
     9    3   39 1
    10    3   40 1
    11    4   32 2
    12    4    5 1
    13    5   11 1
    14    5    6 2
    15    6    7 1
    16    6   31 1
    17    7    8 2
    18    7    9 1
    19    9   10 2
    20   10   11 1
    21   10   12 1
    22   11   63 1
    23   12   17 ar
    24   12   13 ar
    25   13   14 ar
    26   13   41 1
    27   14   15 ar
    28   14   21 1
    29   15   16 ar
    30   15   42 1
    31   16   17 ar
    32   16   43 1
    33   17   18 1
    34   18   19 1
    35   19   20 1
    36   19   44 1
    37   19   45 1
    38   20   46 1
    39   20   47 1
    40   20   48 1
    41   21   22 2
    42   21   23 2
    43   21   24 1
    44   24   29 1
    45   24   25 1
    46   25   26 1
    47   25   49 1
    48   25   50 1
    49   26   27 1
    50   26   51 1
    51   26   52 1
    52   27   28 1
    53   27   30 1
    54   28   29 1
    55   28   53 1
    56   28   54 1
    57   29   55 1
    58   29   56 1
    59   30   57 1
    60   30   58 1
    61   30   59 1
    62   31   32 1
    63   31   33 1
    64   33   60 1
    65   33   61 1
    66   33   62 1
@<TRIPOS>MOLECULE
ZINC19796168
   62    65     0     0     0
SMALL
USER_CHARGES

@<TRIPOS>ATOM
      1 C1         -0.0187    1.5258    0.0104 C.3       1 <0>        -0.1485
      2 C2          0.0021   -0.0041    0.0020 C.3       1 <0>        -0.1148
      3 C3         -1.4333   -0.5336    0.0129 C.3       1 <0>        -0.0265
      4 C4         -1.4129   -2.0405    0.0046 C.2       1 <0>         0.0755
      5 C5         -1.4070   -2.8569   -1.1475 C.ar      1 <0>         0.0668
      6 C6         -1.3869   -4.1920   -0.7014 C.ar      1 <0>        -0.0515
      7 C7         -1.3777   -5.2165   -1.6565 C.ar      1 <0>         0.4648
      8 O1         -1.3588   -6.5164   -1.2751 O.3       1 <0>        -0.6909
      9 N1         -1.3884   -4.8893   -2.9402 N.ar      1 <0>        -0.5725
     10 C8         -1.4074   -3.6162   -3.3266 C.ar      1 <0>         0.3612
     11 N2         -1.4163   -2.6161   -2.4630 N.ar      1 <0>        -0.5554
     12 C9         -1.4186   -3.3091   -4.7764 C.ar      1 <0>        -0.0636
     13 C10        -1.4328   -1.9850   -5.2116 C.ar      1 <0>         0.0543
     14 C11        -1.4432   -1.7045   -6.5622 C.ar      1 <0>        -0.7317
     15 C12        -1.4396   -2.7334   -7.4883 C.ar      1 <0>         0.0205
     16 C13        -1.4256   -4.0494   -7.0685 C.ar      1 <0>        -0.2451
     17 C14        -1.4092   -4.3463   -5.7145 C.ar      1 <0>         0.2216
     18 O2         -1.3897   -5.6394   -5.3005 O.3       1 <0>        -0.2427
     19 C15        -1.3811   -6.6454   -6.3153 C.3       1 <0>         0.0442
     20 C16        -1.3591   -8.0288   -5.6620 C.3       1 <0>        -0.1464
     21 S1         -1.4617   -0.0302   -7.1108 S.o2      1 <0>         2.6962
     22 O3         -2.0201   -0.0370   -8.4174 O.2       1 <0>        -0.9629
     23 O4         -2.0135    0.7385   -6.0505 O.2       1 <0>        -0.9522
     24 N3          0.1150    0.4496   -7.2724 N.pl3     1 <0>        -1.0004
     25 C17         0.8390    1.0557   -6.1447 C.3       1 <0>         0.1268
     26 C18         2.1670    0.3130   -5.9632 C.3       1 <0>         0.0372
     27 N4          2.8976    0.3041   -7.2376 N.3       1 <0>        -0.5398
     28 C19         2.1569   -0.4314   -8.2713 C.3       1 <0>         0.0376
     29 C20         0.8304    0.2753   -8.5456 C.3       1 <0>         0.1276
     30 C21         4.2487   -0.2463   -7.0660 C.3       1 <0>         0.0248
     31 N5         -1.3812   -4.1504    0.6672 N.pl3     1 <0>        -0.3678
     32 N6         -1.3920   -2.8055    1.0596 N.2       1 <0>        -0.2631
     33 C22        -1.3618   -5.3088    1.5638 C.3       1 <0>         0.1224
     34 H1          1.0039    1.9031    0.0027 H         1 <0>         0.0507
     35 H2         -0.5459    1.8868   -0.8726 H         1 <0>         0.0575
     36 H3         -0.5289    1.8773    0.9072 H         1 <0>         0.0512
     37 H4          0.5123   -0.3556   -0.8948 H         1 <0>         0.0656
     38 H5          0.5293   -0.3651    0.8851 H         1 <0>         0.0578
     39 H6         -1.9435   -0.1821    0.9097 H         1 <0>         0.0708
     40 H7         -1.9605   -0.1726   -0.8702 H         1 <0>         0.0861
     41 H8         -1.4360   -1.1795   -4.4922 H         1 <0>         0.1566
     42 H9         -1.4482   -2.5062   -8.5441 H         1 <0>         0.1359
     43 H10        -1.4233   -4.8477   -7.7959 H         1 <0>         0.1361
     44 H11        -2.2755   -6.5484   -6.9307 H         1 <0>         0.0581
     45 H12        -0.4957   -6.5243   -6.9395 H         1 <0>         0.0570
     46 H13        -1.3526   -8.7961   -6.4360 H         1 <0>         0.0694
     47 H14        -0.4647   -8.1258   -5.0466 H         1 <0>         0.0690
     48 H15        -2.2445   -8.1499   -5.0378 H         1 <0>         0.0696
     49 H16         1.0335    2.1070   -6.3571 H         1 <0>         0.0814
     50 H17         0.2427    0.9670   -5.2366 H         1 <0>         0.0979
     51 H18         2.7652    0.8176   -5.2045 H         1 <0>         0.0879
     52 H19         1.9704   -0.7122   -5.6495 H         1 <0>         0.0449
     53 H20         2.7478   -0.4666   -9.1865 H         1 <0>         0.0858
     54 H21         1.9605   -1.4462   -7.9254 H         1 <0>         0.0417
     55 H22         0.2284   -0.3292   -9.2240 H         1 <0>         0.0922
     56 H23         1.0240    1.2501   -8.9932 H         1 <0>         0.0807
     57 H24         4.1801   -1.2690   -6.6954 H         1 <0>         0.0264
     58 H25         4.7675   -0.2413   -8.0246 H         1 <0>         0.0675
     59 H26         4.8011    0.3631   -6.3508 H         1 <0>         0.0692
     60 H27        -0.3294   -5.5825    1.7815 H         1 <0>         0.0592
     61 H28        -1.8748   -5.0582    2.4923 H         1 <0>         0.0722
     62 H29        -1.8667   -6.1476    1.0847 H         1 <0>         0.0961
@<TRIPOS>BOND
     1    1    2 1
     2    1   34 1
     3    1   35 1
     4    1   36 1
     5    2    3 1
     6    2   37 1
     7    2   38 1
     8    3    4 1
     9    3   39 1
    10    3   40 1
    11    4   32 2
    12    4    5 1
    13    5   11 ar
    14    5    6 ar
    15    6    7 ar
    16    6   31 1
    17    7    8 1
    18    7    9 ar
    19    9   10 ar
    20   10   11 ar
    21   10   12 1
    22   12   17 ar
    23   12   13 ar
    24   13   14 ar
    25   13   41 1
    26   14   15 ar
    27   14   21 1
    28   15   16 ar
    29   15   42 1
    30   16   17 ar
    31   16   43 1
    32   17   18 1
    33   18   19 1
    34   19   20 1
    35   19   44 1
    36   19   45 1
    37   20   46 1
    38   20   47 1
    39   20   48 1
    40   21   22 2
    41   21   23 2
    42   21   24 1
    43   24   29 1
    44   24   25 1
    45   25   26 1
    46   25   49 1
    47   25   50 1
    48   26   27 1
    49   26   51 1
    50   26   52 1
    51   27   28 1
    52   27   30 1
    53   28   29 1
    54   28   53 1
    55   28   54 1
    56   29   55 1
    57   29   56 1
    58   30   57 1
    59   30   58 1
    60   30   59 1
    61   31   32 1
    62   31   33 1
    63   33   60 1
    64   33   61 1
    65   33   62 1
@<TRIPOS>MOLECULE
ZINC19796168
   64    67     0     0     0
SMALL
USER_CHARGES

@<TRIPOS>ATOM
      1 C1         -0.0187    1.5258    0.0104 C.3       1 <0>        -0.1524
      2 C2          0.0021   -0.0041    0.0020 C.3       1 <0>        -0.1163
      3 C3         -1.4333   -0.5336    0.0129 C.3       1 <0>        -0.0382
      4 C4         -1.4129   -2.0405    0.0046 C.2       1 <0>         0.1125
      5 C5         -1.4070   -2.8548   -1.1446 C.2       1 <0>         0.0358
      6 C6         -1.3861   -4.1841   -0.7032 C.2       1 <0>        -0.0303
      7 C7         -1.3769   -5.2214   -1.6643 C.2       1 <0>         0.5721
      8 O1         -1.3591   -6.3907   -1.3206 O.2       1 <0>        -0.5177
      9 N1         -1.3887   -4.8848   -2.9731 N.am      1 <0>        -0.6346
     10 H1         -1.3827   -5.5793   -3.6502 H         1 <0>         0.4185
     11 C8         -1.4095   -3.5686   -3.3476 C.2       1 <0>         0.3827
     12 N2         -1.4171   -2.5966   -2.4679 N.2       1 <0>        -0.4195
     13 C9         -1.4219   -3.2333   -4.7854 C.ar      1 <0>        -0.1025
     14 C10        -1.4183   -4.2493   -5.7432 C.ar      1 <0>         0.0333
     15 C11        -1.4299   -3.9298   -7.0842 C.ar      1 <0>        -0.7276
     16 C12        -1.4448   -2.6046   -7.4863 C.ar      1 <0>         0.0370
     17 C13        -1.4485   -1.5903   -6.5488 C.ar      1 <0>        -0.2285
     18 C14        -1.4433   -1.8942   -5.1961 C.ar      1 <0>         0.2470
     19 O2         -1.4527   -0.8984   -4.2738 O.3       1 <0>        -0.2539
     20 C15        -1.4745    0.4426   -4.7671 C.3       1 <0>         0.0414
     21 C16        -1.4823    1.4191   -3.5893 C.3       1 <0>        -0.1545
     22 S1         -1.4253   -5.2129   -8.2917 S.o2      1 <0>         2.6914
     23 O3         -0.8874   -4.6500   -9.4805 O.2       1 <0>        -0.9316
     24 O4         -0.8594   -6.3568   -7.6667 O.2       1 <0>        -0.9334
     25 N3         -3.0059   -5.5847   -8.6172 N.pl3     1 <0>        -1.0127
     26 C17        -3.7155   -6.6148   -7.8430 C.3       1 <0>         0.0947
     27 C18        -5.0462   -6.0287   -7.3599 C.3       1 <0>        -0.0248
     28 N4         -5.7976   -5.5098   -8.5098 N.4       1 <0>        -0.3832
     29 C19        -5.0699   -4.3889   -9.1182 C.3       1 <0>        -0.0235
     30 C20        -3.7420   -4.8899   -9.6846 C.3       1 <0>         0.0949
     31 C21        -7.1182   -5.0483   -8.0616 C.3       1 <0>        -0.0476
     32 N5         -1.3799   -4.1501    0.6637 N.pl3     1 <0>        -0.3251
     33 N6         -1.3920   -2.8068    1.0614 N.2       1 <0>        -0.2289
     34 C22        -1.3598   -5.3128    1.5547 C.3       1 <0>         0.0963
     35 H2          1.0039    1.9031    0.0027 H         1 <0>         0.0582
     36 H3         -0.5459    1.8868   -0.8726 H         1 <0>         0.0570
     37 H4         -0.5289    1.8773    0.9072 H         1 <0>         0.0575
     38 H5          0.5123   -0.3556   -0.8948 H         1 <0>         0.0655
     39 H6          0.5293   -0.3651    0.8851 H         1 <0>         0.0644
     40 H7         -1.9435   -0.1821    0.9097 H         1 <0>         0.0854
     41 H8         -1.9605   -0.1726   -0.8702 H         1 <0>         0.0931
     42 H9         -1.4060   -5.2840   -5.4339 H         1 <0>         0.1444
     43 H10        -1.4531   -2.3629   -8.5389 H         1 <0>         0.1495
     44 H11        -1.4598   -0.5592   -6.8698 H         1 <0>         0.1518
     45 H12        -0.5902    0.6189   -5.3794 H         1 <0>         0.0706
     46 H13        -2.3699    0.5934   -5.3701 H         1 <0>         0.0677
     47 H14        -1.4990    2.4420   -3.9655 H         1 <0>         0.0830
     48 H15        -2.3667    1.2428   -2.9770 H         1 <0>         0.0703
     49 H16        -0.5869    1.2683   -2.9863 H         1 <0>         0.0743
     50 H17        -3.9053   -7.4822   -8.4752 H         1 <0>         0.1071
     51 H18        -3.1115   -6.9087   -6.9845 H         1 <0>         0.1349
     52 H19        -5.6284   -6.8070   -6.8666 H         1 <0>         0.1469
     53 H20        -4.8527   -5.2186   -6.6568 H         1 <0>         0.1345
     54 H21        -5.6695   -3.9589   -9.9204 H         1 <0>         0.1472
     55 H22        -4.8756   -3.6285   -8.3618 H         1 <0>         0.1345
     56 H23        -3.1556   -4.0439  -10.0432 H         1 <0>         0.1362
     57 H24        -3.9345   -5.5801  -10.5059 H         1 <0>         0.1058
     58 H25        -6.9949   -4.2582   -7.3209 H         1 <0>         0.1220
     59 H26        -7.6771   -4.6629   -8.9144 H         1 <0>         0.1268
     60 H27        -7.6626   -5.8814   -7.6170 H         1 <0>         0.1264
     61 H28        -0.3273   -5.5873    1.7707 H         1 <0>         0.0857
     62 H29        -1.8725   -5.0668    2.4846 H         1 <0>         0.0997
     63 H30        -1.8648   -6.1494    1.0718 H         1 <0>         0.1010
     64 H31        -5.9143   -6.2436   -9.1925 H         1 <0>         0.4277
@<TRIPOS>BOND
     1    1    2 1
     2    1   35 1
     3    1   36 1
     4    1   37 1
     5    2    3 1
     6    2   38 1
     7    2   39 1
     8    3    4 1
     9    3   40 1
    10    3   41 1
    11    4   33 2
    12    4    5 1
    13    5   12 1
    14    5    6 2
    15    6    7 1
    16    6   32 1
    17    7    8 2
    18    7    9 am
    19    9   10 1
    20    9   11 1
    21   11   12 2
    22   11   13 1
    23   13   18 ar
    24   13   14 ar
    25   14   15 ar
    26   14   42 1
    27   15   16 ar
    28   15   22 1
    29   16   17 ar
    30   16   43 1
    31   17   18 ar
    32   17   44 1
    33   18   19 1
    34   19   20 1
    35   20   21 1
    36   20   45 1
    37   20   46 1
    38   21   47 1
    39   21   48 1
    40   21   49 1
    41   22   23 2
    42   22   24 2
    43   22   25 1
    44   25   30 1
    45   25   26 1
    46   26   27 1
    47   26   50 1
    48   26   51 1
    49   27   28 1
    50   27   52 1
    51   27   53 1
    52   28   29 1
    53   28   31 1
    54   28   64 1
    55   29   30 1
    56   29   54 1
    57   29   55 1
    58   30   56 1
    59   30   57 1
    60   31   58 1
    61   31   59 1
    62   31   60 1
    63   32   33 1
    64   32   34 1
    65   34   61 1
    66   34   62 1
    67   34   63 1
@<TRIPOS>MOLECULE
ZINC00056555
   46    48     0     0     0
SMALL
USER_CHARGES

@<TRIPOS>ATOM
      1 C1         -0.0173    1.4248    0.0099 C.3       1 <0>         0.0258
      2 O1          0.0021   -0.0041    0.0020 O.3       1 <0>        -0.3063
      3 C2          0.6262   -0.6188    1.0422 C.ar      1 <0>         0.0999
      4 C3          1.2021    0.1367    2.0510 C.ar      1 <0>        -0.1710
      5 C4          1.8358   -0.4897    3.1079 C.ar      1 <0>        -0.1122
      6 C5          1.8971   -1.8699    3.1612 C.ar      1 <0>        -0.0760
      7 C6          1.3251   -2.6295    2.1578 C.ar      1 <0>        -0.1547
      8 C7          0.6830   -2.0080    1.0988 C.ar      1 <0>         0.1015
      9 O2          0.1145   -2.7540    0.1140 O.3       1 <0>        -0.3064
     10 C8          0.2115   -4.1743    0.2380 C.3       1 <0>         0.0255
     11 C9          2.5896   -2.5476    4.3154 C.3       1 <0>        -0.0305
     12 C10         1.5954   -2.8002    5.4194 C.ar      1 <0>         0.1803
     13 C11         1.3868   -1.8306    6.4126 C.ar      1 <0>        -0.0927
     14 C12         2.0813   -0.6102    6.4178 C.ar      1 <0>        -0.1656
     15 C13         1.8397    0.2976    7.4073 C.ar      1 <0>         0.1202
     16 C14         0.9067    0.0284    8.4207 C.ar      1 <0>         0.1418
     17 C15         0.2161   -1.1496    8.4419 C.ar      1 <0>        -0.1891
     18 C16         0.4428   -2.1015    7.4380 C.ar      1 <0>        -0.0102
     19 C17        -0.2384   -3.3323    7.4069 C.ar      1 <0>        -0.1601
     20 C18         0.0362   -4.2060    6.3992 C.ar      1 <0>         0.0826
     21 N1          0.9194   -3.9252    5.4505 N.ar      1 <0>        -0.4840
     22 O3          0.6880    0.9516    9.3935 O.3       1 <0>        -0.3019
     23 C19        -0.2734    0.6206   10.3977 C.3       1 <0>         0.0223
     24 O4          2.5122    1.4790    7.4120 O.3       1 <0>        -0.3019
     25 C20         3.4494    1.6962    6.3553 C.3       1 <0>         0.0208
     26 H1          1.0053    1.8021    0.0021 H         1 <0>         0.0553
     27 H2         -0.5445    1.7859   -0.8732 H         1 <0>         0.1013
     28 H3         -0.5275    1.7763    0.9067 H         1 <0>         0.0545
     29 H4          1.1562    1.2150    2.0113 H         1 <0>         0.1358
     30 H5          2.2842    0.1003    3.8935 H         1 <0>         0.1221
     31 H6          1.3747   -3.7075    2.2017 H         1 <0>         0.1401
     32 H7          1.2614   -4.4664    0.2576 H         1 <0>         0.0558
     33 H8         -0.2714   -4.4922    1.1620 H         1 <0>         0.0564
     34 H9         -0.2815   -4.6476   -0.6111 H         1 <0>         0.1010
     35 H10         3.0097   -3.4961    3.9808 H         1 <0>         0.0985
     36 H11         3.3894   -1.9067    4.6863 H         1 <0>         0.0913
     37 H12         2.8023   -0.3917    5.6438 H         1 <0>         0.1473
     38 H13        -0.4993   -1.3466    9.2266 H         1 <0>         0.1459
     39 H14        -0.9645   -3.5793    8.1673 H         1 <0>         0.1371
     40 H15        -0.4831   -5.1525    6.3692 H         1 <0>         0.1540
     41 H16        -0.3511    1.4413   11.1107 H         1 <0>         0.1057
     42 H17        -1.2436    0.4521    9.9304 H         1 <0>         0.0589
     43 H18         0.0414   -0.2840   10.9179 H         1 <0>         0.0591
     44 H19         4.2164    0.9223    6.3853 H         1 <0>         0.0590
     45 H20         2.9316    1.6577    5.3969 H         1 <0>         0.0571
     46 H21         3.9148    2.6741    6.4778 H         1 <0>         0.1062
@<TRIPOS>BOND
     1    1    2 1
     2    1   26 1
     3    1   27 1
     4    1   28 1
     5    2    3 1
     6    3    8 ar
     7    3    4 ar
     8    4    5 ar
     9    4   29 1
    10    5    6 ar
    11    5   30 1
    12    6    7 ar
    13    6   11 1
    14    7    8 ar
    15    7   31 1
    16    8    9 1
    17    9   10 1
    18   10   32 1
    19   10   33 1
    20   10   34 1
    21   11   12 1
    22   11   35 1
    23   11   36 1
    24   12   21 ar
    25   12   13 ar
    26   13   18 ar
    27   13   14 ar
    28   14   15 ar
    29   14   37 1
    30   15   16 ar
    31   15   24 1
    32   16   17 ar
    33   16   22 1
    34   17   18 ar
    35   17   38 1
    36   18   19 ar
    37   19   20 ar
    38   19   39 1
    39   20   21 ar
    40   20   40 1
    41   22   23 1
    42   23   41 1
    43   23   42 1
    44   23   43 1
    45   24   25 1
    46   25   44 1
    47   25   45 1
    48   25   46 1
@<TRIPOS>MOLECULE
ZINC13817033
   62    63     0     0     0
SMALL
USER_CHARGES
(E)-1-[2,4-dihydroxy-3-[(2R)-2-isopropenyl-5-methyl-hex-4-enyl]-6-methoxy-phenyl]-3-(2,4-dihydroxyphenyl)prop-2-en-1-one
@<TRIPOS>ATOM
      1 C1         -9.4739   -1.7996    0.5743 C.3       1 <0>        -0.1201
      2 C2         -9.6410   -0.3110    0.4095 C.2       1 <0>        -0.1385
      3 C3         -8.9451    0.5125    1.1536 C.2       1 <0>        -0.1564
      4 C4         -8.0858   -0.0233    2.2696 C.3       1 <0>        -0.0882
      5 C5         -6.6395    0.4309    2.0628 C.3       1 <0>        -0.0385
      6 H1         -6.3022    0.1290    1.0712 H         1 <0>         0.0774
      7 C6         -5.7457   -0.2142    3.1239 C.3       1 <0>        -0.0556
      8 C7         -4.3049    0.1251    2.8408 C.ar      1 <0>        -0.1622
      9 C8         -3.5744   -0.6466    1.9460 C.ar      1 <0>         0.1789
     10 C9         -2.2461   -0.3423    1.6782 C.ar      1 <0>        -0.2493
     11 C10        -1.6400    0.7334    2.3012 C.ar      1 <0>         0.1872
     12 C11        -2.3698    1.5154    3.2105 C.ar      1 <0>        -0.2173
     13 C12        -3.7138    1.2039    3.4720 C.ar      1 <0>         0.2049
     14 O1         -4.4290    1.9565    4.3456 O.3       1 <0>        -0.4771
     15 C13        -1.7310    2.6588    3.8823 C.2       1 <0>         0.4559
     16 O2         -1.0937    2.4855    4.9065 O.2       1 <0>        -0.4538
     17 C14        -1.8571    3.9623    3.3376 C.2       1 <0>        -0.2294
     18 C15        -1.3571    5.0263    4.0067 C.2       1 <0>         0.0030
     19 C16        -1.4876    6.3743    3.4434 C.ar      1 <0>        -0.1194
     20 C17        -2.1241    6.5631    2.2100 C.ar      1 <0>        -0.0618
     21 C18        -2.2483    7.8192    1.6897 C.ar      1 <0>        -0.1568
     22 C19        -1.7364    8.9184    2.3733 C.ar      1 <0>         0.1410
     23 C20        -1.0981    8.7493    3.5937 C.ar      1 <0>        -0.1779
     24 C21        -0.9692    7.4826    4.1360 C.ar      1 <0>         0.1533
     25 O3         -0.3456    7.3111    5.3288 O.3       1 <0>        -0.4899
     26 O4         -1.8618   10.1617    1.8433 O.3       1 <0>        -0.4953
     27 O5         -0.3421    1.0288    2.0386 O.3       1 <0>        -0.3085
     28 C22         0.3395    0.1860    1.1074 C.3       1 <0>         0.0252
     29 O6         -4.1619   -1.7039    1.3305 O.3       1 <0>        -0.4882
     30 C23        -6.5617    1.9309    2.1848 C.2       1 <0>        -0.0942
     31 C24        -6.0185    2.6388    1.2256 C.2       1 <0>        -0.2045
     32 C25        -7.1088    2.6166    3.4102 C.3       1 <0>        -0.1132
     33 C26       -10.6085    0.2303   -0.6112 C.3       1 <0>        -0.1170
     34 H2        -10.1201   -2.1509    1.3787 H         1 <0>         0.0637
     35 H3         -9.7453   -2.3007   -0.3549 H         1 <0>         0.0595
     36 H4         -8.4355   -2.0239    0.8182 H         1 <0>         0.0676
     37 H5         -8.9872    1.5755    0.9673 H         1 <0>         0.1073
     38 H6         -8.1281   -1.1125    2.2698 H         1 <0>         0.0736
     39 H7         -8.4524    0.3547    3.2240 H         1 <0>         0.0736
     40 H8         -5.8757   -1.2961    3.0995 H         1 <0>         0.0732
     41 H9         -6.0210    0.1628    4.1088 H         1 <0>         0.0758
     42 H10        -1.6850   -0.9472    0.9813 H         1 <0>         0.1416
     43 H11        -4.3819    1.6479    5.2608 H         1 <0>         0.3947
     44 H12        -2.3524    4.1053    2.3885 H         1 <0>         0.1313
     45 H13        -0.8619    4.8832    4.9558 H         1 <0>         0.1395
     46 H14        -2.5202    5.7146    1.6718 H         1 <0>         0.1385
     47 H15        -2.7428    7.9604    0.7400 H         1 <0>         0.1367
     48 H16        -0.7021    9.6054    4.1198 H         1 <0>         0.1410
     49 H17         0.6070    7.1615    5.2567 H         1 <0>         0.3977
     50 H18        -1.1262   10.4218    1.2721 H         1 <0>         0.3967
     51 H19         0.3417   -0.8387    1.4788 H         1 <0>         0.0597
     52 H20         1.3664    0.5316    0.9886 H         1 <0>         0.1053
     53 H21        -0.1698    0.2223    0.1443 H         1 <0>         0.0605
     54 H22        -4.0127   -2.5500    1.7742 H         1 <0>         0.3952
     55 H23        -5.9628    3.7138    1.3131 H         1 <0>         0.0920
     56 H24        -5.6264    2.1474    0.3475 H         1 <0>         0.0889
     57 H25        -7.4432    1.8669    4.1272 H         1 <0>         0.0569
     58 H26        -6.3289    3.2294    3.8623 H         1 <0>         0.0739
     59 H27        -7.9499    3.2495    3.1273 H         1 <0>         0.0564
     60 H28       -10.5924    1.3199   -0.5852 H         1 <0>         0.0591
     61 H29       -10.3193   -0.1137   -1.6042 H         1 <0>         0.0622
     62 H30       -11.6138   -0.1238   -0.3825 H         1 <0>         0.0645
@<TRIPOS>BOND
     1    1    2 1
     2    1   34 1
     3    1   35 1
     4    1   36 1
     5    2    3 2
     6    2   33 1
     7    3    4 1
     8    3   37 1
     9    4    5 1
    10    4   38 1
    11    4   39 1
    12    5    6 1
    13    5    7 1
    14    5   30 1
    15    7    8 1
    16    7   40 1
    17    7   41 1
    18    8   13 ar
    19    8    9 ar
    20    9   10 ar
    21    9   29 1
    22   10   11 ar
    23   10   42 1
    24   11   12 ar
    25   11   27 1
    26   12   13 ar
    27   12   15 1
    28   13   14 1
    29   14   43 1
    30   15   16 2
    31   15   17 1
    32   17   18 2
    33   17   44 1
    34   18   19 1
    35   18   45 1
    36   19   24 ar
    37   19   20 ar
    38   20   21 ar
    39   20   46 1
    40   21   22 ar
    41   21   47 1
    42   22   23 ar
    43   22   26 1
    44   23   24 ar
    45   23   48 1
    46   24   25 1
    47   25   49 1
    48   26   50 1
    49   27   28 1
    50   28   51 1
    51   28   52 1
    52   28   53 1
    53   29   54 1
    54   30   31 2
    55   30   32 1
    56   31   55 1
    57   31   56 1
    58   32   57 1
    59   32   58 1
    60   32   59 1
    61   33   60 1
    62   33   61 1
    63   33   62 1
@<TRIPOS>MOLECULE
ZINC09230249
   29    30     0     0     0
SMALL
USER_CHARGES

@<TRIPOS>ATOM
      1 C1         -0.0173    1.4248    0.0099 C.3       1 <0>         0.0236
      2 O1          0.0021   -0.0041    0.0020 O.3       1 <0>        -0.3040
      3 C2         -1.2011   -0.6379    0.0101 C.ar      1 <0>         0.1175
      4 C3         -2.3714    0.0993    0.0195 C.ar      1 <0>        -0.1445
      5 C4         -3.6031   -0.5532    0.0272 C.ar      1 <0>        -0.0191
      6 C5         -3.6514   -1.9463    0.0256 C.ar      1 <0>        -0.0954
      7 C6         -2.4813   -2.6777    0.0162 C.ar      1 <0>        -0.1520
      8 C7         -1.2554   -2.0294    0.0031 C.ar      1 <0>         0.0894
      9 O2         -0.1049   -2.7535   -0.0117 O.3       1 <0>        -0.3072
     10 C8         -0.2340   -4.1767   -0.0181 C.3       1 <0>         0.4100
     11 F1         -0.9220   -4.5877    1.1286 F         1 <0>        -0.1977
     12 F2         -0.9438   -4.5754   -1.1558 F         1 <0>        -0.1976
     13 C9         -4.8604    0.2335    0.0378 C.2       1 <0>         0.1091
     14 C10        -6.1084   -0.4326    0.0457 C.2       1 <0>        -0.0608
     15 C11        -7.2432    0.3233    0.0552 C.2       1 <0>        -0.1772
     16 C12        -7.1016    1.7287    0.0567 C.2       1 <0>         0.4770
     17 N1         -5.8696    2.2712    0.0487 N.am      1 <0>        -0.4422
     18 N2         -4.8109    1.5448    0.0452 N.2       1 <0>        -0.2145
     19 O3         -8.0890    2.4461    0.0648 O.2       1 <0>        -0.5275
     20 H1          1.0053    1.8021    0.0021 H         1 <0>         0.1046
     21 H2         -0.5445    1.7859   -0.8732 H         1 <0>         0.0586
     22 H3         -0.5275    1.7763    0.9067 H         1 <0>         0.0586
     23 H4         -2.3310    1.1786    0.0211 H         1 <0>         0.1510
     24 H5         -4.6049   -2.4534    0.0320 H         1 <0>         0.1391
     25 H6         -2.5204   -3.7570    0.0153 H         1 <0>         0.1473
     26 H7          0.7566   -4.6313   -0.0300 H         1 <0>         0.1846
     27 H8         -6.1609   -1.5113    0.0438 H         1 <0>         0.1580
     28 H9         -8.2197   -0.1381    0.0612 H         1 <0>         0.1689
     29 H10        -5.7792    3.2370    0.0498 H         1 <0>         0.4424
@<TRIPOS>BOND
     1    1    2 1
     2    1   20 1
     3    1   21 1
     4    1   22 1
     5    2    3 1
     6    3    8 ar
     7    3    4 ar
     8    4    5 ar
     9    4   23 1
    10    5    6 ar
    11    5   13 1
    12    6    7 ar
    13    6   24 1
    14    7    8 ar
    15    7   25 1
    16    8    9 1
    17    9   10 1
    18   10   11 1
    19   10   12 1
    20   10   26 1
    21   13   14 1
    22   13   18 2
    23   14   15 2
    24   14   27 1
    25   15   16 1
    26   15   28 1
    27   16   19 2
    28   16   17 am
    29   17   18 1
    30   17   29 1
@<TRIPOS>MOLECULE
ZINC13805264
   30    32     0     0     0
SMALL
USER_CHARGES
8-(3-nitrophenyl)-1,7-naphthyridin-6-amine
@<TRIPOS>ATOM
      1 C1         -1.2214    1.7482    0.0174 C.ar      1 <0>        -0.1232
      2 C2         -1.2467    3.1279    0.0308 C.ar      1 <0>        -0.0129
      3 C3         -0.0501    3.8445    0.0232 C.ar      1 <0>        -0.0466
      4 C4          1.1659    3.1605    0.0079 C.ar      1 <0>        -0.0150
      5 C5          1.1779    1.7810    0.0004 C.ar      1 <0>        -0.0534
      6 C6         -0.0126    1.0758    0.0080 C.ar      1 <0>        -0.0407
      7 N1          2.4670    1.0538   -0.0163 N.pl3     1 <0>         0.0289
      8 O1          2.4792   -0.1641   -0.0234 O.2       1 <0>        -0.1569
      9 O2          3.5157    1.6733   -0.0230 O.3       1 <0>        -0.1587
     10 C7         -0.0702    5.3250    0.0308 C.ar      1 <0>         0.2705
     11 C8         -1.0874    6.0222   -0.6638 C.ar      1 <0>         0.0366
     12 C9         -1.0784    7.4401   -0.6293 C.ar      1 <0>        -0.0243
     13 C10        -2.0850    8.1490   -1.3088 C.ar      1 <0>        -0.0759
     14 C11        -3.0281    7.4300   -1.9879 C.ar      1 <0>        -0.1413
     15 C12        -2.9817    6.0372   -1.9760 C.ar      1 <0>         0.1139
     16 N2         -2.0435    5.3812   -1.3355 N.ar      1 <0>        -0.4492
     17 C13        -0.0562    8.0892    0.0810 C.ar      1 <0>        -0.2309
     18 C14         0.8971    7.3218    0.7231 C.ar      1 <0>         0.3999
     19 N3          0.8642    5.9944    0.6813 N.ar      1 <0>        -0.5095
     20 N4          1.9153    7.9546    1.4305 N.pl3     1 <0>        -0.8474
     21 H1         -2.1473    1.1922    0.0187 H         1 <0>         0.1538
     22 H2         -2.1911    3.6517    0.0426 H         1 <0>         0.1552
     23 H3          2.0957    3.7098    0.0016 H         1 <0>         0.1579
     24 H4          0.0021   -0.0041    0.0020 H         1 <0>         0.1564
     25 H5         -2.1040    9.2288   -1.3057 H         1 <0>         0.1439
     26 H6         -3.8140    7.9402   -2.5249 H         1 <0>         0.1433
     27 H7         -3.7392    5.4822   -2.5095 H         1 <0>         0.1649
     28 H8         -0.0158    9.1675    0.1252 H         1 <0>         0.1412
     29 H9          2.5901    7.4269    1.8856 H         1 <0>         0.4075
     30 H10         1.9501    8.9232    1.4684 H         1 <0>         0.4123
@<TRIPOS>BOND
     1    1    6 ar
     2    1    2 ar
     3    1   21 1
     4    2    3 ar
     5    2   22 1
     6    3    4 ar
     7    3   10 1
     8    4    5 ar
     9    4   23 1
    10    5    6 ar
    11    5    7 1
    12    6   24 1
    13    7    8 2
    14    7    9 1
    15   10   19 ar
    16   10   11 ar
    17   11   16 ar
    18   11   12 ar
    19   12   13 ar
    20   12   17 ar
    21   13   14 ar
    22   13   25 1
    23   14   15 ar
    24   14   26 1
    25   15   16 ar
    26   15   27 1
    27   17   18 ar
    28   17   28 1
    29   18   19 ar
    30   18   20 1
    31   20   29 1
    32   20   30 1
@<TRIPOS>MOLECULE
ZINC00020647
   46    48     0     0     0
SMALL
USER_CHARGES
1-(3-cyclopentoxy-4-methoxy-phenyl)-4-oxo-cyclohexane-1-carbonitrile
@<TRIPOS>ATOM
      1 C1         -0.3087    5.5918    0.2123 C.3       1 <0>         0.0247
      2 O1         -0.2582    4.1649    0.1545 O.3       1 <0>        -0.3044
      3 C2          0.9427    3.6012   -0.1447 C.ar      1 <0>         0.1076
      4 C3          2.0491    4.4039   -0.3719 C.ar      1 <0>        -0.1700
      5 C4          3.2679    3.8295   -0.6815 C.ar      1 <0>        -0.1032
      6 C5          3.3875    2.4543   -0.7597 C.ar      1 <0>        -0.0839
      7 C6          2.2889    1.6476   -0.5286 C.ar      1 <0>        -0.1610
      8 C7          1.0644    2.2169   -0.2178 C.ar      1 <0>         0.1098
      9 O2         -0.0173    1.4248    0.0099 O.3       1 <0>        -0.2940
     10 C8          0.2051    0.0133    0.0306 C.3       1 <0>         0.0785
     11 C9          0.1108   -0.5576   -1.3994 C.3       1 <0>        -0.1492
     12 C10        -0.5765   -1.9340   -1.2135 C.3       1 <0>        -0.1238
     13 C11        -1.6168   -1.6500   -0.1018 C.3       1 <0>        -0.1237
     14 C12        -0.8926   -0.6811    0.8556 C.3       1 <0>        -0.1211
     15 C13         4.7185    1.8334   -1.0972 C.3       1 <0>         0.0857
     16 C14         5.1588    0.9208    0.0486 C.3       1 <0>        -0.1010
     17 C15         6.4651    0.2170   -0.3345 C.3       1 <0>        -0.1682
     18 C16         7.4821    1.2692   -0.7177 C.2       1 <0>         0.3596
     19 O3          8.5826    1.2768   -0.2205 O.2       1 <0>        -0.4453
     20 C17         7.0856    2.3112   -1.7401 C.3       1 <0>        -0.1676
     21 C18         5.7560    2.9376   -1.3068 C.3       1 <0>        -0.1064
     22 C19         4.5902    1.0418   -2.3316 C.1       1 <0>         0.2107
     23 N1          4.4912    0.4309   -3.2842 N.1       1 <0>        -0.4141
     24 H1         -1.3216    5.9098    0.4596 H         1 <0>         0.1020
     25 H2          0.3811    5.9491    0.9769 H         1 <0>         0.0569
     26 H3         -0.0243    6.0050   -0.7554 H         1 <0>         0.0562
     27 H4          1.9584    5.4783   -0.3114 H         1 <0>         0.1401
     28 H5          4.1285    4.4563   -0.8624 H         1 <0>         0.1382
     29 H6          2.3850    0.5737   -0.5900 H         1 <0>         0.1359
     30 H7          1.1851   -0.2037    0.4555 H         1 <0>         0.0754
     31 H8         -0.4980    0.0907   -2.0296 H         1 <0>         0.0807
     32 H9          1.1058   -0.6817   -1.8269 H         1 <0>         0.0687
     33 H10         0.1439   -2.6836   -0.8861 H         1 <0>         0.0698
     34 H11        -1.0698   -2.2500   -2.1327 H         1 <0>         0.0724
     35 H12        -1.8822   -2.5714    0.4167 H         1 <0>         0.0716
     36 H13        -2.5051   -1.1782   -0.5220 H         1 <0>         0.0706
     37 H14        -0.4452   -1.2359    1.6803 H         1 <0>         0.0782
     38 H15        -1.5949    0.0584    1.2401 H         1 <0>         0.0831
     39 H16         5.3157    1.5163    0.9480 H         1 <0>         0.0981
     40 H17         4.3867    0.1747    0.2364 H         1 <0>         0.0877
     41 H18         6.2991   -0.3968   -1.1063 H         1 <0>         0.0884
     42 H19         6.8360   -0.3591    0.5132 H         1 <0>         0.1020
     43 H20         6.9840    1.8778   -2.6356 H         1 <0>         0.0884
     44 H21         7.8529    3.0833   -1.7967 H         1 <0>         0.1024
     45 H22         5.4074    3.6219   -2.0803 H         1 <0>         0.0939
     46 H23         5.8985    3.4843   -0.3747 H         1 <0>         0.0993
@<TRIPOS>BOND
     1    1    2 1
     2    1   24 1
     3    1   25 1
     4    1   26 1
     5    2    3 1
     6    3    8 ar
     7    3    4 ar
     8    4    5 ar
     9    4   27 1
    10    5    6 ar
    11    5   28 1
    12    6    7 ar
    13    6   15 1
    14    7    8 ar
    15    7   29 1
    16    8    9 1
    17    9   10 1
    18   10   14 1
    19   10   11 1
    20   10   30 1
    21   11   12 1
    22   11   31 1
    23   11   32 1
    24   12   13 1
    25   12   33 1
    26   12   34 1
    27   13   14 1
    28   13   35 1
    29   13   36 1
    30   14   37 1
    31   14   38 1
    32   15   21 1
    33   15   16 1
    34   15   22 1
    35   16   17 1
    36   16   39 1
    37   16   40 1
    38   17   18 1
    39   17   41 1
    40   17   42 1
    41   18   19 2
    42   18   20 1
    43   20   21 1
    44   20   43 1
    45   20   44 1
    46   21   45 1
    47   21   46 1
    48   22   23 3
@<TRIPOS>MOLECULE
ZINC03781835
   37    40     0     0     0
SMALL
USER_CHARGES
8-amino-1,3-bis(cyclopropylmethyl)-7H-purine-2,6-dione
@<TRIPOS>ATOM
      1 C1         -4.9666   -1.0719    1.9277 C.3       1 <0>        -0.1940
      2 C2         -6.4774   -1.0630    1.6866 C.3       1 <0>        -0.1192
      3 C3         -5.6613    0.2137    1.4744 C.3       1 <0>        -0.1842
      4 C4         -5.4286    0.6719    0.0333 C.3       1 <0>         0.1228
      5 N1         -4.7368    1.9633    0.0372 N.am      1 <0>        -0.5084
      6 C5         -3.3519    2.0067    0.0296 C.2       1 <0>         0.3578
      7 C6         -2.7204    3.2458    0.0331 C.2       1 <0>        -0.1915
      8 C7         -3.5019    4.4146    0.0437 C.2       1 <0>         0.5924
      9 O1         -2.9699    5.5111    0.0461 O.2       1 <0>        -0.5261
     10 N2         -4.8469    4.3096    0.0506 N.am      1 <0>        -0.5490
     11 C8         -5.4473    3.1069    0.0477 C.2       1 <0>         0.7066
     12 O2         -6.6620    3.0505    0.0542 O.2       1 <0>        -0.5302
     13 C9         -5.6654    5.5245    0.0612 C.3       1 <0>         0.1206
     14 C10        -5.9428    5.9401    1.5073 C.3       1 <0>        -0.2627
     15 C11        -7.3979    5.9251    1.9799 C.3       1 <0>        -0.1221
     16 C12        -6.6873    7.2575    1.7333 C.3       1 <0>        -0.1155
     17 N3         -1.3558    2.9891    0.0302 N.pl3     1 <0>        -0.5735
     18 H1         -0.6392    3.8236    0.0383 H         1 <0>         0.4620
     19 C13        -1.2119    1.6375    0.0167 C.2       1 <0>         0.5802
     20 N4         -2.4014    1.0708    0.0197 N.2       1 <0>        -0.5460
     21 N5         -0.0111    0.9658    0.0074 N.pl3     1 <0>        -0.8466
     22 H2         -4.2092   -1.3611    1.1842 H         1 <0>         0.0978
     23 H3         -4.4803   -0.9028    2.8998 H         1 <0>         0.0886
     24 H4         -6.7277   -1.7914    0.9013 H         1 <0>         0.1051
     25 H5         -6.9988   -1.3331    2.6168 H         1 <0>         0.1023
     26 H6         -5.7158    1.2445    1.8544 H         1 <0>         0.1202
     27 H7         -4.8130   -0.0723   -0.4932 H         1 <0>         0.0935
     28 H8         -6.3963    0.7759   -0.4792 H         1 <0>         0.1040
     29 H9         -5.1281    6.3331   -0.4560 H         1 <0>         0.1004
     30 H10        -6.6179    5.3295   -0.4534 H         1 <0>         0.0951
     31 H11        -5.0010    5.5056    1.8736 H         1 <0>         0.1135
     32 H12        -8.0173    5.3928    1.2430 H         1 <0>         0.1084
     33 H13        -7.4627    5.4132    2.9514 H         1 <0>         0.0997
     34 H14        -6.1646    7.8470    2.5009 H         1 <0>         0.1030
     35 H15        -6.7193    7.8267    0.7926 H         1 <0>         0.1026
     36 H16         0.0038   -0.1340   -0.0034 H         1 <0>         0.4538
     37 H17         0.9340    1.5287    0.0107 H         1 <0>         0.4382
@<TRIPOS>BOND
     1    1    3 1
     2    1    2 1
     3    1   22 1
     4    1   23 1
     5    2    3 1
     6    2   24 1
     7    2   25 1
     8    3    4 1
     9    3   26 1
    10    4    5 1
    11    4   27 1
    12    4   28 1
    13    5   11 am
    14    5    6 1
    15    6   20 1
    16    6    7 2
    17    7    8 1
    18    7   17 1
    19    8    9 2
    20    8   10 am
    21   10   11 am
    22   10   13 1
    23   11   12 2
    24   13   14 1
    25   13   29 1
    26   13   30 1
    27   14   16 1
    28   14   15 1
    29   14   31 1
    30   15   16 1
    31   15   32 1
    32   15   33 1
    33   16   34 1
    34   16   35 1
    35   17   18 1
    36   17   19 1
    37   19   20 2
    38   19   21 1
    39   21   36 1
    40   21   37 1
@<TRIPOS>MOLECULE
ZINC00598965
   43    45     0     0     0
SMALL
USER_CHARGES
3-cyclopentoxy-N-(3,5-dichloro-4-pyridyl)-4-methoxy-benzamide
@<TRIPOS>ATOM
      1 C1          9.6941    5.2505   -0.4383 C.3       1 <0>         0.0223
      2 O1          8.5286    6.0007   -0.7860 O.3       1 <0>        -0.2989
      3 C2          7.3431    5.3385   -0.7746 C.ar      1 <0>         0.1325
      4 C3          7.3045    3.9929   -0.4347 C.ar      1 <0>        -0.1806
      5 C4          6.1035    3.3178   -0.4166 C.ar      1 <0>        -0.0791
      6 C5          4.9221    3.9847   -0.7510 C.ar      1 <0>        -0.1335
      7 C6          4.9607    5.3392   -1.0927 C.ar      1 <0>        -0.1127
      8 C7          6.1674    6.0114   -1.1038 C.ar      1 <0>         0.0992
      9 O2          6.2084    7.3297   -1.4354 O.3       1 <0>        -0.2923
     10 C8          4.9555    7.9917   -1.6195 C.3       1 <0>         0.0740
     11 C9          4.5596    7.9686   -3.1103 C.3       1 <0>        -0.1466
     12 C10         3.8906    9.3463   -3.3463 C.3       1 <0>        -0.1237
     13 C11         4.7525   10.2985   -2.4805 C.3       1 <0>        -0.1234
     14 C12         5.0777    9.4723   -1.2190 C.3       1 <0>        -0.1230
     15 C13         3.6357    3.2617   -0.7376 C.2       1 <0>         0.5534
     16 O3          2.6078    3.8446   -1.0241 O.2       1 <0>        -0.4848
     17 N1          3.6002    1.9554   -0.4079 N.am      1 <0>        -0.6654
     18 C14         2.3955    1.2532   -0.4672 C.ar      1 <0>         0.2115
     19 C15         2.0520    0.3365    0.5262 C.ar      1 <0>        -0.1092
     20 C16         0.8509   -0.3377    0.4303 C.ar      1 <0>         0.1361
     21 N2          0.0338   -0.1235   -0.5835 N.ar      1 <0>        -0.4618
     22 C17         0.3226    0.7354   -1.5429 C.ar      1 <0>         0.1370
     23 C18         1.5038    1.4499   -1.5213 C.ar      1 <0>        -0.0892
     24 Cl1         1.8740    2.5769   -2.7888 Cl        1 <0>        -0.0061
     25 Cl2         3.1192    0.0475    1.8645 Cl        1 <0>        -0.0347
     26 H1         10.5703    5.8971   -0.4870 H         1 <0>         0.1049
     27 H2          9.5864    4.8600    0.5736 H         1 <0>         0.0587
     28 H3          9.8146    4.4222   -1.1365 H         1 <0>         0.0587
     29 H4          8.2175    3.4752   -0.1800 H         1 <0>         0.1449
     30 H5          6.0758    2.2723   -0.1475 H         1 <0>         0.1294
     31 H6          4.0490    5.8593   -1.3472 H         1 <0>         0.1519
     32 H7          4.1851    7.5054   -1.0211 H         1 <0>         0.0798
     33 H8          5.4441    7.8616   -3.7383 H         1 <0>         0.0809
     34 H9          3.8527    7.1620   -3.3049 H         1 <0>         0.0720
     35 H10         2.8573    9.3378   -2.9993 H         1 <0>         0.0709
     36 H11         3.9436    9.6265   -4.3984 H         1 <0>         0.0727
     37 H12         4.1861   11.1914   -2.2163 H         1 <0>         0.0713
     38 H13         5.6684   10.5682   -3.0065 H         1 <0>         0.0704
     39 H14         4.3661    9.7048   -0.4267 H         1 <0>         0.0777
     40 H15         6.0928    9.6860   -0.8842 H         1 <0>         0.0823
     41 H16         4.4119    1.5033   -0.1293 H         1 <0>         0.4177
     42 H17         0.5745   -1.0461    1.1973 H         1 <0>         0.1776
     43 H18        -0.3741    0.8815   -2.3551 H         1 <0>         0.1772
@<TRIPOS>BOND
     1    1    2 1
     2    1   26 1
     3    1   27 1
     4    1   28 1
     5    2    3 1
     6    3    8 ar
     7    3    4 ar
     8    4    5 ar
     9    4   29 1
    10    5    6 ar
    11    5   30 1
    12    6    7 ar
    13    6   15 1
    14    7    8 ar
    15    7   31 1
    16    8    9 1
    17    9   10 1
    18   10   14 1
    19   10   11 1
    20   10   32 1
    21   11   12 1
    22   11   33 1
    23   11   34 1
    24   12   13 1
    25   12   35 1
    26   12   36 1
    27   13   14 1
    28   13   37 1
    29   13   38 1
    30   14   39 1
    31   14   40 1
    32   15   16 2
    33   15   17 am
    34   17   18 1
    35   17   41 1
    36   18   23 ar
    37   18   19 ar
    38   19   20 ar
    39   19   25 1
    40   20   21 ar
    41   20   42 1
    42   21   22 ar
    43   22   23 ar
    44   22   43 1
    45   23   24 1
@<TRIPOS>MOLECULE
ZINC00024222
   44    46     0     0     0
SMALL
USER_CHARGES

@<TRIPOS>ATOM
      1 C1         -2.6615    5.0372   -1.1948 C.3       1 <0>        -0.1450
      2 C2         -2.5568    4.1516    0.0485 C.3       1 <0>        -0.0636
      3 H1         -3.3756    3.4321    0.0520 H         1 <0>         0.0835
      4 C3         -2.6381    5.0229    1.3035 C.3       1 <0>         0.1403
      5 N1         -3.9621    5.6451    1.3812 N.am      1 <0>        -0.5306
      6 C4         -4.3183    6.8730    0.8438 C.2       1 <0>        -0.0110
      7 C5         -5.6005    7.0839    1.1207 C.2       1 <0>        -0.0139
      8 N2         -6.0652    5.9958    1.8445 N.am      1 <0>        -0.6416
      9 H2         -6.9662    5.8806    2.1850 H         1 <0>         0.4321
     10 C6         -5.0457    5.1271    1.9924 C.2       1 <0>         0.6473
     11 O1         -5.0952    4.0595    2.5764 O.2       1 <0>        -0.5723
     12 C7         -1.2417    3.4160    0.0319 C.ar      1 <0>        -0.0740
     13 C8         -0.0548    4.1250    0.0248 C.ar      1 <0>        -0.1117
     14 C9          1.1542    3.4548    0.0096 C.ar      1 <0>        -0.1691
     15 C10         1.1782    2.0694    0.0019 C.ar      1 <0>         0.0987
     16 C11        -0.0164    1.3557    0.0095 C.ar      1 <0>         0.1074
     17 C12        -1.2248    2.0337    0.0189 C.ar      1 <0>        -0.1647
     18 O2          0.0021   -0.0041    0.0020 O.3       1 <0>        -0.3001
     19 C13        -1.2622   -0.6701    0.0105 C.3       1 <0>         0.0899
     20 C14        -1.0412   -2.1840    0.0003 C.3       1 <0>        -0.1573
     21 C15        -1.5448   -2.9632   -1.2163 C.3       1 <0>        -0.1753
     22 C16        -2.2759   -3.0790    0.1235 C.3       1 <0>        -0.1692
     23 O3          2.3667    1.4085   -0.0135 O.3       1 <0>        -0.3061
     24 C17         3.5524    2.2061   -0.0205 C.3       1 <0>         0.0259
     25 H3         -2.6036    4.4165   -2.0889 H         1 <0>         0.0600
     26 H4         -3.6127    5.5693   -1.1828 H         1 <0>         0.0622
     27 H5         -1.8427    5.7567   -1.1983 H         1 <0>         0.0600
     28 H6         -2.4748    4.4046    2.1862 H         1 <0>         0.0929
     29 H7         -1.8741    5.7990    1.2572 H         1 <0>         0.0927
     30 H8         -3.6689    7.5389    0.2949 H         1 <0>         0.1800
     31 H9         -6.1777    7.9515    0.8367 H         1 <0>         0.1827
     32 H10        -0.0722    5.2048    0.0308 H         1 <0>         0.1273
     33 H11         2.0799    4.0110    0.0034 H         1 <0>         0.1365
     34 H12        -2.1534    1.4823    0.0199 H         1 <0>         0.1340
     35 H13        -1.8146   -0.3896    0.9073 H         1 <0>         0.0672
     36 H14        -1.8316   -0.3800   -0.8725 H         1 <0>         0.0629
     37 H15        -0.1211   -2.5280    0.4727 H         1 <0>         0.1174
     38 H16        -2.0335   -2.3973   -2.0094 H         1 <0>         0.0961
     39 H17        -0.9561   -3.8201   -1.5441 H         1 <0>         0.0988
     40 H18        -2.1681   -4.0120    0.6766 H         1 <0>         0.1016
     41 H19        -3.2457   -2.5893    0.2122 H         1 <0>         0.0972
     42 H20         3.5759    2.8301    0.8729 H         1 <0>         0.0551
     43 H21         4.4274    1.5561   -0.0327 H         1 <0>         0.1009
     44 H22         3.5585    2.8403   -0.9069 H         1 <0>         0.0549
@<TRIPOS>BOND
     1    1    2 1
     2    1   25 1
     3    1   26 1
     4    1   27 1
     5    2    3 1
     6    2    4 1
     7    2   12 1
     8    4    5 1
     9    4   28 1
    10    4   29 1
    11    5   10 am
    12    5    6 1
    13    6    7 2
    14    6   30 1
    15    7    8 1
    16    7   31 1
    17    8    9 1
    18    8   10 am
    19   10   11 2
    20   12   17 ar
    21   12   13 ar
    22   13   14 ar
    23   13   32 1
    24   14   15 ar
    25   14   33 1
    26   15   16 ar
    27   15   23 1
    28   16   17 ar
    29   16   18 1
    30   17   34 1
    31   18   19 1
    32   19   20 1
    33   19   35 1
    34   19   36 1
    35   20   22 1
    36   20   21 1
    37   20   37 1
    38   21   22 1
    39   21   38 1
    40   21   39 1
    41   22   40 1
    42   22   41 1
    43   23   24 1
    44   24   42 1
    45   24   43 1
    46   24   44 1
@<TRIPOS>MOLECULE
ZINC00005871
   49    51     0     0     0
SMALL
USER_CHARGES

@<TRIPOS>ATOM
      1 C1          0.1079    0.7491   -0.8546 C.3       1 <0>         0.0264
      2 O1          0.0281   -0.6547   -0.5994 O.3       1 <0>        -0.3084
      3 C2         -1.2035   -1.1640   -0.3287 C.ar      1 <0>         0.0957
      4 C3         -2.3113   -0.3317   -0.3149 C.ar      1 <0>        -0.1692
      5 C4         -3.5626   -0.8511   -0.0400 C.ar      1 <0>        -0.0999
      6 C5         -3.7121   -2.2004    0.2220 C.ar      1 <0>        -0.0655
      7 C6         -2.6109   -3.0361    0.2102 C.ar      1 <0>        -0.1604
      8 C7         -1.3548   -2.5230   -0.0707 C.ar      1 <0>         0.1029
      9 O2         -0.2714   -3.3448   -0.0886 O.3       1 <0>        -0.2974
     10 C8         -0.5151   -4.7433    0.0747 C.3       1 <0>         0.0770
     11 C9         -0.5586   -5.1005    1.5748 C.3       1 <0>        -0.1494
     12 C10         0.1177   -6.4918    1.6537 C.3       1 <0>        -0.1233
     13 C11         1.2587   -6.3767    0.6126 C.3       1 <0>        -0.1220
     14 C12         0.6403   -5.5547   -0.5371 C.3       1 <0>        -0.1200
     15 C13        -5.0784   -2.7612    0.5216 C.3       1 <0>         0.0810
     16 C14        -5.4323   -3.8253   -0.5192 C.3       1 <0>        -0.0974
     17 C15        -6.8195   -4.3947   -0.2151 C.3       1 <0>        -0.0932
     18 C16        -7.8547   -3.2692   -0.2641 C.3       1 <0>        -0.1638
     19 C17        -7.5008   -2.2051    0.7768 C.3       1 <0>        -0.0930
     20 C18        -6.1136   -1.6357    0.4726 C.3       1 <0>        -0.1048
     21 C19        -7.8567   -2.6479   -1.6370 C.2       1 <0>         0.5018
     22 O3         -7.5851   -3.3258   -2.6133 O.co2     1 <0>        -0.6970
     23 O4         -8.1299   -1.4673   -1.7715 O.co2     1 <0>        -0.6973
     24 C20        -5.0764   -3.3681    1.8626 C.1       1 <0>         0.2377
     25 N1         -5.0749   -3.8365    2.8976 N.1       1 <0>        -0.4510
     26 H1          1.1434    1.0235   -1.0556 H         1 <0>         0.0967
     27 H2         -0.5080    0.9968   -1.7192 H         1 <0>         0.0556
     28 H3         -0.2509    1.2977    0.0162 H         1 <0>         0.0533
     29 H4         -2.1971    0.7227   -0.5185 H         1 <0>         0.1368
     30 H5         -4.4252   -0.2014   -0.0295 H         1 <0>         0.1410
     31 H6         -2.7304   -4.0896    0.4156 H         1 <0>         0.1340
     32 H7         -1.4565   -5.0161   -0.4023 H         1 <0>         0.0773
     33 H8          0.0026   -4.3700    2.1573 H         1 <0>         0.0789
     34 H9         -1.5897   -5.1572    1.9237 H         1 <0>         0.0703
     35 H10         0.5209   -6.6693    2.6507 H         1 <0>         0.0696
     36 H11        -0.5830   -7.2783    1.3736 H         1 <0>         0.0700
     37 H12         2.1134   -5.8522    1.0398 H         1 <0>         0.0683
     38 H13         1.5538   -7.3648    0.2593 H         1 <0>         0.0688
     39 H14         0.2596   -6.2220   -1.3104 H         1 <0>         0.0773
     40 H15         1.3870   -4.8818   -0.9585 H         1 <0>         0.0813
     41 H16        -5.4338   -3.3759   -1.5123 H         1 <0>         0.1008
     42 H17        -4.6948   -4.6271   -0.4844 H         1 <0>         0.0571
     43 H18        -7.0716   -5.1528   -0.9566 H         1 <0>         0.0730
     44 H19        -6.8180   -4.8441    0.7779 H         1 <0>         0.0389
     45 H20        -8.8429   -3.6749   -0.0474 H         1 <0>         0.0633
     46 H21        -8.2383   -1.4033    0.7419 H         1 <0>         0.0731
     47 H22        -7.4993   -2.6545    1.7698 H         1 <0>         0.0387
     48 H23        -5.8615   -0.8776    1.2141 H         1 <0>         0.0624
     49 H24        -6.1151   -1.1863   -0.5204 H         1 <0>         0.1038
@<TRIPOS>BOND
     1    1    2 1
     2    1   26 1
     3    1   27 1
     4    1   28 1
     5    2    3 1
     6    3    8 ar
     7    3    4 ar
     8    4    5 ar
     9    4   29 1
    10    5    6 ar
    11    5   30 1
    12    6    7 ar
    13    6   15 1
    14    7    8 ar
    15    7   31 1
    16    8    9 1
    17    9   10 1
    18   10   14 1
    19   10   11 1
    20   10   32 1
    21   11   12 1
    22   11   33 1
    23   11   34 1
    24   12   13 1
    25   12   35 1
    26   12   36 1
    27   13   14 1
    28   13   37 1
    29   13   38 1
    30   14   39 1
    31   14   40 1
    32   15   20 1
    33   15   16 1
    34   15   24 1
    35   16   17 1
    36   16   41 1
    37   16   42 1
    38   17   18 1
    39   17   43 1
    40   17   44 1
    41   18   19 1
    42   18   21 1
    43   18   45 1
    44   19   20 1
    45   19   46 1
    46   19   47 1
    47   20   48 1
    48   20   49 1
    49   21   22 2
    50   21   23 1
    51   24   25 3
@<TRIPOS>MOLECULE
ZINC00004982
   41    43     0     0     0
SMALL
USER_CHARGES

@<TRIPOS>ATOM
      1 C1          0.5684    1.3813    0.2968 C.3       1 <0>         0.0255
      2 O1          0.3927   -0.0330    0.1934 O.3       1 <0>        -0.3057
      3 C2          0.7874   -0.6210   -0.9677 C.ar      1 <0>         0.0999
      4 C3          1.3368    0.1460   -1.9826 C.ar      1 <0>        -0.1683
      5 C4          1.7379   -0.4533   -3.1620 C.ar      1 <0>        -0.1118
      6 C5          1.5917   -1.8175   -3.3324 C.ar      1 <0>        -0.0754
      7 C6          1.0438   -2.5883   -2.3241 C.ar      1 <0>        -0.1639
      8 C7          0.6455   -1.9949   -1.1370 C.ar      1 <0>         0.1082
      9 O2          0.1119   -2.7526   -0.1417 O.3       1 <0>        -0.2957
     10 C8          0.1029   -4.1681   -0.3377 C.3       1 <0>         0.0783
     11 C9         -1.1687   -4.5874   -1.1040 C.3       1 <0>        -0.1488
     12 C10        -1.5683   -5.9405   -0.4650 C.3       1 <0>        -0.1241
     13 C11        -1.2445   -5.7198    1.0335 C.3       1 <0>        -0.1241
     14 C12         0.0547   -4.8881    1.0213 C.3       1 <0>        -0.1219
     15 C13         2.0301   -2.4655   -4.6204 C.3       1 <0>        -0.0563
     16 H1          1.8368   -3.5381   -4.6006 H         1 <0>         0.1000
     17 C14         1.3426   -1.8017   -5.8359 C.3       1 <0>        -0.1504
     18 C15         2.4091   -1.7972   -6.9087 C.2       1 <0>         0.5187
     19 O3          2.2042   -1.6224   -8.0913 O.2       1 <0>        -0.5316
     20 N1          3.6171   -2.0147   -6.3606 N.am      1 <0>        -0.7338
     21 C16         3.5210   -2.1776   -4.9046 C.3       1 <0>         0.1066
     22 H2          1.6254    1.6250    0.1896 H         1 <0>         0.0553
     23 H3         -0.0002    1.8766   -0.4903 H         1 <0>         0.0555
     24 H4          0.2140    1.7213    1.2699 H         1 <0>         0.1015
     25 H5          1.4515    1.2119   -1.8523 H         1 <0>         0.1366
     26 H6          2.1660    0.1456   -3.9522 H         1 <0>         0.1272
     27 H7          0.9304   -3.6537   -2.4598 H         1 <0>         0.1375
     28 H8          0.9909   -4.4738   -0.8910 H         1 <0>         0.0759
     29 H9         -1.9594   -3.8506   -0.9629 H         1 <0>         0.0806
     30 H10        -0.9503   -4.7158   -2.1641 H         1 <0>         0.0710
     31 H11        -2.6315   -6.1352   -0.6059 H         1 <0>         0.0722
     32 H12        -0.9681   -6.7532   -0.8743 H         1 <0>         0.0701
     33 H13        -2.0475   -5.1659    1.5198 H         1 <0>         0.0703
     34 H14        -1.0814   -6.6747    1.5332 H         1 <0>         0.0710
     35 H15         0.9189   -5.5439    1.1272 H         1 <0>         0.0774
     36 H16         0.0382   -4.1579    1.8303 H         1 <0>         0.0823
     37 H17         0.4823   -2.3897   -6.1557 H         1 <0>         0.1062
     38 H18         1.0407   -0.7827   -5.5939 H         1 <0>         0.1096
     39 H19         4.4459   -2.0590   -6.8626 H         1 <0>         0.4120
     40 H20         3.8309   -1.2616   -4.4015 H         1 <0>         0.0783
     41 H21         4.1362   -3.0155   -4.5767 H         1 <0>         0.0842
@<TRIPOS>BOND
     1    1    2 1
     2    1   22 1
     3    1   23 1
     4    1   24 1
     5    2    3 1
     6    3    8 ar
     7    3    4 ar
     8    4    5 ar
     9    4   25 1
    10    5    6 ar
    11    5   26 1
    12    6    7 ar
    13    6   15 1
    14    7    8 ar
    15    7   27 1
    16    8    9 1
    17    9   10 1
    18   10   14 1
    19   10   11 1
    20   10   28 1
    21   11   12 1
    22   11   29 1
    23   11   30 1
    24   12   13 1
    25   12   31 1
    26   12   32 1
    27   13   14 1
    28   13   33 1
    29   13   34 1
    30   14   35 1
    31   14   36 1
    32   15   16 1
    33   15   21 1
    34   15   17 1
    35   17   18 1
    36   17   37 1
    37   17   38 1
    38   18   19 2
    39   18   20 am
    40   20   21 1
    41   20   39 1
    42   21   40 1
    43   21   41 1
@<TRIPOS>MOLECULE
ZINC02000919
   41    43     0     0     0
SMALL
USER_CHARGES

@<TRIPOS>ATOM
      1 C1          0.5684    1.3813    0.2968 C.3       1 <0>         0.0255
      2 O1          0.3927   -0.0330    0.1934 O.3       1 <0>        -0.3057
      3 C2          0.7874   -0.6210   -0.9677 C.ar      1 <0>         0.0999
      4 C3          1.3368    0.1460   -1.9826 C.ar      1 <0>        -0.1683
      5 C4          1.7379   -0.4533   -3.1620 C.ar      1 <0>        -0.1118
      6 C5          1.5917   -1.8175   -3.3324 C.ar      1 <0>        -0.0754
      7 C6          1.0438   -2.5883   -2.3241 C.ar      1 <0>        -0.1640
      8 C7          0.6455   -1.9949   -1.1370 C.ar      1 <0>         0.1082
      9 O2          0.1119   -2.7526   -0.1417 O.3       1 <0>        -0.2956
     10 C8          0.1029   -4.1681   -0.3377 C.3       1 <0>         0.0781
     11 C9         -1.1687   -4.5874   -1.1040 C.3       1 <0>        -0.1484
     12 C10        -1.5683   -5.9405   -0.4650 C.3       1 <0>        -0.1242
     13 C11        -1.2445   -5.7198    1.0335 C.3       1 <0>        -0.1240
     14 C12         0.0547   -4.8881    1.0213 C.3       1 <0>        -0.1221
     15 C13         2.0301   -2.4655   -4.6204 C.3       1 <0>        -0.0563
     16 H1          1.8596   -3.5417   -4.5910 H         1 <0>         0.1000
     17 C14         3.5130   -2.1483   -4.9227 C.3       1 <0>        -0.1506
     18 C15         3.5576   -1.9806   -6.4255 C.2       1 <0>         0.5187
     19 O3          4.5674   -2.0006   -7.0970 O.2       1 <0>        -0.5316
     20 N1          2.3152   -1.8068   -6.9084 N.am      1 <0>        -0.7338
     21 C16         1.3168   -1.8256   -5.8320 C.3       1 <0>         0.1067
     22 H2          1.6254    1.6250    0.1896 H         1 <0>         0.0555
     23 H3         -0.0002    1.8766   -0.4903 H         1 <0>         0.0553
     24 H4          0.2140    1.7213    1.2699 H         1 <0>         0.1015
     25 H5          1.4515    1.2119   -1.8523 H         1 <0>         0.1366
     26 H6          2.1660    0.1456   -3.9522 H         1 <0>         0.1272
     27 H7          0.9304   -3.6537   -2.4598 H         1 <0>         0.1374
     28 H8          0.9909   -4.4738   -0.8910 H         1 <0>         0.0760
     29 H9         -1.9594   -3.8506   -0.9629 H         1 <0>         0.0805
     30 H10        -0.9503   -4.7158   -2.1641 H         1 <0>         0.0708
     31 H11        -2.6315   -6.1352   -0.6059 H         1 <0>         0.0721
     32 H12        -0.9681   -6.7532   -0.8743 H         1 <0>         0.0702
     33 H13        -2.0475   -5.1659    1.5198 H         1 <0>         0.0703
     34 H14        -1.0814   -6.6747    1.5332 H         1 <0>         0.0710
     35 H15         0.9189   -5.5439    1.1272 H         1 <0>         0.0776
     36 H16         0.0382   -4.1579    1.8303 H         1 <0>         0.0823
     37 H17         3.8145   -1.2257   -4.4268 H         1 <0>         0.1096
     38 H18         4.1511   -2.9756   -4.6120 H         1 <0>         0.1061
     39 H19         2.1051   -1.6852   -7.8475 H         1 <0>         0.4120
     40 H20         0.4568   -2.4279   -6.1248 H         1 <0>         0.0843
     41 H21         1.0026   -0.8100   -5.5915 H         1 <0>         0.0783
@<TRIPOS>BOND
     1    1    2 1
     2    1   22 1
     3    1   23 1
     4    1   24 1
     5    2    3 1
     6    3    8 ar
     7    3    4 ar
     8    4    5 ar
     9    4   25 1
    10    5    6 ar
    11    5   26 1
    12    6    7 ar
    13    6   15 1
    14    7    8 ar
    15    7   27 1
    16    8    9 1
    17    9   10 1
    18   10   14 1
    19   10   11 1
    20   10   28 1
    21   11   12 1
    22   11   29 1
    23   11   30 1
    24   12   13 1
    25   12   31 1
    26   12   32 1
    27   13   14 1
    28   13   33 1
    29   13   34 1
    30   14   35 1
    31   14   36 1
    32   15   16 1
    33   15   21 1
    34   15   17 1
    35   17   18 1
    36   17   37 1
    37   17   38 1
    38   18   19 2
    39   18   20 am
    40   20   21 1
    41   20   39 1
    42   21   40 1
    43   21   41 1
@<TRIPOS>MOLECULE
ZINC00274067
   41    44     0     0     0
SMALL
USER_CHARGES

@<TRIPOS>ATOM
      1 C1         -0.0167    1.3781    0.0096 C.ar      1 <0>        -0.1087
      2 C2          1.1709    2.0855    0.0021 C.ar      1 <0>        -0.1216
      3 C3          2.3773    1.4107   -0.0130 C.ar      1 <0>        -0.0989
      4 C4          2.3960    0.0285   -0.0201 C.ar      1 <0>        -0.1165
      5 C5          1.2084   -0.6789   -0.0117 C.ar      1 <0>        -0.0989
      6 C6          0.0021   -0.0041    0.0020 C.ar      1 <0>        -0.1216
      7 C7          3.7112   -0.7071   -0.0376 C.3       1 <0>         0.1696
      8 N1          4.1518   -0.9524    1.3379 N.pl3     1 <0>        -0.6924
      9 C8          5.3374   -1.6154    1.5741 C.ar      1 <0>         0.4791
     10 C9          5.7780   -1.8675    2.8978 C.ar      1 <0>        -0.2014
     11 C10         5.0407   -1.4612    4.0149 C.ar      1 <0>        -0.0684
     12 C11         5.5124   -1.7308    5.2662 C.ar      1 <0>        -0.1356
     13 C12         6.7171   -2.4045    5.4465 C.ar      1 <0>        -0.0729
     14 C13         7.4596   -2.8135    4.3791 C.ar      1 <0>        -0.1110
     15 C14         7.0043   -2.5534    3.0786 C.ar      1 <0>         0.1940
     16 N2          7.6962   -2.9352    1.9965 N.ar      1 <0>        -0.5459
     17 C15         7.2403   -2.6750    0.7856 C.ar      1 <0>         0.4146
     18 N3          6.0909   -2.0377    0.5703 N.ar      1 <0>        -0.5879
     19 C16         8.0383   -3.1157   -0.3839 C.ar      1 <0>        -0.0492
     20 C17         7.5889   -2.8522   -1.6769 C.ar      1 <0>        -0.0689
     21 C18         8.3357   -3.2648   -2.7615 C.ar      1 <0>        -0.1336
     22 C19         9.5282   -3.9386   -2.5676 C.ar      1 <0>        -0.0990
     23 C20         9.9791   -4.2028   -1.2868 C.ar      1 <0>        -0.1326
     24 C21         9.2435   -3.7900   -0.1945 C.ar      1 <0>        -0.0682
     25 H1         -0.9591    1.9053    0.0259 H         1 <0>         0.1248
     26 H2          1.1563    3.1654    0.0076 H         1 <0>         0.1255
     27 H3          3.3051    1.9634   -0.0196 H         1 <0>         0.1242
     28 H4          1.2231   -1.7588   -0.0176 H         1 <0>         0.1242
     29 H5         -0.9258   -0.5567    0.0082 H         1 <0>         0.1255
     30 H6          3.5884   -1.6586   -0.5549 H         1 <0>         0.0807
     31 H7          4.4573   -0.1052   -0.5563 H         1 <0>         0.0808
     32 H8          3.6095   -0.6484    2.0824 H         1 <0>         0.4127
     33 H9          4.1048   -0.9374    3.8876 H         1 <0>         0.1240
     34 H10         4.9434   -1.4168    6.1289 H         1 <0>         0.1300
     35 H11         7.0690   -2.6060    6.4475 H         1 <0>         0.1334
     36 H12         8.3926   -3.3350    4.5340 H         1 <0>         0.1399
     37 H13         6.6578   -2.3266   -1.8295 H         1 <0>         0.1348
     38 H14         7.9883   -3.0615   -3.7637 H         1 <0>         0.1266
     39 H15        10.1092   -4.2599   -3.4194 H         1 <0>         0.1245
     40 H16        10.9106   -4.7295   -1.1413 H         1 <0>         0.1273
     41 H17         9.5987   -3.9929    0.8050 H         1 <0>         0.1369
@<TRIPOS>BOND
     1    1    6 ar
     2    1    2 ar
     3    1   25 1
     4    2    3 ar
     5    2   26 1
     6    3    4 ar
     7    3   27 1
     8    4    5 ar
     9    4    7 1
    10    5    6 ar
    11    5   28 1
    12    6   29 1
    13    7    8 1
    14    7   30 1
    15    7   31 1
    16    8    9 1
    17    8   32 1
    18    9   18 ar
    19    9   10 ar
    20   10   15 ar
    21   10   11 ar
    22   11   12 ar
    23   11   33 1
    24   12   13 ar
    25   12   34 1
    26   13   14 ar
    27   13   35 1
    28   14   15 ar
    29   14   36 1
    30   15   16 ar
    31   16   17 ar
    32   17   18 ar
    33   17   19 1
    34   19   24 ar
    35   19   20 ar
    36   20   21 ar
    37   20   37 1
    38   21   22 ar
    39   21   38 1
    40   22   23 ar
    41   22   39 1
    42   23   24 ar
    43   23   40 1
    44   24   41 1
