@<TRIPOS>MOLECULE
ZINC43206679
   38    40     0     0     0
SMALL
USER_CHARGES

@<TRIPOS>ATOM
      1 C1          0.0575    1.6813    0.0331 C.3       1 <0>        -0.1497
      2 C2          0.1730    0.1560    0.0005 C.3       1 <0>        -0.1129
      3 C3         -1.2268   -0.4611   -0.0221 C.3       1 <0>        -0.0381
      4 C4         -1.1130   -1.9635   -0.0543 C.2       1 <0>         0.2508
      5 N1         -1.0431   -2.6950   -1.1385 N.2       1 <0>        -0.4634
      6 C5         -0.9494   -3.9849   -0.8101 C.2       1 <0>         0.0841
      7 C6         -0.9614   -4.0646    0.5648 C.2       1 <0>        -0.0770
      8 N2         -1.0613   -2.7631    1.0259 N.pl3     1 <0>        -0.3727
      9 C7         -1.0896   -2.5399    2.3928 C.ar      1 <0>         0.3305
     10 C8         -1.0129   -3.6413    3.2624 C.ar      1 <0>         0.0219
     11 C9         -1.0414   -3.4175    4.6464 C.ar      1 <0>         0.0059
     12 C10        -1.1441   -2.1174    5.0975 C.ar      1 <0>        -0.1761
     13 C11        -1.2157   -1.0766    4.1759 C.ar      1 <0>         0.3580
     14 N3         -1.1867   -1.3112    2.8754 N.ar      1 <0>        -0.5431
     15 O1         -1.3172    0.2010    4.6204 O.3       1 <0>        -0.2954
     16 C12        -1.3872    1.2288    3.6300 C.3       1 <0>         0.0339
     17 N4         -0.9123   -4.9030    2.7714 N.2       1 <0>        -0.4748
     18 C13        -0.8925   -5.1315    1.4848 C.2       1 <0>         0.2429
     19 C14        -0.7784   -6.5467    0.9797 C.3       1 <0>        -0.1058
     20 C15        -0.8495   -5.1433   -1.7688 C.3       1 <0>        -0.0782
     21 H1          1.0547    2.1210    0.0493 H         1 <0>         0.0586
     22 H2         -0.4765    2.0243   -0.8530 H         1 <0>         0.0595
     23 H3         -0.4881    1.9853    0.9265 H         1 <0>         0.0545
     24 H4          0.7186   -0.1480   -0.8928 H         1 <0>         0.0683
     25 H5          0.7071   -0.1869    0.8867 H         1 <0>         0.0578
     26 H6         -1.7724   -0.1571    0.8712 H         1 <0>         0.0936
     27 H7         -1.7608   -0.1181   -0.9083 H         1 <0>         0.0970
     28 H8         -0.9847   -4.2419    5.3418 H         1 <0>         0.1661
     29 H9         -1.1690   -1.9091    6.1570 H         1 <0>         0.1606
     30 H10        -1.4656    2.1998    4.1189 H         1 <0>         0.1034
     31 H11        -0.4874    1.2030    3.0154 H         1 <0>         0.0638
     32 H12        -2.2621    1.0674    3.0002 H         1 <0>         0.0614
     33 H13         0.0831   -6.6275    0.3168 H         1 <0>         0.0905
     34 H14        -0.6522   -7.2247    1.8237 H         1 <0>         0.0895
     35 H15        -1.6835   -6.8115    0.4331 H         1 <0>         0.0914
     36 H16         0.1982   -5.4088   -1.9099 H         1 <0>         0.0811
     37 H17        -1.3895   -5.9986   -1.3627 H         1 <0>         0.0808
     38 H18        -1.2849   -4.8604   -2.7271 H         1 <0>         0.0813
@<TRIPOS>BOND
     1    1    2 1
     2    1   21 1
     3    1   22 1
     4    1   23 1
     5    2    3 1
     6    2   24 1
     7    2   25 1
     8    3    4 1
     9    3   26 1
    10    3   27 1
    11    4    8 1
    12    4    5 2
    13    5    6 1
    14    6    7 2
    15    6   20 1
    16    7   18 1
    17    7    8 1
    18    8    9 1
    19    9   14 ar
    20    9   10 ar
    21   10   11 ar
    22   10   17 1
    23   11   12 ar
    24   11   28 1
    25   12   13 ar
    26   12   29 1
    27   13   14 ar
    28   13   15 1
    29   15   16 1
    30   16   30 1
    31   16   31 1
    32   16   32 1
    33   17   18 2
    34   18   19 1
    35   19   33 1
    36   19   34 1
    37   19   35 1
    38   20   36 1
    39   20   37 1
    40   20   38 1
@<TRIPOS>MOLECULE
ZINC03861807
   30    31     0     0     0
SMALL
USER_CHARGES

@<TRIPOS>ATOM
      1 C1         -0.0187    1.5258    0.0104 C.3       1 <0>        -0.1415
      2 C2          0.0021   -0.0041    0.0020 C.3       1 <0>        -0.1122
      3 C3          0.7421   -0.5109    1.2415 C.3       1 <0>        -0.1434
      4 C4         -1.4333   -0.5336    0.0129 C.3       1 <0>         0.1228
      5 N1         -2.1054   -0.1483   -1.2305 N.am      1 <0>        -0.5064
      6 C5         -2.7896    1.0542   -1.3029 C.2       1 <0>         0.3270
      7 C6         -3.4188    1.3971   -2.4931 C.2       1 <0>        -0.1566
      8 C7         -3.3428    0.5129   -3.5907 C.2       1 <0>         0.5930
      9 O1         -3.8857    0.7913   -4.6449 O.2       1 <0>        -0.5148
     10 N2         -2.6613   -0.6442   -3.4587 N.am      1 <0>        -0.5518
     11 C8         -2.0526   -0.9608   -2.3028 C.2       1 <0>         0.7063
     12 O2         -1.4428   -2.0098   -2.2221 O.2       1 <0>        -0.5287
     13 C9         -2.5785   -1.5664   -4.5940 C.3       1 <0>         0.0827
     14 N3         -4.0103    2.6257   -2.2774 N.pl3     1 <0>        -0.5187
     15 H1         -4.5284    3.1372   -2.9183 H         1 <0>         0.4381
     16 C10        -3.7321    2.9790   -1.0073 C.2       1 <0>         0.2767
     17 N4         -3.0113    2.0471   -0.4377 N.2       1 <0>        -0.4957
     18 H2          1.0039    1.9031    0.0027 H         1 <0>         0.0532
     19 H3         -0.5459    1.8868   -0.8726 H         1 <0>         0.0473
     20 H4         -0.5289    1.8773    0.9072 H         1 <0>         0.0653
     21 H5          0.5123   -0.3556   -0.8948 H         1 <0>         0.0742
     22 H6          0.2319   -0.1594    2.1383 H         1 <0>         0.0596
     23 H7          0.7568   -1.6008    1.2356 H         1 <0>         0.0591
     24 H8          1.7647   -0.1336    1.2338 H         1 <0>         0.0613
     25 H9         -1.4190   -1.6203    0.0965 H         1 <0>         0.1003
     26 H10        -1.9701   -0.1109    0.8621 H         1 <0>         0.1000
     27 H11        -3.1215   -1.1486   -5.4417 H         1 <0>         0.1034
     28 H12        -1.5337   -1.7124   -4.8680 H         1 <0>         0.0826
     29 H13        -3.0188   -2.5242   -4.3168 H         1 <0>         0.0828
     30 H14        -4.0547    3.8934   -0.5315 H         1 <0>         0.2343
@<TRIPOS>BOND
     1    1    2 1
     2    1   18 1
     3    1   19 1
     4    1   20 1
     5    2    3 1
     6    2    4 1
     7    2   21 1
     8    3   22 1
     9    3   23 1
    10    3   24 1
    11    4    5 1
    12    4   25 1
    13    4   26 1
    14    5   11 am
    15    5    6 1
    16    6   17 1
    17    6    7 2
    18    7    8 1
    19    7   14 1
    20    8    9 2
    21    8   10 am
    22   10   11 am
    23   10   13 1
    24   11   12 2
    25   13   27 1
    26   13   28 1
    27   13   29 1
    28   14   15 1
    29   14   16 1
    30   16   17 2
    31   16   30 1
@<TRIPOS>MOLECULE
ZINC00643046
   76    79     0     0     0
SMALL
USER_CHARGES

@<TRIPOS>ATOM
      1 C1          0.4883    2.4897    1.2990 C.3       1 <0>        -0.1142
      2 C2          1.1580    2.1388    2.6297 C.3       1 <0>        -0.1362
      3 C3          1.3103    0.6181    2.7347 C.3       1 <0>         0.1570
      4 N1          2.0305    0.1319    1.5500 N.pl3     1 <0>        -0.6468
      5 C4          1.5224    0.4890    0.2185 C.3       1 <0>         0.1574
      6 C5          1.3678    2.0112    0.1416 C.3       1 <0>        -0.1364
      7 C6          3.1637   -0.6453    1.6854 C.ar      1 <0>         0.5085
      8 C7          3.0733   -2.0580    1.7467 C.ar      1 <0>         0.0614
      9 C8          4.2673   -2.7976    1.8855 C.ar      1 <0>         0.0615
     10 C9          4.1770   -4.2103    1.9469 C.ar      1 <0>         0.5084
     11 N2          2.9771   -4.7656    1.8709 N.ar      1 <0>        -0.5394
     12 C10         1.8782   -4.0279    1.7403 C.ar      1 <0>         0.5543
     13 N3          1.9084   -2.7098    1.6788 N.ar      1 <0>        -0.5235
     14 N4          0.6525   -4.6689    1.6658 N.pl3     1 <0>        -0.5657
     15 C11        -0.5766   -3.8848    1.5217 C.3       1 <0>         0.1412
     16 C12        -0.8807   -3.6815    0.0361 C.3       1 <0>         0.0611
     17 O1         -1.1650   -4.9445   -0.5691 O.3       1 <0>        -0.5712
     18 C13         0.5852   -6.1309    1.7310 C.3       1 <0>         0.1388
     19 C14         0.4380   -6.5701    3.1892 C.3       1 <0>         0.0609
     20 O2         -0.8147   -6.1108    3.7009 O.3       1 <0>        -0.5703
     21 N5          5.3102   -4.9876    2.0819 N.pl3     1 <0>        -0.6466
     22 C15         5.8166   -5.3477    3.4132 C.3       1 <0>         0.1569
     23 C16         5.9722   -6.8700    3.4864 C.3       1 <0>        -0.1363
     24 C17         6.8536   -7.3449    2.3290 C.3       1 <0>        -0.1141
     25 C18         6.1855   -6.9910    0.9983 C.3       1 <0>        -0.1368
     26 C19         6.0290   -5.4752    0.8969 C.3       1 <0>         0.1575
     27 N6          5.4322   -2.1458    1.9543 N.ar      1 <0>        -0.5233
     28 C20         5.4623   -0.8277    1.8928 C.ar      1 <0>         0.5543
     29 N7          4.3640   -0.0904    1.7559 N.ar      1 <0>        -0.5392
     30 N8          6.6881   -0.1867    1.9678 N.pl3     1 <0>        -0.5657
     31 C21         7.9171   -0.9709    2.1123 C.3       1 <0>         0.1413
     32 C22         8.4692   -1.3136    0.7271 C.3       1 <0>         0.0611
     33 O3          8.8633   -0.1124    0.0609 O.3       1 <0>        -0.5711
     34 C23         6.7554    1.2753    1.9026 C.3       1 <0>         0.1387
     35 C24         6.6545    1.8540    3.3153 C.3       1 <0>         0.0609
     36 O4          7.7974    1.4565    4.0756 O.3       1 <0>        -0.5703
     37 H1         -0.4844    2.0011    1.2421 H         1 <0>         0.0624
     38 H2          0.3565    3.5696    1.2325 H         1 <0>         0.0610
     39 H3          2.1412    2.6070    2.6767 H         1 <0>         0.0658
     40 H4          0.5425    2.5006    3.4533 H         1 <0>         0.0687
     41 H5          1.8745    0.3686    3.6333 H         1 <0>         0.0616
     42 H6          0.3248    0.1544    2.7790 H         1 <0>         0.0608
     43 H7          2.2266    0.1543   -0.5432 H         1 <0>         0.0616
     44 H8          0.5542    0.0148    0.0576 H         1 <0>         0.0598
     45 H9          0.9016    2.2821   -0.8057 H         1 <0>         0.0686
     46 H10         2.3490    2.4805    0.2121 H         1 <0>         0.0663
     47 H11        -1.4038   -4.4160    1.9926 H         1 <0>         0.0919
     48 H12        -0.4472   -2.9149    2.0021 H         1 <0>         0.0972
     49 H13        -1.7438   -3.0246   -0.0716 H         1 <0>         0.0528
     50 H14        -0.0175   -3.2303   -0.4531 H         1 <0>         0.0456
     51 H15        -1.3673   -4.8916   -1.5132 H         1 <0>         0.3764
     52 H16        -0.2732   -6.4810    1.1577 H         1 <0>         0.0932
     53 H17         1.4983   -6.5556    1.3140 H         1 <0>         0.0953
     54 H18         0.4771   -7.6579    3.2467 H         1 <0>         0.0527
     55 H19         1.2495   -6.1456    3.7802 H         1 <0>         0.0445
     56 H20        -0.9758   -6.3537    4.6229 H         1 <0>         0.3766
     57 H21         6.7842   -4.8733    3.5767 H         1 <0>         0.0609
     58 H22         5.1111   -5.0155    4.1748 H         1 <0>         0.0615
     59 H23         6.4372   -7.1430    4.4336 H         1 <0>         0.0688
     60 H24         4.9913   -7.3398    3.4133 H         1 <0>         0.0658
     61 H25         7.8259   -6.8558    2.3885 H         1 <0>         0.0624
     62 H26         6.9861   -8.4249    2.3929 H         1 <0>         0.0611
     63 H27         6.8025   -7.3503    0.1746 H         1 <0>         0.0691
     64 H28         5.2027   -7.4597    0.9486 H         1 <0>         0.0661
     65 H29         5.4635   -5.2271   -0.0013 H         1 <0>         0.0615
     66 H30         7.0143   -5.0114    0.8506 H         1 <0>         0.0595
     67 H31         8.6559   -0.3900    2.6644 H         1 <0>         0.0919
     68 H32         7.6994   -1.8910    2.6545 H         1 <0>         0.0972
     69 H33         9.3325   -1.9706    0.8325 H         1 <0>         0.0527
     70 H34         7.6986   -1.8169    0.1432 H         1 <0>         0.0456
     71 H35         9.2237   -0.2542   -0.8252 H         1 <0>         0.3764
     72 H36         7.7021    1.5757    1.4536 H         1 <0>         0.0932
     73 H37         5.9306    1.6503    1.2966 H         1 <0>         0.0954
     74 H38         6.6152    2.9419    3.2604 H         1 <0>         0.0528
     75 H39         5.7504    1.4816    3.7968 H         1 <0>         0.0444
     76 H40         7.8004    1.7883    4.9839 H         1 <0>         0.3766
@<TRIPOS>BOND
     1    1    6 1
     2    1    2 1
     3    1   37 1
     4    1   38 1
     5    2    3 1
     6    2   39 1
     7    2   40 1
     8    3    4 1
     9    3   41 1
    10    3   42 1
    11    4    5 1
    12    4    7 1
    13    5    6 1
    14    5   43 1
    15    5   44 1
    16    6   45 1
    17    6   46 1
    18    7   29 ar
    19    7    8 ar
    20    8   13 ar
    21    8    9 ar
    22    9   10 ar
    23    9   27 ar
    24   10   11 ar
    25   10   21 1
    26   11   12 ar
    27   12   13 ar
    28   12   14 1
    29   14   15 1
    30   14   18 1
    31   15   16 1
    32   15   47 1
    33   15   48 1
    34   16   17 1
    35   16   49 1
    36   16   50 1
    37   17   51 1
    38   18   19 1
    39   18   52 1
    40   18   53 1
    41   19   20 1
    42   19   54 1
    43   19   55 1
    44   20   56 1
    45   21   26 1
    46   21   22 1
    47   22   23 1
    48   22   57 1
    49   22   58 1
    50   23   24 1
    51   23   59 1
    52   23   60 1
    53   24   25 1
    54   24   61 1
    55   24   62 1
    56   25   26 1
    57   25   63 1
    58   25   64 1
    59   26   65 1
    60   26   66 1
    61   27   28 ar
    62   28   29 ar
    63   28   30 1
    64   30   31 1
    65   30   34 1
    66   31   32 1
    67   31   67 1
    68   31   68 1
    69   32   33 1
    70   32   69 1
    71   32   70 1
    72   33   71 1
    73   34   35 1
    74   34   72 1
    75   34   73 1
    76   35   36 1
    77   35   74 1
    78   35   75 1
    79   36   76 1
