@<TRIPOS>MOLECULE
ZINC00896681
   44    46     0     0     0
SMALL
USER_CHARGES

@<TRIPOS>ATOM
      1 C1         -0.2440    1.6864   -0.2103 C.3       1 <0>        -0.1650
      2 C2         -0.0788    0.1700   -0.0909 C.3       1 <0>        -0.1403
      3 H1          0.5593   -0.0599    0.7623 H         1 <0>         0.0996
      4 C3          0.5621   -0.3753   -1.3687 C.3       1 <0>         0.1324
      5 N1          1.9222    0.1538   -1.4970 N.pl3     1 <0>        -0.5768
      6 C4          2.1208    1.3602   -2.1770 C.ar      1 <0>         0.1838
      7 C5          1.3717    1.6594   -3.3042 C.ar      1 <0>        -0.1487
      8 C6          1.5751    2.8540   -3.9727 C.ar      1 <0>        -0.0803
      9 C7          2.5223    3.7546   -3.5246 C.ar      1 <0>        -0.1271
     10 C8          3.2767    3.4660   -2.3989 C.ar      1 <0>        -0.0576
     11 C9          3.0772    2.2747   -1.7280 C.ar      1 <0>        -0.1484
     12 S1          4.0232    1.8781   -0.2906 S.3       1 <0>         0.0073
     13 C10         4.0498    0.1130   -0.3321 C.ar      1 <0>        -0.1461
     14 C11         2.9849   -0.5587   -0.9311 C.ar      1 <0>         0.1800
     15 C12         2.9942   -1.9444   -0.9639 C.ar      1 <0>        -0.1492
     16 C13         4.0500   -2.6424   -0.4040 C.ar      1 <0>        -0.0811
     17 C14         5.0991   -1.9672    0.1899 C.ar      1 <0>        -0.1266
     18 C15         5.1021   -0.5912    0.2210 C.ar      1 <0>        -0.0580
     19 C16        -1.4503   -0.4783    0.1085 C.3       1 <0>        -0.0054
     20 N2         -2.0065   -0.0593    1.4019 N.4       1 <0>        -0.3873
     21 C17        -3.3782   -0.5684    1.5330 C.3       1 <0>        -0.0474
     22 C18        -1.1782   -0.5984    2.4888 C.3       1 <0>        -0.0534
     23 H2          0.7384    2.1565   -0.2548 H         1 <0>         0.0872
     24 H3         -0.8005    1.9210   -1.1177 H         1 <0>         0.0735
     25 H4         -0.7876    2.0620    0.6567 H         1 <0>         0.0499
     26 H5          0.5987   -1.4636   -1.3210 H         1 <0>         0.0908
     27 H6         -0.0297   -0.0691   -2.2313 H         1 <0>         0.0926
     28 H7          0.6297    0.9603   -3.6609 H         1 <0>         0.1278
     29 H8          0.9897    3.0838   -4.8507 H         1 <0>         0.1330
     30 H9          2.6751    4.6843   -4.0525 H         1 <0>         0.1353
     31 H10         4.0176    4.1689   -2.0476 H         1 <0>         0.1370
     32 H11         2.1776   -2.4793   -1.4260 H         1 <0>         0.1278
     33 H12         4.0537   -3.7220   -0.4310 H         1 <0>         0.1328
     34 H13         5.9192   -2.5196    0.6243 H         1 <0>         0.1353
     35 H14         5.9225   -0.0645    0.6857 H         1 <0>         0.1363
     36 H15        -2.1197   -0.1661   -0.6931 H         1 <0>         0.1338
     37 H16        -1.3452   -1.5631    0.0924 H         1 <0>         0.1325
     38 H17        -3.7771   -0.2908    2.5087 H         1 <0>         0.1252
     39 H18        -4.0020   -0.1379    0.7496 H         1 <0>         0.1238
     40 H19        -3.3735   -1.6542    1.4380 H         1 <0>         0.1229
     41 H20        -0.1604   -0.2207    2.3916 H         1 <0>         0.1234
     42 H21        -1.5910   -0.2876    3.4486 H         1 <0>         0.1257
     43 H22        -1.1687   -1.6869    2.4328 H         1 <0>         0.1237
     44 H23        -2.0153    0.9483    1.4538 H         1 <0>         0.4252
@<TRIPOS>BOND
     1    1    2 1
     2    1   23 1
     3    1   24 1
     4    1   25 1
     5    2    3 1
     6    2    4 1
     7    2   19 1
     8    4    5 1
     9    4   26 1
    10    4   27 1
    11    5   14 1
    12    5    6 1
    13    6   11 ar
    14    6    7 ar
    15    7    8 ar
    16    7   28 1
    17    8    9 ar
    18    8   29 1
    19    9   10 ar
    20    9   30 1
    21   10   11 ar
    22   10   31 1
    23   11   12 1
    24   12   13 1
    25   13   18 ar
    26   13   14 ar
    27   14   15 ar
    28   15   16 ar
    29   15   32 1
    30   16   17 ar
    31   16   33 1
    32   17   18 ar
    33   17   34 1
    34   18   35 1
    35   19   20 1
    36   19   36 1
    37   19   37 1
    38   20   21 1
    39   20   22 1
    40   20   44 1
    41   21   38 1
    42   21   39 1
    43   21   40 1
    44   22   41 1
    45   22   42 1
    46   22   43 1
@<TRIPOS>MOLECULE
ZINC00057400
   48    50     0     0     0
SMALL
USER_CHARGES

@<TRIPOS>ATOM
      1 C1          0.3122    1.1932   -0.3711 C.3       1 <0>        -0.1657
      2 C2          0.2478   -0.3304   -0.2477 C.3       1 <0>        -0.1396
      3 H1          0.6685   -0.7857   -1.1443 H         1 <0>         0.1003
      4 C3         -1.2097   -0.7682   -0.0894 C.3       1 <0>         0.1115
      5 N1         -1.9516   -0.4465   -1.3111 N.pl3     1 <0>        -0.5596
      6 C4         -2.6635    0.7498   -1.3351 C.ar      1 <0>         0.1851
      7 C5         -3.0593    1.3193   -0.1292 C.ar      1 <0>        -0.1604
      8 C6         -3.7619    2.5091   -0.1162 C.ar      1 <0>        -0.0784
      9 C7         -4.0778    3.1435   -1.3027 C.ar      1 <0>        -0.1284
     10 C8         -3.6912    2.5857   -2.5075 C.ar      1 <0>        -0.0574
     11 C9         -2.9869    1.3902   -2.5281 C.ar      1 <0>        -0.1494
     12 S1         -2.5114    0.6896   -4.0726 S.3       1 <0>         0.0231
     13 C10        -2.1216   -0.9828   -3.6798 C.ar      1 <0>        -0.1900
     14 C11        -1.8867   -1.3578   -2.3616 C.ar      1 <0>         0.2291
     15 C12        -1.5806   -2.6845   -2.0789 C.ar      1 <0>        -0.2037
     16 C13        -1.5019   -3.6176   -3.1009 C.ar      1 <0>         0.1717
     17 C14        -1.7291   -3.2325   -4.4128 C.ar      1 <0>        -0.2213
     18 C15        -2.0454   -1.9224   -4.6971 C.ar      1 <0>        -0.0129
     19 O1         -1.2009   -4.9128   -2.8160 O.3       1 <0>        -0.3150
     20 C16        -1.1363   -5.8211   -3.9173 C.3       1 <0>         0.0237
     21 C17         1.0503   -0.7774    0.9759 C.3       1 <0>        -0.0056
     22 N2          2.4722   -0.4737    0.7665 N.4       1 <0>        -0.3869
     23 C18         3.2232   -0.7765    1.9922 C.3       1 <0>        -0.0475
     24 C19         2.9898   -1.2905   -0.3393 C.3       1 <0>        -0.0537
     25 H2          1.3506    1.5052   -0.4826 H         1 <0>         0.0527
     26 H3         -0.2585    1.5115   -1.2435 H         1 <0>         0.0853
     27 H4         -0.1097    1.6484    0.5249 H         1 <0>         0.0746
     28 H5         -1.2491   -1.8430    0.0873 H         1 <0>         0.0957
     29 H6         -1.6566   -0.2444    0.7556 H         1 <0>         0.1025
     30 H7         -2.8165    0.8287    0.8018 H         1 <0>         0.1295
     31 H8         -4.0656    2.9445    0.8243 H         1 <0>         0.1333
     32 H9         -4.6257    4.0741   -1.2889 H         1 <0>         0.1356
     33 H10        -3.9380    3.0816   -3.4347 H         1 <0>         0.1366
     34 H11        -1.4029   -2.9893   -1.0581 H         1 <0>         0.1365
     35 H12        -1.6663   -3.9597   -5.2088 H         1 <0>         0.1404
     36 H13        -2.2229   -1.6238   -5.7197 H         1 <0>         0.1396
     37 H14        -0.3696   -5.4894   -4.6174 H         1 <0>         0.0604
     38 H15        -0.8882   -6.8178   -3.5521 H         1 <0>         0.1064
     39 H16        -2.1018   -5.8491   -4.4223 H         1 <0>         0.0622
     40 H17         0.6918   -0.2480    1.8587 H         1 <0>         0.1348
     41 H18         0.9254   -1.8506    1.1201 H         1 <0>         0.1336
     42 H19         3.1483   -1.8418    2.2104 H         1 <0>         0.1232
     43 H20         4.2701   -0.5069    1.8528 H         1 <0>         0.1252
     44 H21         2.8085   -0.2054    2.8229 H         1 <0>         0.1240
     45 H22         2.4325   -1.0658   -1.2488 H         1 <0>         0.1229
     46 H23         4.0449   -1.0651   -0.4946 H         1 <0>         0.1259
     47 H24         2.8760   -2.3467   -0.0951 H         1 <0>         0.1245
     48 H25         2.5775    0.5040    0.5404 H         1 <0>         0.4254
@<TRIPOS>BOND
     1    1    2 1
     2    1   25 1
     3    1   26 1
     4    1   27 1
     5    2    3 1
     6    2    4 1
     7    2   21 1
     8    4    5 1
     9    4   28 1
    10    4   29 1
    11    5   14 1
    12    5    6 1
    13    6   11 ar
    14    6    7 ar
    15    7    8 ar
    16    7   30 1
    17    8    9 ar
    18    8   31 1
    19    9   10 ar
    20    9   32 1
    21   10   11 ar
    22   10   33 1
    23   11   12 1
    24   12   13 1
    25   13   18 ar
    26   13   14 ar
    27   14   15 ar
    28   15   16 ar
    29   15   34 1
    30   16   17 ar
    31   16   19 1
    32   17   18 ar
    33   17   35 1
    34   18   36 1
    35   19   20 1
    36   20   37 1
    37   20   38 1
    38   20   39 1
    39   21   22 1
    40   21   40 1
    41   21   41 1
    42   22   23 1
    43   22   24 1
    44   22   48 1
    45   23   42 1
    46   23   43 1
    47   23   44 1
    48   24   45 1
    49   24   46 1
    50   24   47 1
@<TRIPOS>MOLECULE
ZINC22446674
   57    60     0     0     0
SMALL
USER_CHARGES

@<TRIPOS>ATOM
      1 C1         -0.2453    1.6096    0.6316 C.3       1 <0>        -0.1395
      2 C2         -0.1751    0.0857    0.5149 C.3       1 <0>        -0.1100
      3 S1         -1.8554   -0.5916    0.4222 S.3       1 <0>        -0.1130
      4 C3         -1.6072   -2.3313    0.2930 C.ar      1 <0>        -0.0433
      5 C4         -0.3190   -2.8499    0.2893 C.ar      1 <0>        -0.1499
      6 C5         -0.1274   -4.2153    0.1904 C.ar      1 <0>        -0.0359
      7 C6         -1.2167   -5.0691    0.0930 C.ar      1 <0>        -0.1584
      8 C7         -2.5110   -4.5561    0.0920 C.ar      1 <0>         0.2106
      9 C8         -2.6995   -3.1826    0.2007 C.ar      1 <0>        -0.1443
     10 N1         -3.6287   -5.3795   -0.0168 N.pl3     1 <0>        -0.5630
     11 C9         -3.6641   -6.7252    0.3392 C.ar      1 <0>         0.1913
     12 C10        -4.8869   -7.3005    0.6692 C.ar      1 <0>        -0.1635
     13 C11        -4.9579   -8.6347    1.0221 C.ar      1 <0>        -0.0819
     14 C12        -3.8135   -9.4090    1.0497 C.ar      1 <0>        -0.1333
     15 C13        -2.5922   -8.8473    0.7254 C.ar      1 <0>        -0.0562
     16 C14        -2.5130   -7.5075    0.3727 C.ar      1 <0>        -0.1509
     17 S2         -0.9478   -6.8061   -0.0263 S.3       1 <0>         0.0269
     18 C15        -4.8590   -4.7857   -0.5458 C.3       1 <0>         0.1143
     19 C16        -5.6874   -4.2163    0.6076 C.3       1 <0>        -0.1484
     20 C17        -6.9724   -3.5961    0.0551 C.3       1 <0>         0.0569
     21 N2         -7.7677   -3.0494    1.1626 N.3       1 <0>        -0.5374
     22 C18        -8.2535   -4.1221    2.0420 C.3       1 <0>         0.0200
     23 C19        -9.0248   -3.5082    3.2124 C.3       1 <0>        -0.0028
     24 N3        -10.1552   -2.7247    2.6969 N.4       1 <0>        -0.3882
     25 C20        -9.6528   -1.6424    1.8403 C.3       1 <0>        -0.0028
     26 C21        -8.8867   -2.2408    0.6584 C.3       1 <0>         0.0253
     27 C22       -10.9059   -2.1503    3.8214 C.3       1 <0>        -0.0460
     28 H1          0.7643    2.0166    0.6874 H         1 <0>         0.0800
     29 H2         -0.7539    2.0179   -0.2417 H         1 <0>         0.0674
     30 H3         -0.7963    1.8801    1.5324 H         1 <0>         0.0667
     31 H4          0.3759   -0.1848   -0.3858 H         1 <0>         0.0916
     32 H5          0.3334   -0.3225    1.3883 H         1 <0>         0.0911
     33 H6          0.5312   -2.1880    0.3630 H         1 <0>         0.1331
     34 H7          0.8743   -4.6191    0.1887 H         1 <0>         0.1391
     35 H8         -3.7001   -2.7762    0.2095 H         1 <0>         0.1361
     36 H9         -5.7852   -6.7014    0.6498 H         1 <0>         0.1259
     37 H10        -5.9110   -9.0737    1.2777 H         1 <0>         0.1292
     38 H11        -3.8729  -10.4518    1.3246 H         1 <0>         0.1338
     39 H12        -1.6980   -9.4524    0.7472 H         1 <0>         0.1361
     40 H13        -4.6064   -3.9854   -1.2414 H         1 <0>         0.0886
     41 H14        -5.4370   -5.5499   -1.0656 H         1 <0>         0.0864
     42 H15        -5.9401   -5.0165    1.3032 H         1 <0>         0.0740
     43 H16        -5.1095   -3.4521    1.1274 H         1 <0>         0.0868
     44 H17        -6.7197   -2.7959   -0.6404 H         1 <0>         0.0927
     45 H18        -7.5503   -4.3603   -0.4646 H         1 <0>         0.0505
     46 H19        -8.9123   -4.7834    1.4792 H         1 <0>         0.0616
     47 H20        -7.4059   -4.6913    2.4237 H         1 <0>         0.1240
     48 H21        -9.3981   -4.3029    3.8583 H         1 <0>         0.1358
     49 H22        -8.3619   -2.8576    3.7830 H         1 <0>         0.1379
     50 H23       -10.4917   -1.0539    1.4689 H         1 <0>         0.1364
     51 H24        -8.9868   -1.0013    2.4178 H         1 <0>         0.1381
     52 H25        -8.5011   -1.4375    0.0307 H         1 <0>         0.1246
     53 H26        -9.5560   -2.8711    0.0729 H         1 <0>         0.0611
     54 H27       -10.2500   -1.5026    4.4031 H         1 <0>         0.1233
     55 H28       -11.7448   -1.5689    3.4390 H         1 <0>         0.1246
     56 H29       -11.2799   -2.9534    4.4565 H         1 <0>         0.1243
     57 H30       -10.7625   -3.3246    2.1590 H         1 <0>         0.4222
@<TRIPOS>BOND
     1    1    2 1
     2    1   28 1
     3    1   29 1
     4    1   30 1
     5    2    3 1
     6    2   31 1
     7    2   32 1
     8    3    4 1
     9    4    9 ar
    10    4    5 ar
    11    5    6 ar
    12    5   33 1
    13    6    7 ar
    14    6   34 1
    15    7   17 1
    16    7    8 ar
    17    8    9 ar
    18    8   10 1
    19    9   35 1
    20   10   11 1
    21   10   18 1
    22   11   16 ar
    23   11   12 ar
    24   12   13 ar
    25   12   36 1
    26   13   14 ar
    27   13   37 1
    28   14   15 ar
    29   14   38 1
    30   15   16 ar
    31   15   39 1
    32   16   17 1
    33   18   19 1
    34   18   40 1
    35   18   41 1
    36   19   20 1
    37   19   42 1
    38   19   43 1
    39   20   21 1
    40   20   44 1
    41   20   45 1
    42   21   26 1
    43   21   22 1
    44   22   23 1
    45   22   46 1
    46   22   47 1
    47   23   24 1
    48   23   48 1
    49   23   49 1
    50   24   25 1
    51   24   27 1
    52   24   57 1
    53   25   26 1
    54   25   50 1
    55   25   51 1
    56   26   52 1
    57   26   53 1
    58   27   54 1
    59   27   55 1
    60   27   56 1
@<TRIPOS>MOLECULE
ZINC22446674
   57    60     0     0     0
SMALL
USER_CHARGES

@<TRIPOS>ATOM
      1 C1         -0.4449    1.6131   -0.4949 C.3       1 <0>        -0.1406
      2 C2         -0.3551    0.0883   -0.4062 C.3       1 <0>        -0.1074
      3 S1          0.5755   -0.5463   -1.8282 S.3       1 <0>        -0.1173
      4 C3          0.5904   -2.2911   -1.5834 C.ar      1 <0>        -0.0431
      5 C4         -0.0420   -2.8419   -0.4766 C.ar      1 <0>        -0.1461
      6 C5         -0.0309   -4.2113   -0.2885 C.ar      1 <0>        -0.0333
      7 C6          0.6112   -5.0372   -1.2000 C.ar      1 <0>        -0.1558
      8 C7          1.2509   -4.4919   -2.3099 C.ar      1 <0>         0.2070
      9 C8          1.2295   -3.1145   -2.5000 C.ar      1 <0>        -0.1486
     10 N1          1.9165   -5.2866   -3.2396 N.pl3     1 <0>        -0.5630
     11 C9          1.6468   -6.6322   -3.4752 C.ar      1 <0>         0.1845
     12 C10         1.9811   -7.1778   -4.7103 C.ar      1 <0>        -0.1643
     13 C11         1.7317   -8.5110   -4.9749 C.ar      1 <0>        -0.0801
     14 C12         1.1481   -9.3139   -4.0133 C.ar      1 <0>        -0.1280
     15 C13         0.8098   -8.7818   -2.7826 C.ar      1 <0>        -0.0547
     16 C14         1.0548   -7.4432   -2.5109 C.ar      1 <0>        -0.1487
     17 S2          0.6073   -6.7799   -0.9422 S.3       1 <0>         0.0339
     18 C15         2.9802   -4.6602   -4.0285 C.3       1 <0>         0.1210
     19 C16         2.3864   -4.0742   -5.3110 C.3       1 <0>        -0.1854
     20 C17         3.4973   -3.4201   -6.1350 C.3       1 <0>        -0.0065
     21 N2          2.9271   -2.8574   -7.3663 N.4       1 <0>        -0.3860
     22 C18         2.4070   -3.9446   -8.2060 C.3       1 <0>        -0.0074
     23 C19         1.7961   -3.3575   -9.4803 C.3       1 <0>         0.0250
     24 N3          2.8238   -2.6010  -10.2094 N.3       1 <0>        -0.5429
     25 C20         3.3716   -1.5243   -9.3722 C.3       1 <0>         0.0238
     26 C21         3.9696   -2.1265   -8.0988 C.3       1 <0>        -0.0020
     27 C22         2.2900   -2.0679  -11.4699 C.3       1 <0>         0.0192
     28 H1          0.5593    2.0371   -0.4904 H         1 <0>         0.0680
     29 H2         -0.9538    1.8941   -1.4169 H         1 <0>         0.0671
     30 H3         -1.0041    1.9945    0.3595 H         1 <0>         0.0820
     31 H4          0.1538   -0.1927    0.5158 H         1 <0>         0.0931
     32 H5         -1.3593   -0.3356   -0.4107 H         1 <0>         0.0924
     33 H6         -0.5411   -2.2018    0.2358 H         1 <0>         0.1350
     34 H7         -0.5237   -4.6401    0.5715 H         1 <0>         0.1413
     35 H8          1.7156   -2.6832   -3.3626 H         1 <0>         0.1293
     36 H9          2.4375   -6.5563   -5.4665 H         1 <0>         0.1236
     37 H10         1.9936   -8.9269   -5.9366 H         1 <0>         0.1324
     38 H11         0.9560  -10.3558   -4.2230 H         1 <0>         0.1363
     39 H12         0.3535   -9.4093   -2.0313 H         1 <0>         0.1380
     40 H13         3.4439   -3.8641   -3.4460 H         1 <0>         0.0962
     41 H14         3.7311   -5.4078   -4.2844 H         1 <0>         0.0973
     42 H15         1.9227   -4.8703   -5.8936 H         1 <0>         0.0972
     43 H16         1.6355   -3.3266   -5.0552 H         1 <0>         0.0960
     44 H17         3.9610   -2.6240   -5.5525 H         1 <0>         0.1361
     45 H18         4.2481   -4.1677   -6.3908 H         1 <0>         0.1356
     46 H19         3.2205   -4.6200   -8.4709 H         1 <0>         0.1394
     47 H20         1.6428   -4.4942   -7.6566 H         1 <0>         0.1347
     48 H21         1.4234   -4.1651  -10.1104 H         1 <0>         0.1240
     49 H22         0.9737   -2.6926   -9.2164 H         1 <0>         0.0605
     50 H23         4.1485   -0.9945   -9.9235 H         1 <0>         0.1248
     51 H24         2.5752   -0.8292   -9.1065 H         1 <0>         0.0608
     52 H25         4.3638   -1.3283   -7.4699 H         1 <0>         0.1371
     53 H26         4.7751   -2.8113   -8.3643 H         1 <0>         0.1389
     54 H27         1.4520   -1.4039  -11.2576 H         1 <0>         0.0398
     55 H28         3.0710   -1.5125  -11.9892 H         1 <0>         0.0844
     56 H29         1.9509   -2.8916  -12.0981 H         1 <0>         0.0846
     57 H30         2.1761   -2.2260   -7.1311 H         1 <0>         0.4212
@<TRIPOS>BOND
     1    1    2 1
     2    1   28 1
     3    1   29 1
     4    1   30 1
     5    2    3 1
     6    2   31 1
     7    2   32 1
     8    3    4 1
     9    4    9 ar
    10    4    5 ar
    11    5    6 ar
    12    5   33 1
    13    6    7 ar
    14    6   34 1
    15    7   17 1
    16    7    8 ar
    17    8    9 ar
    18    8   10 1
    19    9   35 1
    20   10   11 1
    21   10   18 1
    22   11   16 ar
    23   11   12 ar
    24   12   13 ar
    25   12   36 1
    26   13   14 ar
    27   13   37 1
    28   14   15 ar
    29   14   38 1
    30   15   16 ar
    31   15   39 1
    32   16   17 1
    33   18   19 1
    34   18   40 1
    35   18   41 1
    36   19   20 1
    37   19   42 1
    38   19   43 1
    39   20   21 1
    40   20   44 1
    41   20   45 1
    42   21   26 1
    43   21   22 1
    44   21   57 1
    45   22   23 1
    46   22   46 1
    47   22   47 1
    48   23   24 1
    49   23   48 1
    50   23   49 1
    51   24   25 1
    52   24   27 1
    53   25   26 1
    54   25   50 1
    55   25   51 1
    56   26   52 1
    57   26   53 1
    58   27   54 1
    59   27   55 1
    60   27   56 1
@<TRIPOS>MOLECULE
ZINC53524260
   38    40     0     0     0
SMALL
USER_CHARGES

@<TRIPOS>ATOM
      1 C1         -0.0167    1.3795    0.0096 C.ar      1 <0>        -0.0820
      2 C2          1.1652    2.0958    0.0022 C.ar      1 <0>        -0.1292
      3 C3          2.3799    1.4302   -0.0132 C.ar      1 <0>        -0.0583
      4 C4          2.4038    0.0485   -0.0206 C.ar      1 <0>        -0.1470
      5 C5          1.2121   -0.6805   -0.0125 C.ar      1 <0>         0.1831
      6 C6          0.0021   -0.0041    0.0020 C.ar      1 <0>        -0.1492
      7 N1          1.2386   -2.0792   -0.0168 N.pl3     1 <0>        -0.5805
      8 C7          2.2017   -2.8020    0.6953 C.ar      1 <0>         0.1830
      9 C8          1.8596   -3.9859    1.3302 C.ar      1 <0>        -0.1492
     10 C9          2.8171   -4.6952    2.0337 C.ar      1 <0>        -0.0821
     11 C10         4.1169   -4.2316    2.1091 C.ar      1 <0>        -0.1292
     12 C11         4.4699   -3.0499    1.4783 C.ar      1 <0>        -0.0583
     13 C12         3.5171   -2.3380    0.7747 C.ar      1 <0>        -0.1469
     14 S1          3.9364   -0.8283   -0.0398 S.3       1 <0>         0.0071
     15 C13         0.2287   -2.8078   -0.7884 C.3       1 <0>         0.1242
     16 C14         0.7437   -3.0415   -2.2101 C.3       1 <0>        -0.1387
     17 C15        -0.3110   -3.8024   -3.0160 C.3       1 <0>        -0.1486
     18 C16         0.2041   -4.0361   -4.4376 C.3       1 <0>        -0.0084
     19 N2         -0.8086   -4.7667   -5.2114 N.4       1 <0>        -0.6380
     20 H1         -0.9611    1.9031    0.0260 H         1 <0>         0.1322
     21 H2          1.1417    3.1755    0.0080 H         1 <0>         0.1347
     22 H3          3.3043    1.9887   -0.0197 H         1 <0>         0.1367
     23 H4         -0.9257   -0.5569    0.0074 H         1 <0>         0.1272
     24 H5          0.8459   -4.3544    1.2761 H         1 <0>         0.1272
     25 H6          2.5469   -5.6169    2.5275 H         1 <0>         0.1322
     26 H7          4.8581   -4.7910    2.6605 H         1 <0>         0.1347
     27 H8          5.4852   -2.6864    1.5365 H         1 <0>         0.1367
     28 H9          0.0297   -3.7676   -0.3117 H         1 <0>         0.0843
     29 H10        -0.6908   -2.2235   -0.8266 H         1 <0>         0.0843
     30 H11         0.9427   -2.0817   -2.6868 H         1 <0>         0.0794
     31 H12         1.6631   -3.6257   -2.1719 H         1 <0>         0.0794
     32 H13        -0.5099   -4.7622   -2.5392 H         1 <0>         0.0901
     33 H14        -1.2304   -3.2182   -3.0541 H         1 <0>         0.0901
     34 H15         0.4030   -3.0763   -4.9143 H         1 <0>         0.1346
     35 H16         1.1235   -4.6204   -4.3995 H         1 <0>         0.1346
     36 H17        -0.4689   -4.9208   -6.1489 H         1 <0>         0.4393
     37 H18        -0.9927   -5.6552   -4.7700 H         1 <0>         0.4355
     38 H19        -1.6597   -4.2259   -5.2467 H         1 <0>         0.4355
@<TRIPOS>BOND
     1    1    6 ar
     2    1    2 ar
     3    1   20 1
     4    2    3 ar
     5    2   21 1
     6    3    4 ar
     7    3   22 1
     8    4   14 1
     9    4    5 ar
    10    5    6 ar
    11    5    7 1
    12    6   23 1
    13    7    8 1
    14    7   15 1
    15    8   13 ar
    16    8    9 ar
    17    9   10 ar
    18    9   24 1
    19   10   11 ar
    20   10   25 1
    21   11   12 ar
    22   11   26 1
    23   12   13 ar
    24   12   27 1
    25   13   14 1
    26   15   16 1
    27   15   28 1
    28   15   29 1
    29   16   17 1
    30   16   30 1
    31   16   31 1
    32   17   18 1
    33   17   32 1
    34   17   33 1
    35   18   19 1
    36   18   34 1
    37   18   35 1
    38   19   36 1
    39   19   37 1
    40   19   38 1
@<TRIPOS>MOLECULE
ZINC19808142
   35    37     0     0     0
SMALL
USER_CHARGES
3-phenothiazin-10-ylpropan-1-amine
@<TRIPOS>ATOM
      1 C1         -0.0126    1.0758    0.0080 C.ar      1 <0>        -0.0846
      2 C2         -1.2212    1.7458    0.0174 C.ar      1 <0>        -0.1252
      3 C3         -1.2468    3.1308    0.0309 C.ar      1 <0>        -0.0555
      4 C4         -0.0594    3.8378    0.0243 C.ar      1 <0>        -0.1440
      5 C5          1.1652    3.1656    0.0080 C.ar      1 <0>         0.1794
      6 C6          1.1790    1.7794    0.0004 C.ar      1 <0>        -0.1533
      7 N1          2.3659    3.8835   -0.0021 N.pl3     1 <0>        -0.5787
      8 C7          2.5079    5.0755   -0.7207 C.ar      1 <0>         0.1792
      9 C8          3.6992    5.3643   -1.3682 C.ar      1 <0>        -0.1532
     10 C9          3.8322    6.5447   -2.0778 C.ar      1 <0>        -0.0847
     11 C10         2.7836    7.4423   -2.1465 C.ar      1 <0>        -0.1252
     12 C11         1.5890    7.1643   -1.5029 C.ar      1 <0>        -0.0556
     13 C12         1.4509    5.9861   -0.7940 C.ar      1 <0>        -0.1438
     14 S1         -0.0599    5.6031    0.0359 S.3       1 <0>         0.0185
     15 C13         3.5068    3.3729    0.7619 C.3       1 <0>         0.1315
     16 C14         4.3415    2.4472   -0.1254 C.3       1 <0>        -0.1881
     17 C15         5.5331    1.9138    0.6725 C.3       1 <0>        -0.0007
     18 N2          6.3345    1.0250   -0.1795 N.4       1 <0>        -0.6868
     19 H1          0.0021   -0.0041    0.0020 H         1 <0>         0.1318
     20 H2         -2.1467    1.1891    0.0179 H         1 <0>         0.1363
     21 H3         -2.1905    3.6557    0.0425 H         1 <0>         0.1390
     22 H4          2.1195    1.2487   -0.0112 H         1 <0>         0.1224
     23 H5          4.5232    4.6678   -1.3190 H         1 <0>         0.1224
     24 H6          4.7617    6.7662   -2.5811 H         1 <0>         0.1318
     25 H7          2.8959    8.3616   -2.7022 H         1 <0>         0.1363
     26 H8          0.7687    7.8649   -1.5555 H         1 <0>         0.1390
     27 H9          4.1282    4.2153    1.0999 H         1 <0>         0.0923
     28 H10         3.1420    2.8127    1.6354 H         1 <0>         0.0923
     29 H11         3.7200    1.6049   -0.4635 H         1 <0>         0.0943
     30 H12         4.7064    3.0074   -0.9989 H         1 <0>         0.0943
     31 H13         6.1545    2.7561    1.0106 H         1 <0>         0.1318
     32 H14         5.1683    1.3536    1.5460 H         1 <0>         0.1318
     33 H15         7.1912    0.6415    0.3941 H         1 <0>         0.4617
     34 H16         6.6994    1.5853   -1.0530 H         1 <0>         0.4566
     35 H17         5.7130    0.1827   -0.5176 H         1 <0>         0.4566
@<TRIPOS>BOND
     1    1    6 ar
     2    1    2 ar
     3    1   19 1
     4    2    3 ar
     5    2   20 1
     6    3    4 ar
     7    3   21 1
     8    4   14 1
     9    4    5 ar
    10    5    6 ar
    11    5    7 1
    12    6   22 1
    13    7    8 1
    14    7   15 1
    15    8   13 ar
    16    8    9 ar
    17    9   10 ar
    18    9   23 1
    19   10   11 ar
    20   10   24 1
    21   11   12 ar
    22   11   25 1
    23   12   13 ar
    24   12   26 1
    25   13   14 1
    26   15   16 1
    27   15   27 1
    28   15   28 1
    29   16   17 1
    30   16   29 1
    31   16   30 1
    32   17   18 1
    33   17   31 1
    34   17   32 1
    35   18   33 1
    36   18   34 1
    37   18   35 1
@<TRIPOS>MOLECULE
ZINC19418959
   53    56     0     0     0
SMALL
USER_CHARGES

@<TRIPOS>ATOM
      1 C1          0.4204    1.5427   -0.3194 C.3       1 <0>        -0.0460
      2 N1          0.3487    0.0771   -0.2504 N.4       1 <0>        -0.3881
      3 C2          0.9699   -0.5001   -1.4498 C.3       1 <0>        -0.0029
      4 C3          0.8787   -2.0264   -1.3873 C.3       1 <0>         0.0253
      5 N2          1.5653   -2.5063   -0.1797 N.3       1 <0>        -0.5381
      6 C4          0.9701   -1.9172    1.0281 C.3       1 <0>         0.0200
      7 C5          1.0605   -0.3919    0.9458 C.3       1 <0>        -0.0028
      8 C6          1.5488   -3.9737   -0.1128 C.3       1 <0>         0.0563
      9 C7          2.4763   -4.4435    1.0097 C.3       1 <0>        -0.1490
     10 C8          2.4590   -5.9719    1.0794 C.3       1 <0>         0.1115
     11 N3          3.3471   -6.4217    2.1542 N.pl3     1 <0>        -0.5624
     12 C9          2.7947   -6.5759    3.4230 C.ar      1 <0>         0.1921
     13 C10         1.6439   -5.8634    3.7445 C.ar      1 <0>        -0.1625
     14 C11         1.0657   -5.9970    4.9923 C.ar      1 <0>        -0.0785
     15 C12         1.6269   -6.8403    5.9324 C.ar      1 <0>        -0.1323
     16 C13         2.7718   -7.5521    5.6246 C.ar      1 <0>        -0.0529
     17 C14         3.3588   -7.4215    4.3741 C.ar      1 <0>        -0.1573
     18 S1          4.8225   -8.3286    4.0036 S.3       1 <0>         0.0431
     19 C15         5.4784   -7.5174    2.5843 C.ar      1 <0>        -0.1233
     20 C16         4.6781   -6.6680    1.8281 C.ar      1 <0>         0.1899
     21 C17         5.2223   -6.0407    0.7125 C.ar      1 <0>        -0.1146
     22 C18         6.5389   -6.2664    0.3573 C.ar      1 <0>        -0.1463
     23 C19         7.3258   -7.1180    1.1085 C.ar      1 <0>        -0.0830
     24 C20         6.7996   -7.7356    2.2221 C.ar      1 <0>        -0.0588
     25 C21         7.1179   -5.5814   -0.8538 C.3       1 <0>         0.5109
     26 F1          7.6743   -4.3552   -0.4745 F         1 <0>        -0.1740
     27 F2          8.1112   -6.3901   -1.4165 F         1 <0>        -0.1704
     28 F3          6.1057   -5.3632   -1.7946 F         1 <0>        -0.1785
     29 H1          1.4638    1.8534   -0.3722 H         1 <0>         0.1234
     30 H2         -0.1078    1.8910   -1.2070 H         1 <0>         0.1248
     31 H3         -0.0417    1.9713    0.5699 H         1 <0>         0.1244
     32 H4          0.4490   -0.1411   -2.3374 H         1 <0>         0.1368
     33 H5          2.0168   -0.2004   -1.4968 H         1 <0>         0.1381
     34 H6         -0.1685   -2.3271   -1.3541 H         1 <0>         0.0616
     35 H7          1.3528   -2.4555   -2.2701 H         1 <0>         0.1249
     36 H8         -0.0756   -2.2162    1.1011 H         1 <0>         0.0619
     37 H9          1.5109   -2.2667    1.9076 H         1 <0>         0.1238
     38 H10         2.1070   -0.0926    0.8865 H         1 <0>         0.1379
     39 H11         0.6068    0.0475    1.8341 H         1 <0>         0.1360
     40 H12         0.5337   -4.3169    0.0871 H         1 <0>         0.0515
     41 H13         1.8908   -4.3847   -1.0626 H         1 <0>         0.0934
     42 H14         3.4913   -4.1004    0.8098 H         1 <0>         0.0856
     43 H15         2.1342   -4.0326    1.9596 H         1 <0>         0.0755
     44 H16         1.4439   -6.3150    1.2793 H         1 <0>         0.0895
     45 H17         2.8011   -6.3828    0.1296 H         1 <0>         0.0899
     46 H18         1.2002   -5.2020    3.0150 H         1 <0>         0.1272
     47 H19         0.1723   -5.4402    5.2339 H         1 <0>         0.1308
     48 H20         1.1719   -6.9431    6.9065 H         1 <0>         0.1354
     49 H21         3.2102   -8.2112    6.3594 H         1 <0>         0.1375
     50 H22         4.6131   -5.3736    0.1208 H         1 <0>         0.1431
     51 H23         8.3536   -7.2935    0.8271 H         1 <0>         0.1481
     52 H24         7.4163   -8.4005    2.8086 H         1 <0>         0.1492
     53 H25        -0.6172   -0.2102   -0.2010 H         1 <0>         0.4223
@<TRIPOS>BOND
     1    1    2 1
     2    1   29 1
     3    1   30 1
     4    1   31 1
     5    2    7 1
     6    2    3 1
     7    2   53 1
     8    3    4 1
     9    3   32 1
    10    3   33 1
    11    4    5 1
    12    4   34 1
    13    4   35 1
    14    5    6 1
    15    5    8 1
    16    6    7 1
    17    6   36 1
    18    6   37 1
    19    7   38 1
    20    7   39 1
    21    8    9 1
    22    8   40 1
    23    8   41 1
    24    9   10 1
    25    9   42 1
    26    9   43 1
    27   10   11 1
    28   10   44 1
    29   10   45 1
    30   11   20 1
    31   11   12 1
    32   12   17 ar
    33   12   13 ar
    34   13   14 ar
    35   13   46 1
    36   14   15 ar
    37   14   47 1
    38   15   16 ar
    39   15   48 1
    40   16   17 ar
    41   16   49 1
    42   17   18 1
    43   18   19 1
    44   19   24 ar
    45   19   20 ar
    46   20   21 ar
    47   21   22 ar
    48   21   50 1
    49   22   23 ar
    50   22   25 1
    51   23   24 ar
    52   23   51 1
    53   24   52 1
    54   25   26 1
    55   25   27 1
    56   25   28 1
@<TRIPOS>MOLECULE
ZINC19418959
   53    56     0     0     0
SMALL
USER_CHARGES

@<TRIPOS>ATOM
      1 C1          0.4328    1.5258   -0.3011 C.3       1 <0>         0.0191
      2 N1          0.3593    0.0600   -0.2373 N.3       1 <0>        -0.5429
      3 C2          0.8896   -0.5479   -1.4659 C.3       1 <0>         0.0236
      4 C3          0.7405   -2.0687   -1.3844 C.3       1 <0>        -0.0021
      5 N2          1.4724   -2.5705   -0.2140 N.4       1 <0>        -0.3864
      6 C4          0.9155   -1.9734    1.0070 C.3       1 <0>        -0.0074
      7 C5          1.0660   -0.4518    0.9454 C.3       1 <0>         0.0248
      8 C6          1.3441   -4.0323   -0.1464 C.3       1 <0>        -0.0072
      9 C7          2.2069   -4.5677    0.9981 C.3       1 <0>        -0.1860
     10 C8          2.0732   -6.0902    1.0685 C.3       1 <0>         0.1181
     11 N3          2.8994   -6.6028    2.1644 N.pl3     1 <0>        -0.5624
     12 C9          2.3073   -6.7118    3.4198 C.ar      1 <0>         0.1854
     13 C10         1.2060   -5.9141    3.7135 C.ar      1 <0>        -0.1634
     14 C11         0.5902   -6.0007    4.9473 C.ar      1 <0>        -0.0766
     15 C12         1.0642   -6.8815    5.9011 C.ar      1 <0>        -0.1271
     16 C13         2.1593   -7.6780    5.6210 C.ar      1 <0>        -0.0512
     17 C14         2.7837   -7.5950    4.3846 C.ar      1 <0>        -0.1555
     18 S1          4.1834   -8.6105    4.0495 S.3       1 <0>         0.0508
     19 C15         4.9317   -7.8544    2.6456 C.ar      1 <0>        -0.1201
     20 C16         4.2155   -6.9492    1.8701 C.ar      1 <0>         0.1860
     21 C17         4.8314   -6.3674    0.7671 C.ar      1 <0>        -0.1187
     22 C18         6.1353   -6.6922    0.4434 C.ar      1 <0>        -0.1465
     23 C19         6.8381   -7.5986    1.2136 C.ar      1 <0>        -0.0782
     24 C20         6.2409   -8.1721    2.3149 C.ar      1 <0>        -0.0564
     25 C21         6.7925   -6.0557   -0.7542 C.3       1 <0>         0.5107
     26 F1          7.4304   -4.8737   -0.3627 F         1 <0>        -0.1734
     27 F2          7.7352   -6.9381   -1.2927 F         1 <0>        -0.1677
     28 F3          5.8220   -5.7644   -1.7188 F         1 <0>        -0.1812
     29 H1          1.4765    1.8352   -0.3565 H         1 <0>         0.0399
     30 H2         -0.0981    1.8781   -1.1855 H         1 <0>         0.0846
     31 H3         -0.0256    1.9517    0.5914 H         1 <0>         0.0847
     32 H4          0.3342   -0.1736   -2.3259 H         1 <0>         0.1251
     33 H5          1.9434   -0.2910   -1.5732 H         1 <0>         0.0609
     34 H6         -0.3146   -2.3258   -1.2908 H         1 <0>         0.1393
     35 H7          1.1462   -2.5225   -2.2886 H         1 <0>         0.1373
     36 H8         -0.1405   -2.2310    1.0883 H         1 <0>         0.1397
     37 H9          1.4508   -2.3566    1.8757 H         1 <0>         0.1346
     38 H10         2.1227   -0.1933    0.8778 H         1 <0>         0.0606
     39 H11         0.6393   -0.0074    1.8446 H         1 <0>         0.1243
     40 H12         0.3016   -4.2978    0.0297 H         1 <0>         0.1367
     41 H13         1.6765   -4.4702   -1.0876 H         1 <0>         0.1368
     42 H14         3.2494   -4.3022    0.8220 H         1 <0>         0.0947
     43 H15         1.8745   -4.1298    1.9393 H         1 <0>         0.0988
     44 H16         1.0308   -6.3556    1.2446 H         1 <0>         0.1004
     45 H17         2.4057   -6.5280    0.1273 H         1 <0>         0.0974
     46 H18         0.8307   -5.2231    2.9732 H         1 <0>         0.1250
     47 H19        -0.2642   -5.3778    5.1674 H         1 <0>         0.1340
     48 H20         0.5800   -6.9473    6.8642 H         1 <0>         0.1380
     49 H21         2.5295   -8.3664    6.3664 H         1 <0>         0.1394
     50 H22         4.2881   -5.6578    0.1607 H         1 <0>         0.1365
     51 H23         7.8561   -7.8515    0.9568 H         1 <0>         0.1503
     52 H24         6.7918   -8.8800    2.9163 H         1 <0>         0.1515
     53 H25         2.4470   -2.3223   -0.2952 H         1 <0>         0.4212
@<TRIPOS>BOND
     1    1    2 1
     2    1   29 1
     3    1   30 1
     4    1   31 1
     5    2    7 1
     6    2    3 1
     7    3    4 1
     8    3   32 1
     9    3   33 1
    10    4    5 1
    11    4   34 1
    12    4   35 1
    13    5    6 1
    14    5    8 1
    15    5   53 1
    16    6    7 1
    17    6   36 1
    18    6   37 1
    19    7   38 1
    20    7   39 1
    21    8    9 1
    22    8   40 1
    23    8   41 1
    24    9   10 1
    25    9   42 1
    26    9   43 1
    27   10   11 1
    28   10   44 1
    29   10   45 1
    30   11   20 1
    31   11   12 1
    32   12   17 ar
    33   12   13 ar
    34   13   14 ar
    35   13   46 1
    36   14   15 ar
    37   14   47 1
    38   15   16 ar
    39   15   48 1
    40   16   17 ar
    41   16   49 1
    42   17   18 1
    43   18   19 1
    44   19   24 ar
    45   19   20 ar
    46   20   21 ar
    47   21   22 ar
    48   21   50 1
    49   22   23 ar
    50   22   25 1
    51   23   24 ar
    52   23   51 1
    53   24   52 1
    54   25   26 1
    55   25   27 1
    56   25   28 1
@<TRIPOS>MOLECULE
ZINC01530695
   52    55     0     0     0
SMALL
USER_CHARGES

@<TRIPOS>ATOM
      1 C1         -1.1433    3.8527    2.8784 C.3       1 <0>        -0.0541
      2 N1         -1.4072    3.2632    1.5590 N.4       1 <0>        -0.3810
      3 C2         -2.7176    2.6020    1.5734 C.3       1 <0>        -0.0065
      4 C3         -3.0331    2.0563    0.1791 C.3       1 <0>        -0.1473
      5 C4         -1.9545    1.0467   -0.2240 C.3       1 <0>        -0.1369
      6 C5         -0.5840    1.7272   -0.1636 C.3       1 <0>        -0.1460
      7 C6         -0.3592    2.2851    1.2434 C.3       1 <0>         0.0311
      8 H1         -0.3936    1.4703    1.9666 H         1 <0>         0.1391
      9 C7          1.0094    2.9660    1.3087 C.3       1 <0>        -0.1818
     10 C8          2.1091    1.9201    1.1151 C.3       1 <0>         0.1200
     11 N2          3.4204    2.5646    1.2225 N.pl3     1 <0>        -0.5620
     12 C9          4.0139    2.6094    2.4812 C.ar      1 <0>         0.1850
     13 C10         3.2033    2.5259    3.6086 C.ar      1 <0>        -0.1649
     14 C11         3.7597    2.5612    4.8729 C.ar      1 <0>        -0.0801
     15 C12         5.1280    2.6793    5.0277 C.ar      1 <0>        -0.1283
     16 C13         5.9435    2.7651    3.9143 C.ar      1 <0>        -0.0543
     17 C14         5.3912    2.7328    2.6416 C.ar      1 <0>        -0.1487
     18 S1          6.4447    2.8536    1.2352 S.3       1 <0>         0.0334
     19 C15         5.3514    3.2711   -0.0815 C.ar      1 <0>        -0.1560
     20 C16         3.9807    3.0807    0.0571 C.ar      1 <0>         0.2073
     21 C17         3.1391    3.4181   -0.9969 C.ar      1 <0>        -0.1491
     22 C18         3.6637    3.9309   -2.1755 C.ar      1 <0>        -0.0444
     23 C19         5.0342    4.1090   -2.3068 C.ar      1 <0>        -0.1462
     24 C20         5.8696    3.7867   -1.2603 C.ar      1 <0>        -0.0333
     25 S2          2.5893    4.3553   -3.5060 S.3       1 <0>        -0.1137
     26 C21         3.7086    4.9669   -4.7959 C.3       1 <0>        -0.1435
     27 H2         -0.2348    4.4533    2.8329 H         1 <0>         0.1242
     28 H3         -1.9826    4.4850    3.1683 H         1 <0>         0.1268
     29 H4         -1.0168    3.0575    3.6130 H         1 <0>         0.1229
     30 H5         -2.7016    1.7804    2.2896 H         1 <0>         0.1285
     31 H6         -3.4837    3.3210    1.8636 H         1 <0>         0.1318
     32 H7         -4.0056    1.5642    0.1923 H         1 <0>         0.1132
     33 H8         -3.0495    2.8771   -0.5379 H         1 <0>         0.0884
     34 H9         -1.9720    0.2007    0.4631 H         1 <0>         0.0824
     35 H10        -2.1435    0.6972   -1.2391 H         1 <0>         0.0966
     36 H11         0.1941    0.9999   -0.3954 H         1 <0>         0.1125
     37 H12        -0.5496    2.5412   -0.8877 H         1 <0>         0.0914
     38 H13         1.0795    3.7170    0.5218 H         1 <0>         0.0979
     39 H14         1.1307    3.4453    2.2802 H         1 <0>         0.0990
     40 H15         2.0183    1.1511    1.8823 H         1 <0>         0.0959
     41 H16         2.0078    1.4644    0.1302 H         1 <0>         0.0961
     42 H17         2.1332    2.4333    3.4951 H         1 <0>         0.1224
     43 H18         3.1233    2.4958    5.7430 H         1 <0>         0.1320
     44 H19         5.5598    2.7050    6.0173 H         1 <0>         0.1363
     45 H20         7.0127    2.8577    4.0355 H         1 <0>         0.1381
     46 H21         2.0724    3.2810   -0.8981 H         1 <0>         0.1306
     47 H22         5.4429    4.5065   -3.2241 H         1 <0>         0.1358
     48 H23         6.9356    3.9267   -1.3633 H         1 <0>         0.1409
     49 H24         4.4111    4.1800   -5.0704 H         1 <0>         0.0900
     50 H25         3.1288    5.2582   -5.6718 H         1 <0>         0.1152
     51 H26         4.2583    5.8301   -4.4206 H         1 <0>         0.0894
     52 H27        -1.4078    3.9913    0.8605 H         1 <0>         0.4234
@<TRIPOS>BOND
     1    1    2 1
     2    1   27 1
     3    1   28 1
     4    1   29 1
     5    2    7 1
     6    2    3 1
     7    2   52 1
     8    3    4 1
     9    3   30 1
    10    3   31 1
    11    4    5 1
    12    4   32 1
    13    4   33 1
    14    5    6 1
    15    5   34 1
    16    5   35 1
    17    6    7 1
    18    6   36 1
    19    6   37 1
    20    7    8 1
    21    7    9 1
    22    9   10 1
    23    9   38 1
    24    9   39 1
    25   10   11 1
    26   10   40 1
    27   10   41 1
    28   11   20 1
    29   11   12 1
    30   12   17 ar
    31   12   13 ar
    32   13   14 ar
    33   13   42 1
    34   14   15 ar
    35   14   43 1
    36   15   16 ar
    37   15   44 1
    38   16   17 ar
    39   16   45 1
    40   17   18 1
    41   18   19 1
    42   19   24 ar
    43   19   20 ar
    44   20   21 ar
    45   21   22 ar
    46   21   46 1
    47   22   23 ar
    48   22   25 1
    49   23   24 ar
    50   23   47 1
    51   24   48 1
    52   25   26 1
    53   26   49 1
    54   26   50 1
    55   26   51 1
@<TRIPOS>MOLECULE
ZINC01530697
   52    55     0     0     0
SMALL
USER_CHARGES

@<TRIPOS>ATOM
      1 C1          3.1751    3.9957    0.6546 C.3       1 <0>        -0.0543
      2 N1          2.2566    3.2865   -0.2461 N.4       1 <0>        -0.3805
      3 C2          2.9839    2.8604   -1.4478 C.3       1 <0>        -0.0069
      4 C3          2.0144    2.1926   -2.4254 C.3       1 <0>        -0.1470
      5 C4          1.3787    0.9728   -1.7522 C.3       1 <0>        -0.1373
      6 C5          0.6861    1.4179   -0.4609 C.3       1 <0>        -0.1459
      7 C6          1.7047    2.1144    0.4439 C.3       1 <0>         0.0306
      8 H1          2.5112    1.4212    0.6833 H         1 <0>         0.1397
      9 C7          1.0172    2.5607    1.7358 C.3       1 <0>        -0.1811
     10 C8          0.5179    1.3320    2.4986 C.3       1 <0>         0.1193
     11 N2         -0.2067    1.7623    3.6969 N.pl3     1 <0>        -0.5619
     12 C9         -1.5768    1.9795    3.5767 C.ar      1 <0>         0.1847
     13 C10        -2.1019    2.2735    2.3225 C.ar      1 <0>        -0.1647
     14 C11        -3.4579    2.4889    2.1663 C.ar      1 <0>        -0.0800
     15 C12        -4.3044    2.4133    3.2562 C.ar      1 <0>        -0.1280
     16 C13        -3.7934    2.1236    4.5080 C.ar      1 <0>        -0.0546
     17 C14        -2.4323    1.9087    4.6726 C.ar      1 <0>        -0.1489
     18 S1         -1.7980    1.5511    6.2764 S.3       1 <0>         0.0335
     19 C15        -0.0680    1.8478    6.1263 C.ar      1 <0>        -0.1558
     20 C16         0.5259    1.9174    4.8706 C.ar      1 <0>         0.2078
     21 C17         1.8931    2.1526    4.7792 C.ar      1 <0>        -0.1492
     22 C18         2.6556    2.3074    5.9289 C.ar      1 <0>        -0.0444
     23 C19         2.0545    2.2277    7.1777 C.ar      1 <0>        -0.1462
     24 C20         0.6983    2.0065    7.2715 C.ar      1 <0>        -0.0330
     25 S2          4.3878    2.6049    5.8031 S.3       1 <0>        -0.1153
     26 C21         4.9372    2.7342    7.5270 C.3       1 <0>        -0.1430
     27 H2          3.9104    3.2946    1.0493 H         1 <0>         0.1239
     28 H3          3.6855    4.7861    0.1044 H         1 <0>         0.1271
     29 H4          2.6108    4.4326    1.4786 H         1 <0>         0.1242
     30 H5          3.4384    3.7292   -1.9240 H         1 <0>         0.1320
     31 H6          3.7630    2.1513   -1.1681 H         1 <0>         0.1290
     32 H7          1.2349    2.9009   -2.7060 H         1 <0>         0.0879
     33 H8          2.5567    1.8754   -3.3161 H         1 <0>         0.1132
     34 H9          0.6455    0.5266   -2.4240 H         1 <0>         0.0963
     35 H10         2.1522    0.2416   -1.5175 H         1 <0>         0.0830
     36 H11        -0.1210    2.1101   -0.7007 H         1 <0>         0.0904
     37 H12         0.2788    0.5468    0.0525 H         1 <0>         0.1129
     38 H13         1.7276    3.1088    2.3548 H         1 <0>         0.0984
     39 H14         0.1728    3.2060    1.4937 H         1 <0>         0.0981
     40 H15        -0.1486    0.7534    1.8590 H         1 <0>         0.0974
     41 H16         1.3680    0.7151    2.7900 H         1 <0>         0.0952
     42 H17        -1.4463    2.3341    1.4664 H         1 <0>         0.1242
     43 H18        -3.8576    2.7167    1.1892 H         1 <0>         0.1322
     44 H19        -5.3639    2.5805    3.1303 H         1 <0>         0.1363
     45 H20        -4.4550    2.0649    5.3596 H         1 <0>         0.1380
     46 H21         2.3641    2.2154    3.8093 H         1 <0>         0.1289
     47 H22         2.6474    2.3466    8.0724 H         1 <0>         0.1358
     48 H23         0.2315    1.9456    8.2436 H         1 <0>         0.1410
     49 H24         4.7172    1.8031    8.0493 H         1 <0>         0.0901
     50 H25         6.0108    2.9206    7.5532 H         1 <0>         0.1152
     51 H26         4.4136    3.5566    8.0145 H         1 <0>         0.0895
     52 H27         1.5043    3.9040   -0.5121 H         1 <0>         0.4225
@<TRIPOS>BOND
     1    1    2 1
     2    1   27 1
     3    1   28 1
     4    1   29 1
     5    2    7 1
     6    2    3 1
     7    2   52 1
     8    3    4 1
     9    3   30 1
    10    3   31 1
    11    4    5 1
    12    4   32 1
    13    4   33 1
    14    5    6 1
    15    5   34 1
    16    5   35 1
    17    6    7 1
    18    6   36 1
    19    6   37 1
    20    7    8 1
    21    7    9 1
    22    9   10 1
    23    9   38 1
    24    9   39 1
    25   10   11 1
    26   10   40 1
    27   10   41 1
    28   11   20 1
    29   11   12 1
    30   12   17 ar
    31   12   13 ar
    32   13   14 ar
    33   13   42 1
    34   14   15 ar
    35   14   43 1
    36   15   16 ar
    37   15   44 1
    38   16   17 ar
    39   16   45 1
    40   17   18 1
    41   18   19 1
    42   19   24 ar
    43   19   20 ar
    44   20   21 ar
    45   21   22 ar
    46   21   46 1
    47   22   23 ar
    48   22   25 1
    49   23   24 ar
    50   23   47 1
    51   24   48 1
    52   25   26 1
    53   26   49 1
    54   26   50 1
    55   26   51 1
@<TRIPOS>MOLECULE
ZINC19228902
   54    57     0     0     0
SMALL
USER_CHARGES

@<TRIPOS>ATOM
      1 C1          3.4438   -4.9771    0.0386 C.ar      1 <0>        -0.0793
      2 C2          4.3860   -4.5768    0.9671 C.ar      1 <0>        -0.1271
      3 C3          4.2788   -3.3360    1.5681 C.ar      1 <0>        -0.0536
      4 C4          3.2264   -2.4924    1.2424 C.ar      1 <0>        -0.1509
      5 C5          2.2729   -2.8934    0.3107 C.ar      1 <0>         0.1839
      6 C6          2.3927   -4.1424   -0.2900 C.ar      1 <0>        -0.1631
      7 N1          1.1946   -2.0826   -0.0342 N.pl3     1 <0>        -0.5624
      8 C7          1.1706   -0.6956    0.0863 C.ar      1 <0>         0.1996
      9 C8          0.3021    0.0330   -0.7201 C.ar      1 <0>        -0.1597
     10 C9          0.2494    1.4113   -0.6229 C.ar      1 <0>         0.0015
     11 C10         1.0609    2.0766    0.2781 C.ar      1 <0>        -0.1200
     12 C11         1.9290    1.3618    1.0829 C.ar      1 <0>        -0.0418
     13 C12         1.9886   -0.0212    0.9884 C.ar      1 <0>        -0.1476
     14 S1          3.1088   -0.9132    2.0136 S.3       1 <0>         0.0418
     15 Cl1        -0.8381    2.3093   -1.6351 Cl        1 <0>        -0.0536
     16 C13        -0.0043   -2.7379   -0.5628 C.3       1 <0>         0.1199
     17 C14         0.1007   -2.8418   -2.0857 C.3       1 <0>        -0.1855
     18 C15        -1.1514   -3.5261   -2.6377 C.3       1 <0>        -0.0067
     19 N2         -1.0506   -3.6259   -4.0999 N.4       1 <0>        -0.3853
     20 C16        -1.0530   -2.2781   -4.6836 C.3       1 <0>        -0.0072
     21 C17        -0.9290   -2.3808   -6.2054 C.3       1 <0>         0.0273
     22 N3         -2.0545   -3.1644   -6.7340 N.3       1 <0>        -0.5293
     23 C18        -2.0797   -4.5083   -6.1396 C.3       1 <0>         0.0209
     24 C19        -2.1942   -4.3880   -4.6184 C.3       1 <0>        -0.0005
     25 C20        -2.0021   -3.2381   -8.2002 C.3       1 <0>         0.0537
     26 C21        -3.3066   -3.8390   -8.7276 C.3       1 <0>         0.0764
     27 O1         -4.3912   -2.9568   -8.4319 O.3       1 <0>        -0.5625
     28 H1          3.5317   -5.9437   -0.4350 H         1 <0>         0.1328
     29 H2          5.2050   -5.2326    1.2232 H         1 <0>         0.1371
     30 H3          5.0157   -3.0230    2.2930 H         1 <0>         0.1388
     31 H4          1.6605   -4.4613   -1.0170 H         1 <0>         0.1244
     32 H5         -0.3340   -0.4806   -1.4259 H         1 <0>         0.1341
     33 H6          1.0168    3.1531    0.3527 H         1 <0>         0.1475
     34 H7          2.5626    1.8814    1.7864 H         1 <0>         0.1485
     35 H8         -0.0907   -3.7369   -0.1356 H         1 <0>         0.0984
     36 H9         -0.8849   -2.1523   -0.2985 H         1 <0>         0.0968
     37 H10         0.1870   -1.8427   -2.5129 H         1 <0>         0.0962
     38 H11         0.9813   -3.4273   -2.3500 H         1 <0>         0.0973
     39 H12        -1.2377   -4.5252   -2.2105 H         1 <0>         0.1362
     40 H13        -2.0320   -2.9406   -2.3734 H         1 <0>         0.1358
     41 H14        -1.9847   -1.7732   -4.4283 H         1 <0>         0.1406
     42 H15        -0.2114   -1.7093   -4.2881 H         1 <0>         0.1346
     43 H16        -0.9458   -1.3814   -6.6400 H         1 <0>         0.1245
     44 H17         0.0090   -2.8734   -6.4614 H         1 <0>         0.0594
     45 H18        -2.9359   -5.0610   -6.5262 H         1 <0>         0.1240
     46 H19        -1.1606   -5.0360   -6.3945 H         1 <0>         0.0595
     47 H20        -2.1986   -5.3835   -4.1745 H         1 <0>         0.1361
     48 H21        -3.1200   -3.8724   -4.3634 H         1 <0>         0.1396
     49 H22        -1.8718   -2.2365   -8.6099 H         1 <0>         0.0975
     50 H23        -1.1643   -3.8663   -8.5027 H         1 <0>         0.0612
     51 H24        -3.2335   -3.9760   -9.8064 H         1 <0>         0.0598
     52 H25        -3.4818   -4.8030   -8.2499 H         1 <0>         0.0456
     53 H26        -5.2516   -3.2748   -8.7381 H         1 <0>         0.3848
     54 H27        -0.1931   -4.0972   -4.3463 H         1 <0>         0.4202
@<TRIPOS>BOND
     1    1    6 ar
     2    1    2 ar
     3    1   28 1
     4    2    3 ar
     5    2   29 1
     6    3    4 ar
     7    3   30 1
     8    4   14 1
     9    4    5 ar
    10    5    6 ar
    11    5    7 1
    12    6   31 1
    13    7    8 1
    14    7   16 1
    15    8   13 ar
    16    8    9 ar
    17    9   10 ar
    18    9   32 1
    19   10   11 ar
    20   10   15 1
    21   11   12 ar
    22   11   33 1
    23   12   13 ar
    24   12   34 1
    25   13   14 1
    26   16   17 1
    27   16   35 1
    28   16   36 1
    29   17   18 1
    30   17   37 1
    31   17   38 1
    32   18   19 1
    33   18   39 1
    34   18   40 1
    35   19   24 1
    36   19   20 1
    37   19   54 1
    38   20   21 1
    39   20   41 1
    40   20   42 1
    41   21   22 1
    42   21   43 1
    43   21   44 1
    44   22   23 1
    45   22   25 1
    46   23   24 1
    47   23   45 1
    48   23   46 1
    49   24   47 1
    50   24   48 1
    51   25   26 1
    52   25   49 1
    53   25   50 1
    54   26   27 1
    55   26   51 1
    56   26   52 1
    57   27   53 1
@<TRIPOS>MOLECULE
ZINC19228902
   53    56     0     0     0
SMALL
USER_CHARGES

@<TRIPOS>ATOM
      1 C1          3.4438   -4.9771    0.0386 C.ar      1 <0>        -0.0780
      2 C2          4.3860   -4.5768    0.9671 C.ar      1 <0>        -0.1364
      3 C3          4.2788   -3.3360    1.5681 C.ar      1 <0>        -0.0588
      4 C4          3.2264   -2.4923    1.2424 C.ar      1 <0>        -0.1554
      5 C5          2.2729   -2.8934    0.3107 C.ar      1 <0>         0.1928
      6 C6          2.3927   -4.1424   -0.2900 C.ar      1 <0>        -0.1574
      7 N1          1.1946   -2.0826   -0.0342 N.pl3     1 <0>        -0.5615
      8 C7          1.1706   -0.6956    0.0863 C.ar      1 <0>         0.2095
      9 C8          0.3021    0.0330   -0.7201 C.ar      1 <0>        -0.1556
     10 C9          0.2494    1.4113   -0.6229 C.ar      1 <0>         0.0045
     11 C10         1.0609    2.0766    0.2781 C.ar      1 <0>        -0.1296
     12 C11         1.9290    1.3618    1.0829 C.ar      1 <0>        -0.0462
     13 C12         1.9886   -0.0212    0.9884 C.ar      1 <0>        -0.1523
     14 S1          3.1088   -0.9132    2.0136 S.3       1 <0>         0.0250
     15 Cl1        -0.8381    2.3093   -1.6352 Cl        1 <0>        -0.0578
     16 C13        -0.0043   -2.7379   -0.5628 C.3       1 <0>         0.1120
     17 C14         0.1007   -2.8418   -2.0857 C.3       1 <0>        -0.1450
     18 C15        -1.1514   -3.5261   -2.6377 C.3       1 <0>         0.0580
     19 N2         -1.0506   -3.6259   -4.0999 N.3       1 <0>        -0.5386
     20 C16        -1.0805   -2.2948   -4.7219 C.3       1 <0>         0.0552
     21 C17        -0.8935   -2.4371   -6.2343 C.3       1 <0>         0.0577
     22 N3         -1.9566   -3.2935   -6.7783 N.3       1 <0>        -0.5305
     23 C18        -1.9267   -4.6246   -6.1563 C.3       1 <0>         0.0543
     24 C19        -2.1137   -4.4823   -4.6439 C.3       1 <0>         0.0588
     25 C20        -1.8558   -3.3932   -8.2404 C.3       1 <0>         0.0540
     26 C21        -3.1079   -4.0776   -8.7925 C.3       1 <0>         0.0794
     27 O1         -4.2488   -3.2527   -8.5476 O.3       1 <0>        -0.5597
     28 H1          3.5317   -5.9437   -0.4349 H         1 <0>         0.1313
     29 H2          5.2050   -5.2326    1.2233 H         1 <0>         0.1322
     30 H3          5.0157   -3.0230    2.2930 H         1 <0>         0.1337
     31 H4          1.6605   -4.4613   -1.0170 H         1 <0>         0.1353
     32 H5         -0.3340   -0.4806   -1.4259 H         1 <0>         0.1424
     33 H6          1.0169    3.1531    0.3527 H         1 <0>         0.1429
     34 H7          2.5626    1.8814    1.7864 H         1 <0>         0.1438
     35 H8         -0.0907   -3.7369   -0.1356 H         1 <0>         0.0890
     36 H9         -0.8849   -2.1523   -0.2985 H         1 <0>         0.0854
     37 H10         0.1870   -1.8427   -2.5129 H         1 <0>         0.0726
     38 H11         0.9813   -3.4273   -2.3500 H         1 <0>         0.0824
     39 H12        -1.2377   -4.5252   -2.2105 H         1 <0>         0.0782
     40 H13        -2.0320   -2.9406   -2.3734 H         1 <0>         0.0387
     41 H14        -2.0397   -1.8193   -4.5172 H         1 <0>         0.0449
     42 H15        -0.2764   -1.6837   -4.3119 H         1 <0>         0.0802
     43 H16        -0.9444   -1.4534   -6.7011 H         1 <0>         0.0800
     44 H17         0.0774   -2.8878   -6.4398 H         1 <0>         0.0415
     45 H18        -2.7308   -5.2357   -6.5662 H         1 <0>         0.0801
     46 H19        -0.9675   -5.1001   -6.3609 H         1 <0>         0.0414
     47 H20        -2.0628   -5.4660   -4.1771 H         1 <0>         0.0795
     48 H21        -3.0846   -4.0316   -4.4383 H         1 <0>         0.0445
     49 H22        -1.7695   -2.3942   -8.6677 H         1 <0>         0.0832
     50 H23        -0.9752   -3.9788   -8.5047 H         1 <0>         0.0491
     51 H24        -2.9945   -4.2317   -9.8655 H         1 <0>         0.0488
     52 H25        -3.2431   -5.0403   -8.2994 H         1 <0>         0.0453
     53 H26        -5.0802   -3.6250   -8.8719 H         1 <0>         0.3753
@<TRIPOS>BOND
     1    1    6 ar
     2    1    2 ar
     3    1   28 1
     4    2    3 ar
     5    2   29 1
     6    3    4 ar
     7    3   30 1
     8    4   14 1
     9    4    5 ar
    10    5    6 ar
    11    5    7 1
    12    6   31 1
    13    7    8 1
    14    7   16 1
    15    8   13 ar
    16    8    9 ar
    17    9   10 ar
    18    9   32 1
    19   10   11 ar
    20   10   15 1
    21   11   12 ar
    22   11   33 1
    23   12   13 ar
    24   12   34 1
    25   13   14 1
    26   16   17 1
    27   16   35 1
    28   16   36 1
    29   17   18 1
    30   17   37 1
    31   17   38 1
    32   18   19 1
    33   18   39 1
    34   18   40 1
    35   19   24 1
    36   19   20 1
    37   20   21 1
    38   20   41 1
    39   20   42 1
    40   21   22 1
    41   21   43 1
    42   21   44 1
    43   22   23 1
    44   22   25 1
    45   23   24 1
    46   23   45 1
    47   23   46 1
    48   24   47 1
    49   24   48 1
    50   25   26 1
    51   25   49 1
    52   25   50 1
    53   26   27 1
    54   26   51 1
    55   26   52 1
    56   27   53 1
@<TRIPOS>MOLECULE
ZINC00538507
   44    46     0     0     0
SMALL
USER_CHARGES

@<TRIPOS>ATOM
      1 C1         -5.6316    1.3383    0.7084 C.3       1 <0>        -0.0478
      2 N1         -5.6281   -0.1096    0.4606 N.4       1 <0>        -0.3871
      3 C2         -6.4322   -0.4041   -0.7330 C.3       1 <0>        -0.0541
      4 C3         -4.2484   -0.5664    0.2464 C.3       1 <0>        -0.0095
      5 C4         -4.2308   -2.0904    0.1123 C.3       1 <0>        -0.1871
      6 C5         -2.7938   -2.5661   -0.1108 C.3       1 <0>         0.1178
      7 N2         -2.7769   -4.0254   -0.2392 N.pl3     1 <0>        -0.5626
      8 C6         -2.9202   -4.5605   -1.5166 C.ar      1 <0>         0.1852
      9 C7         -3.5484   -3.7983   -2.4964 C.ar      1 <0>        -0.1636
     10 C8         -3.7022   -4.2959   -3.7762 C.ar      1 <0>        -0.0770
     11 C9         -3.2330   -5.5564   -4.0936 C.ar      1 <0>        -0.1270
     12 C10        -2.6086   -6.3238   -3.1274 C.ar      1 <0>        -0.0510
     13 C11        -2.4523   -5.8311   -1.8396 C.ar      1 <0>        -0.1554
     14 S1         -1.6633   -6.8269   -0.6196 S.3       1 <0>         0.0511
     15 C12        -2.1155   -6.0701    0.9053 C.ar      1 <0>        -0.1202
     16 C13        -2.6132   -4.7717    0.9248 C.ar      1 <0>         0.1856
     17 C14        -2.9622   -4.1990    2.1432 C.ar      1 <0>        -0.1186
     18 C15        -2.8082   -4.9099    3.3186 C.ar      1 <0>        -0.1465
     19 C16        -2.3054   -6.1964    3.2925 C.ar      1 <0>        -0.0780
     20 C17        -1.9672   -6.7771    2.0896 C.ar      1 <0>        -0.0563
     21 C18        -3.1895   -4.2792    4.6330 C.3       1 <0>         0.5108
     22 F1         -4.5313   -4.5593    4.9128 F         1 <0>        -0.1731
     23 F2         -2.3826   -4.7987    5.6510 F         1 <0>        -0.1678
     24 F3         -3.0086   -2.8941    4.5556 F         1 <0>        -0.1812
     25 H1         -6.6553    1.6773    0.8673 H         1 <0>         0.1262
     26 H2         -5.0349    1.5568    1.5940 H         1 <0>         0.1249
     27 H3         -5.2072    1.8553   -0.1523 H         1 <0>         0.1233
     28 H4         -6.4296   -1.4784   -0.9169 H         1 <0>         0.1228
     29 H5         -7.4559   -0.0651   -0.5741 H         1 <0>         0.1268
     30 H6         -6.0078    0.1129   -1.5937 H         1 <0>         0.1243
     31 H7         -3.8542   -0.1169   -0.6650 H         1 <0>         0.1351
     32 H8         -3.6315   -0.2691    1.0944 H         1 <0>         0.1359
     33 H9         -4.6250   -2.5399    1.0237 H         1 <0>         0.0953
     34 H10        -4.8477   -2.3877   -0.7357 H         1 <0>         0.0992
     35 H11        -2.3996   -2.1166   -1.0222 H         1 <0>         0.0997
     36 H12        -2.1769   -2.2688    0.7372 H         1 <0>         0.0972
     37 H13        -3.9181   -2.8127   -2.2552 H         1 <0>         0.1248
     38 H14        -4.1911   -3.6978   -4.5310 H         1 <0>         0.1338
     39 H15        -3.3541   -5.9420   -5.0952 H         1 <0>         0.1381
     40 H16        -2.2419   -7.3088   -3.3756 H         1 <0>         0.1396
     41 H17        -3.3561   -3.1938    2.1711 H         1 <0>         0.1366
     42 H18        -2.1846   -6.7484    4.2129 H         1 <0>         0.1505
     43 H19        -1.5749   -7.7831    2.0709 H         1 <0>         0.1516
     44 H20        -6.0209   -0.5882    1.2573 H         1 <0>         0.4280
@<TRIPOS>BOND
     1    1    2 1
     2    1   25 1
     3    1   26 1
     4    1   27 1
     5    2    3 1
     6    2    4 1
     7    2   44 1
     8    3   28 1
     9    3   29 1
    10    3   30 1
    11    4    5 1
    12    4   31 1
    13    4   32 1
    14    5    6 1
    15    5   33 1
    16    5   34 1
    17    6    7 1
    18    6   35 1
    19    6   36 1
    20    7   16 1
    21    7    8 1
    22    8   13 ar
    23    8    9 ar
    24    9   10 ar
    25    9   37 1
    26   10   11 ar
    27   10   38 1
    28   11   12 ar
    29   11   39 1
    30   12   13 ar
    31   12   40 1
    32   13   14 1
    33   14   15 1
    34   15   20 ar
    35   15   16 ar
    36   16   17 ar
    37   17   18 ar
    38   17   41 1
    39   18   19 ar
    40   18   21 1
    41   19   20 ar
    42   19   42 1
    43   20   43 1
    44   21   22 1
    45   21   23 1
    46   21   24 1
@<TRIPOS>MOLECULE
ZINC00044027
   41    43     0     0     0
SMALL
USER_CHARGES

@<TRIPOS>ATOM
      1 C1         -4.8538   -4.0638    0.9108 C.3       1 <0>        -0.0548
      2 N1         -4.6244   -2.8061    1.6344 N.4       1 <0>        -0.3863
      3 C2         -4.0000   -3.0949    2.9324 C.3       1 <0>        -0.0478
      4 C3         -3.7364   -1.9420    0.8453 C.3       1 <0>        -0.0093
      5 C4         -4.4383   -1.5396   -0.4533 C.3       1 <0>        -0.1865
      6 C5         -3.5134   -0.6397   -1.2752 C.3       1 <0>         0.1190
      7 N2         -4.1855   -0.2544   -2.5186 N.pl3     1 <0>        -0.5621
      8 C6         -4.9466    0.9115   -2.5039 C.ar      1 <0>         0.1833
      9 C7         -5.4466    1.3707   -1.2896 C.ar      1 <0>        -0.1632
     10 C8         -6.2007    2.5274   -1.2376 C.ar      1 <0>        -0.0789
     11 C9         -6.4648    3.2382   -2.3930 C.ar      1 <0>        -0.1269
     12 C10        -5.9746    2.7903   -3.6059 C.ar      1 <0>        -0.0533
     13 C11        -5.2180    1.6285   -3.6658 C.ar      1 <0>        -0.1513
     14 S1         -4.6102    1.0681   -5.2211 S.3       1 <0>         0.0418
     15 C12        -4.1728   -0.6126   -4.9268 C.ar      1 <0>        -0.1476
     16 C13        -4.0101   -1.0788   -3.6268 C.ar      1 <0>         0.2001
     17 C14        -3.6645   -2.4105   -3.4235 C.ar      1 <0>        -0.1605
     18 C15        -3.4778   -3.2563   -4.5018 C.ar      1 <0>         0.0017
     19 C16        -3.6338   -2.7836   -5.7916 C.ar      1 <0>        -0.1199
     20 C17        -3.9865   -1.4684   -6.0025 C.ar      1 <0>        -0.0415
     21 Cl1        -3.0468   -4.9167   -4.2348 Cl        1 <0>        -0.0547
     22 H1         -5.5127   -4.7049    1.4964 H         1 <0>         0.1270
     23 H2         -5.3171   -3.8495   -0.0523 H         1 <0>         0.1230
     24 H3         -3.9018   -4.5701    0.7514 H         1 <0>         0.1245
     25 H4         -3.0479   -3.6012    2.7730 H         1 <0>         0.1232
     26 H5         -3.8297   -2.1617    3.4693 H         1 <0>         0.1245
     27 H6         -4.6589   -3.7360    3.5180 H         1 <0>         0.1260
     28 H7         -3.4947   -1.0479    1.4199 H         1 <0>         0.1356
     29 H8         -2.8190   -2.4818    0.6102 H         1 <0>         0.1342
     30 H9         -4.6799   -2.4338   -1.0279 H         1 <0>         0.0966
     31 H10        -5.3556   -0.9999   -0.2183 H         1 <0>         0.0979
     32 H11        -3.2718    0.2545   -0.7007 H         1 <0>         0.0984
     33 H12        -2.5960   -1.1794   -1.5103 H         1 <0>         0.0962
     34 H13        -5.2447    0.8199   -0.3828 H         1 <0>         0.1245
     35 H14        -6.5853    2.8770   -0.2909 H         1 <0>         0.1332
     36 H15        -7.0538    4.1423   -2.3487 H         1 <0>         0.1374
     37 H16        -6.1810    3.3459   -4.5088 H         1 <0>         0.1390
     38 H17        -3.5416   -2.7862   -2.4184 H         1 <0>         0.1339
     39 H18        -3.4863   -3.4459   -6.6318 H         1 <0>         0.1476
     40 H19        -4.1082   -1.1006   -7.0106 H         1 <0>         0.1483
     41 H20        -5.5056   -2.3374    1.7820 H         1 <0>         0.4275
@<TRIPOS>BOND
     1    1    2 1
     2    1   22 1
     3    1   23 1
     4    1   24 1
     5    2    3 1
     6    2    4 1
     7    2   41 1
     8    3   25 1
     9    3   26 1
    10    3   27 1
    11    4    5 1
    12    4   28 1
    13    4   29 1
    14    5    6 1
    15    5   30 1
    16    5   31 1
    17    6    7 1
    18    6   32 1
    19    6   33 1
    20    7   16 1
    21    7    8 1
    22    8   13 ar
    23    8    9 ar
    24    9   10 ar
    25    9   34 1
    26   10   11 ar
    27   10   35 1
    28   11   12 ar
    29   11   36 1
    30   12   13 ar
    31   12   37 1
    32   13   14 1
    33   14   15 1
    34   15   20 ar
    35   15   16 ar
    36   16   17 ar
    37   17   18 ar
    38   17   38 1
    39   18   19 ar
    40   18   21 1
    41   19   20 ar
    42   19   39 1
    43   20   40 1
@<TRIPOS>MOLECULE
ZINC19203912
   57    60     0     0     0
SMALL
USER_CHARGES

@<TRIPOS>ATOM
      1 C1          3.4437   -4.9771    0.0368 C.ar      1 <0>        -0.0771
      2 C2          4.3861   -4.5771    0.9651 C.ar      1 <0>        -0.1269
      3 C3          4.2792   -3.3364    1.5664 C.ar      1 <0>        -0.0516
      4 C4          3.2267   -2.4926    1.2411 C.ar      1 <0>        -0.1551
      5 C5          2.2729   -2.8934    0.3097 C.ar      1 <0>         0.1852
      6 C6          2.3926   -4.1422   -0.2915 C.ar      1 <0>        -0.1628
      7 N1          1.1945   -2.0826   -0.0347 N.pl3     1 <0>        -0.5629
      8 C7          1.1709   -0.6955    0.0853 C.ar      1 <0>         0.1857
      9 C8          0.3025    0.0332   -0.7210 C.ar      1 <0>        -0.1188
     10 C9          0.2496    1.4106   -0.6236 C.ar      1 <0>        -0.1465
     11 C10         1.0603    2.0760    0.2765 C.ar      1 <0>        -0.0780
     12 C11         1.9293    1.3621    1.0812 C.ar      1 <0>        -0.0563
     13 C12         1.9888   -0.0211    0.9875 C.ar      1 <0>        -0.1199
     14 S1          3.1095   -0.9136    2.0128 S.3       1 <0>         0.0509
     15 C13        -0.6948    2.1899   -1.5021 C.3       1 <0>         0.5116
     16 F1         -1.9265    2.3299   -0.8537 F         1 <0>        -0.1708
     17 F2         -0.1562    3.4554   -1.7584 F         1 <0>        -0.1684
     18 F3         -0.8783    1.5079   -2.7097 F         1 <0>        -0.1835
     19 C14        -0.0045   -2.7378   -0.5632 C.3       1 <0>         0.1189
     20 C15         0.1003   -2.8415   -2.0861 C.3       1 <0>        -0.1867
     21 C16        -1.1519   -3.5258   -2.6381 C.3       1 <0>        -0.0069
     22 N2         -1.0512   -3.6254   -4.1003 N.4       1 <0>        -0.3853
     23 C17        -1.0537   -2.2775   -4.6839 C.3       1 <0>        -0.0077
     24 C18        -0.9298   -2.3801   -6.2057 C.3       1 <0>         0.0276
     25 N3         -2.0555   -3.1635   -6.7342 N.3       1 <0>        -0.5292
     26 C19        -2.0806   -4.5075   -6.1400 C.3       1 <0>         0.0210
     27 C20        -2.1949   -4.3874   -4.6187 C.3       1 <0>        -0.0006
     28 C21        -2.0033   -3.2371   -8.2004 C.3       1 <0>         0.0537
     29 C22        -3.3078   -3.8378   -8.7277 C.3       1 <0>         0.0765
     30 O1         -4.3924   -2.9556   -8.4318 O.3       1 <0>        -0.5623
     31 H1          3.5314   -5.9436   -0.4370 H         1 <0>         0.1336
     32 H2          5.2052   -5.2329    1.2209 H         1 <0>         0.1378
     33 H3          5.0162   -3.0236    2.2912 H         1 <0>         0.1394
     34 H4          1.6604   -4.4608   -1.0187 H         1 <0>         0.1253
     35 H5         -0.3339   -0.4802   -1.4266 H         1 <0>         0.1363
     36 H6          1.0153    3.1525    0.3512 H         1 <0>         0.1503
     37 H7          2.5627    1.8822    1.7845 H         1 <0>         0.1518
     38 H8         -0.0908   -3.7369   -0.1361 H         1 <0>         0.1000
     39 H9         -0.8850   -2.1522   -0.2987 H         1 <0>         0.0969
     40 H10         0.1866   -1.8424   -2.5133 H         1 <0>         0.0961
     41 H11         0.9808   -3.4271   -2.3506 H         1 <0>         0.0983
     42 H12        -1.2382   -4.5248   -2.2109 H         1 <0>         0.1366
     43 H13        -2.0324   -2.9402   -2.3736 H         1 <0>         0.1359
     44 H14        -1.9853   -1.7726   -4.4284 H         1 <0>         0.1410
     45 H15        -0.2120   -1.7088   -4.2884 H         1 <0>         0.1346
     46 H16        -0.9466   -1.3806   -6.6402 H         1 <0>         0.1248
     47 H17         0.0081   -2.8727   -6.4619 H         1 <0>         0.0594
     48 H18        -2.9369   -5.0601   -6.5265 H         1 <0>         0.1240
     49 H19        -1.1616   -5.0352   -6.3950 H         1 <0>         0.0595
     50 H20        -2.1994   -5.3829   -4.1749 H         1 <0>         0.1362
     51 H21        -3.1207   -3.8717   -4.3635 H         1 <0>         0.1397
     52 H22        -1.8729   -2.2354   -8.6100 H         1 <0>         0.0976
     53 H23        -1.1655   -3.8653   -8.5031 H         1 <0>         0.0611
     54 H24        -3.2348   -3.9748   -9.8066 H         1 <0>         0.0597
     55 H25        -3.4830   -4.8019   -8.2501 H         1 <0>         0.0455
     56 H26        -5.2528   -3.2736   -8.7380 H         1 <0>         0.3848
     57 H27        -0.1938   -4.0966   -4.3468 H         1 <0>         0.4201
@<TRIPOS>BOND
     1    1    6 ar
     2    1    2 ar
     3    1   31 1
     4    2    3 ar
     5    2   32 1
     6    3    4 ar
     7    3   33 1
     8    4   14 1
     9    4    5 ar
    10    5    6 ar
    11    5    7 1
    12    6   34 1
    13    7    8 1
    14    7   19 1
    15    8   13 ar
    16    8    9 ar
    17    9   10 ar
    18    9   35 1
    19   10   11 ar
    20   10   15 1
    21   11   12 ar
    22   11   36 1
    23   12   13 ar
    24   12   37 1
    25   13   14 1
    26   15   16 1
    27   15   17 1
    28   15   18 1
    29   19   20 1
    30   19   38 1
    31   19   39 1
    32   20   21 1
    33   20   40 1
    34   20   41 1
    35   21   22 1
    36   21   42 1
    37   21   43 1
    38   22   27 1
    39   22   23 1
    40   22   57 1
    41   23   24 1
    42   23   44 1
    43   23   45 1
    44   24   25 1
    45   24   46 1
    46   24   47 1
    47   25   26 1
    48   25   28 1
    49   26   27 1
    50   26   48 1
    51   26   49 1
    52   27   50 1
    53   27   51 1
    54   28   29 1
    55   28   52 1
    56   28   53 1
    57   29   30 1
    58   29   54 1
    59   29   55 1
    60   30   56 1
@<TRIPOS>MOLECULE
ZINC19203912
   56    59     0     0     0
SMALL
USER_CHARGES

@<TRIPOS>ATOM
      1 C1          3.4437   -4.9771    0.0368 C.ar      1 <0>        -0.0761
      2 C2          4.3861   -4.5771    0.9651 C.ar      1 <0>        -0.1361
      3 C3          4.2791   -3.3364    1.5665 C.ar      1 <0>        -0.0570
      4 C4          3.2267   -2.4926    1.2411 C.ar      1 <0>        -0.1593
      5 C5          2.2729   -2.8934    0.3097 C.ar      1 <0>         0.1939
      6 C6          2.3926   -4.1423   -0.2915 C.ar      1 <0>        -0.1569
      7 N1          1.1945   -2.0826   -0.0347 N.pl3     1 <0>        -0.5619
      8 C7          1.1709   -0.6955    0.0853 C.ar      1 <0>         0.1955
      9 C8          0.3025    0.0332   -0.7210 C.ar      1 <0>        -0.1146
     10 C9          0.2496    1.4106   -0.6236 C.ar      1 <0>        -0.1450
     11 C10         1.0603    2.0760    0.2765 C.ar      1 <0>        -0.0881
     12 C11         1.9293    1.3621    1.0812 C.ar      1 <0>        -0.0606
     13 C12         1.9888   -0.0211    0.9875 C.ar      1 <0>        -0.1248
     14 S1          3.1095   -0.9136    2.0128 S.3       1 <0>         0.0333
     15 C13        -0.6948    2.1899   -1.5021 C.3       1 <0>         0.5100
     16 F1         -1.9265    2.3299   -0.8538 F         1 <0>        -0.1736
     17 F2         -0.1562    3.4554   -1.7585 F         1 <0>        -0.1731
     18 F3         -0.8783    1.5079   -2.7098 F         1 <0>        -0.1757
     19 C14        -0.0045   -2.7378   -0.5632 C.3       1 <0>         0.1110
     20 C15         0.1003   -2.8415   -2.0861 C.3       1 <0>        -0.1461
     21 C16        -1.1519   -3.5258   -2.6381 C.3       1 <0>         0.0578
     22 N2         -1.0512   -3.6254   -4.1003 N.3       1 <0>        -0.5385
     23 C17        -1.0812   -2.2942   -4.7221 C.3       1 <0>         0.0549
     24 C18        -0.8944   -2.4363   -6.2345 C.3       1 <0>         0.0578
     25 N3         -1.9576   -3.2926   -6.7785 N.3       1 <0>        -0.5305
     26 C19        -1.9276   -4.6238   -6.1566 C.3       1 <0>         0.0544
     27 C20        -2.1144   -4.4817   -4.6442 C.3       1 <0>         0.0587
     28 C21        -1.8569   -3.3922   -8.2407 C.3       1 <0>         0.0540
     29 C22        -3.1092   -4.0765   -8.7927 C.3       1 <0>         0.0795
     30 O1         -4.2499   -3.2515   -8.5476 O.3       1 <0>        -0.5595
     31 H1          3.5314   -5.9437   -0.4370 H         1 <0>         0.1321
     32 H2          5.2051   -5.2329    1.2210 H         1 <0>         0.1329
     33 H3          5.0162   -3.0236    2.2912 H         1 <0>         0.1343
     34 H4          1.6604   -4.4608   -1.0187 H         1 <0>         0.1361
     35 H5         -0.3339   -0.4802   -1.4266 H         1 <0>         0.1444
     36 H6          1.0154    3.1525    0.3511 H         1 <0>         0.1457
     37 H7          2.5627    1.8822    1.7845 H         1 <0>         0.1470
     38 H8         -0.0908   -3.7369   -0.1361 H         1 <0>         0.0906
     39 H9         -0.8850   -2.1522   -0.2987 H         1 <0>         0.0854
     40 H10         0.1866   -1.8424   -2.5133 H         1 <0>         0.0726
     41 H11         0.9808   -3.4271   -2.3506 H         1 <0>         0.0833
     42 H12        -1.2382   -4.5248   -2.2109 H         1 <0>         0.0786
     43 H13        -2.0324   -2.9402   -2.3736 H         1 <0>         0.0388
     44 H14        -2.0403   -1.8186   -4.5173 H         1 <0>         0.0453
     45 H15        -0.2770   -1.6831   -4.3122 H         1 <0>         0.0803
     46 H16        -0.9452   -1.4526   -6.7012 H         1 <0>         0.0803
     47 H17         0.0765   -2.8870   -6.4403 H         1 <0>         0.0414
     48 H18        -2.7318   -5.2348   -6.5666 H         1 <0>         0.0801
     49 H19        -0.9685   -5.0993   -6.3615 H         1 <0>         0.0413
     50 H20        -2.0636   -5.4654   -4.1775 H         1 <0>         0.0795
     51 H21        -3.0853   -4.0310   -4.4385 H         1 <0>         0.0447
     52 H22        -1.7706   -2.3931   -8.6678 H         1 <0>         0.0833
     53 H23        -0.9764   -3.9778   -8.5052 H         1 <0>         0.0490
     54 H24        -2.9959   -4.2305   -9.8658 H         1 <0>         0.0487
     55 H25        -3.2443   -5.0392   -8.2997 H         1 <0>         0.0452
     56 H26        -5.0815   -3.6238   -8.8718 H         1 <0>         0.3752
@<TRIPOS>BOND
     1    1    6 ar
     2    1    2 ar
     3    1   31 1
     4    2    3 ar
     5    2   32 1
     6    3    4 ar
     7    3   33 1
     8    4   14 1
     9    4    5 ar
    10    5    6 ar
    11    5    7 1
    12    6   34 1
    13    7    8 1
    14    7   19 1
    15    8   13 ar
    16    8    9 ar
    17    9   10 ar
    18    9   35 1
    19   10   11 ar
    20   10   15 1
    21   11   12 ar
    22   11   36 1
    23   12   13 ar
    24   12   37 1
    25   13   14 1
    26   15   16 1
    27   15   17 1
    28   15   18 1
    29   19   20 1
    30   19   38 1
    31   19   39 1
    32   20   21 1
    33   20   40 1
    34   20   41 1
    35   21   22 1
    36   21   42 1
    37   21   43 1
    38   22   27 1
    39   22   23 1
    40   23   24 1
    41   23   44 1
    42   23   45 1
    43   24   25 1
    44   24   46 1
    45   24   47 1
    46   25   26 1
    47   25   28 1
    48   26   27 1
    49   26   48 1
    50   26   49 1
    51   27   50 1
    52   27   51 1
    53   28   29 1
    54   28   52 1
    55   28   53 1
    56   29   30 1
    57   29   54 1
    58   29   55 1
    59   30   56 1
@<TRIPOS>MOLECULE
ZINC19796018
   50    53     0     0     0
SMALL
USER_CHARGES

@<TRIPOS>ATOM
      1 C1          0.4198    1.5427   -0.3189 C.3       1 <0>        -0.0460
      2 N1          0.3483    0.0770   -0.2501 N.4       1 <0>        -0.3882
      3 C2          0.9695   -0.5001   -1.4494 C.3       1 <0>        -0.0028
      4 C3          0.8785   -2.0264   -1.3871 C.3       1 <0>         0.0253
      5 N2          1.5651   -2.5063   -0.1795 N.3       1 <0>        -0.5378
      6 C4          0.9698   -1.9174    1.0283 C.3       1 <0>         0.0200
      7 C5          1.0601   -0.3920    0.9461 C.3       1 <0>        -0.0028
      8 C6          1.5486   -3.9737   -0.1127 C.3       1 <0>         0.0566
      9 C7          2.4761   -4.4435    1.0098 C.3       1 <0>        -0.1485
     10 C8          2.4590   -5.9719    1.0794 C.3       1 <0>         0.1127
     11 N3          3.3471   -6.4217    2.1542 N.pl3     1 <0>        -0.5620
     12 C9          2.7946   -6.5759    3.4230 C.ar      1 <0>         0.1908
     13 C10         1.6440   -5.8632    3.7446 C.ar      1 <0>        -0.1629
     14 C11         1.0659   -5.9969    4.9925 C.ar      1 <0>        -0.0806
     15 C12         1.6270   -6.8404    5.9324 C.ar      1 <0>        -0.1324
     16 C13         2.7717   -7.5524    5.6245 C.ar      1 <0>        -0.0549
     17 C14         3.3587   -7.4217    4.3739 C.ar      1 <0>        -0.1532
     18 S1          4.8221   -8.3291    4.0032 S.3       1 <0>         0.0341
     19 C15         5.4783   -7.5177    2.5841 C.ar      1 <0>        -0.1509
     20 C16         4.6781   -6.6680    1.8281 C.ar      1 <0>         0.2040
     21 C17         5.2220   -6.0404    0.7126 C.ar      1 <0>        -0.1559
     22 C18         6.5395   -6.2660    0.3570 C.ar      1 <0>         0.0031
     23 C19         7.3266   -7.1182    1.1092 C.ar      1 <0>        -0.1245
     24 C20         6.7994   -7.7361    2.2222 C.ar      1 <0>        -0.0442
     25 Cl1         7.2069   -5.4764   -1.0375 Cl        1 <0>        -0.0567
     26 H1          1.4632    1.8534   -0.3717 H         1 <0>         0.1233
     27 H2         -0.1084    1.8909   -1.2065 H         1 <0>         0.1247
     28 H3         -0.0424    1.9712    0.5704 H         1 <0>         0.1245
     29 H4          0.4486   -0.1410   -2.3370 H         1 <0>         0.1366
     30 H5          2.0164   -0.2002   -1.4964 H         1 <0>         0.1379
     31 H6         -0.1687   -2.3272   -1.3539 H         1 <0>         0.0615
     32 H7          1.3526   -2.4553   -2.2699 H         1 <0>         0.1246
     33 H8         -0.0759   -2.2164    1.1013 H         1 <0>         0.0618
     34 H9          1.5106   -2.2668    1.9078 H         1 <0>         0.1240
     35 H10         2.1065   -0.0927    0.8869 H         1 <0>         0.1378
     36 H11         0.6063    0.0473    1.8345 H         1 <0>         0.1361
     37 H12         0.5336   -4.3170    0.0871 H         1 <0>         0.0510
     38 H13         1.8908   -4.3846   -1.0625 H         1 <0>         0.0928
     39 H14         3.4912   -4.1003    0.8100 H         1 <0>         0.0866
     40 H15         2.1340   -4.0327    1.9597 H         1 <0>         0.0746
     41 H16         1.4440   -6.3151    1.2792 H         1 <0>         0.0879
     42 H17         2.8011   -6.3827    0.1295 H         1 <0>         0.0892
     43 H18         1.2005   -5.2017    3.0152 H         1 <0>         0.1264
     44 H19         0.1727   -5.4399    5.2342 H         1 <0>         0.1300
     45 H20         1.1721   -6.9432    6.9065 H         1 <0>         0.1347
     46 H21         3.2101   -8.2117    6.3592 H         1 <0>         0.1369
     47 H22         4.6127   -5.3731    0.1211 H         1 <0>         0.1409
     48 H23         8.3547   -7.2934    0.8286 H         1 <0>         0.1453
     49 H24         7.4156   -8.4014    2.8089 H         1 <0>         0.1459
     50 H25        -0.6177   -0.2104   -0.2007 H         1 <0>         0.4224
@<TRIPOS>BOND
     1    1    2 1
     2    1   26 1
     3    1   27 1
     4    1   28 1
     5    2    7 1
     6    2    3 1
     7    2   50 1
     8    3    4 1
     9    3   29 1
    10    3   30 1
    11    4    5 1
    12    4   31 1
    13    4   32 1
    14    5    6 1
    15    5    8 1
    16    6    7 1
    17    6   33 1
    18    6   34 1
    19    7   35 1
    20    7   36 1
    21    8    9 1
    22    8   37 1
    23    8   38 1
    24    9   10 1
    25    9   39 1
    26    9   40 1
    27   10   11 1
    28   10   41 1
    29   10   42 1
    30   11   20 1
    31   11   12 1
    32   12   17 ar
    33   12   13 ar
    34   13   14 ar
    35   13   43 1
    36   14   15 ar
    37   14   44 1
    38   15   16 ar
    39   15   45 1
    40   16   17 ar
    41   16   46 1
    42   17   18 1
    43   18   19 1
    44   19   24 ar
    45   19   20 ar
    46   20   21 ar
    47   21   22 ar
    48   21   47 1
    49   22   23 ar
    50   22   25 1
    51   23   24 ar
    52   23   48 1
    53   24   49 1
@<TRIPOS>MOLECULE
ZINC19796018
   50    53     0     0     0
SMALL
USER_CHARGES

@<TRIPOS>ATOM
      1 C1          0.4322    1.5258   -0.3007 C.3       1 <0>         0.0191
      2 N1          0.3588    0.0600   -0.2370 N.3       1 <0>        -0.5429
      3 C2          0.8892   -0.5478   -1.4656 C.3       1 <0>         0.0237
      4 C3          0.7403   -2.0686   -1.3842 C.3       1 <0>        -0.0021
      5 N2          1.4722   -2.5705   -0.2138 N.4       1 <0>        -0.3861
      6 C4          0.9151   -1.9735    1.0072 C.3       1 <0>        -0.0074
      7 C5          1.0655   -0.4519    0.9457 C.3       1 <0>         0.0249
      8 C6          1.3439   -4.0323   -0.1463 C.3       1 <0>        -0.0068
      9 C7          2.2068   -4.5677    0.9982 C.3       1 <0>        -0.1854
     10 C8          2.0732   -6.0902    1.0685 C.3       1 <0>         0.1193
     11 N3          2.8994   -6.6028    2.1644 N.pl3     1 <0>        -0.5619
     12 C9          2.3073   -6.7118    3.4198 C.ar      1 <0>         0.1840
     13 C10         1.2062   -5.9139    3.7136 C.ar      1 <0>        -0.1637
     14 C11         0.5904   -6.0006    4.9475 C.ar      1 <0>        -0.0788
     15 C12         1.0643   -6.8816    5.9011 C.ar      1 <0>        -0.1271
     16 C13         2.1592   -7.6783    5.6209 C.ar      1 <0>        -0.0532
     17 C14         2.7836   -7.5952    4.3845 C.ar      1 <0>        -0.1512
     18 S1          4.1830   -8.6109    4.0491 S.3       1 <0>         0.0415
     19 C15         4.9315   -7.8547    2.6454 C.ar      1 <0>        -0.1476
     20 C16         4.2155   -6.9492    1.8701 C.ar      1 <0>         0.2000
     21 C17         4.8312   -6.3670    0.7672 C.ar      1 <0>        -0.1598
     22 C18         6.1359   -6.6918    0.4431 C.ar      1 <0>         0.0018
     23 C19         6.8388   -7.5989    1.2143 C.ar      1 <0>        -0.1199
     24 C20         6.2406   -8.1726    2.3150 C.ar      1 <0>        -0.0418
     25 Cl1         6.8934   -5.9581   -0.9359 Cl        1 <0>        -0.0546
     26 H1          1.4758    1.8353   -0.3560 H         1 <0>         0.0398
     27 H2         -0.0986    1.8780   -1.1851 H         1 <0>         0.0845
     28 H3         -0.0263    1.9516    0.5919 H         1 <0>         0.0848
     29 H4          0.3339   -0.1735   -2.3256 H         1 <0>         0.1249
     30 H5          1.9430   -0.2908   -1.5729 H         1 <0>         0.0607
     31 H6         -0.3148   -2.3258   -1.2907 H         1 <0>         0.1391
     32 H7          1.1460   -2.5223   -2.2884 H         1 <0>         0.1370
     33 H8         -0.1409   -2.2312    1.0885 H         1 <0>         0.1396
     34 H9          1.4505   -2.3567    1.8759 H         1 <0>         0.1348
     35 H10         2.1222   -0.1933    0.8781 H         1 <0>         0.0605
     36 H11         0.6388   -0.0076    1.8449 H         1 <0>         0.1242
     37 H12         0.3015   -4.2979    0.0297 H         1 <0>         0.1361
     38 H13         1.6765   -4.4701   -1.0875 H         1 <0>         0.1362
     39 H14         3.2492   -4.3021    0.8222 H         1 <0>         0.0957
     40 H15         1.8743   -4.1299    1.9394 H         1 <0>         0.0979
     41 H16         1.0308   -6.3557    1.2445 H         1 <0>         0.0988
     42 H17         2.4058   -6.5280    0.1273 H         1 <0>         0.0967
     43 H18         0.8309   -5.2228    2.9734 H         1 <0>         0.1241
     44 H19        -0.2638   -5.3776    5.1677 H         1 <0>         0.1332
     45 H20         0.5801   -6.9475    6.8642 H         1 <0>         0.1372
     46 H21         2.5293   -8.3668    6.3662 H         1 <0>         0.1388
     47 H22         4.2878   -5.6573    0.1610 H         1 <0>         0.1343
     48 H23         7.8572   -7.8515    0.9583 H         1 <0>         0.1475
     49 H24         6.7911   -8.8808    2.9166 H         1 <0>         0.1482
     50 H25         2.4468   -2.3222   -0.2949 H         1 <0>         0.4210
@<TRIPOS>BOND
     1    1    2 1
     2    1   26 1
     3    1   27 1
     4    1   28 1
     5    2    7 1
     6    2    3 1
     7    3    4 1
     8    3   29 1
     9    3   30 1
    10    4    5 1
    11    4   31 1
    12    4   32 1
    13    5    6 1
    14    5    8 1
    15    5   50 1
    16    6    7 1
    17    6   33 1
    18    6   34 1
    19    7   35 1
    20    7   36 1
    21    8    9 1
    22    8   37 1
    23    8   38 1
    24    9   10 1
    25    9   39 1
    26    9   40 1
    27   10   11 1
    28   10   41 1
    29   10   42 1
    30   11   20 1
    31   11   12 1
    32   12   17 ar
    33   12   13 ar
    34   13   14 ar
    35   13   43 1
    36   14   15 ar
    37   14   44 1
    38   15   16 ar
    39   15   45 1
    40   16   17 ar
    41   16   46 1
    42   17   18 1
    43   18   19 1
    44   19   24 ar
    45   19   20 ar
    46   20   21 ar
    47   21   22 ar
    48   21   47 1
    49   22   23 ar
    50   22   25 1
    51   23   24 ar
    52   23   48 1
    53   24   49 1
@<TRIPOS>MOLECULE
ZINC01673962
   35    37     0     0     0
SMALL
USER_CHARGES
3-(2-chlorophenothiazin-10-yl)propan-1-amine
@<TRIPOS>ATOM
      1 C1          4.2161   -2.4851   -0.2296 C.ar      1 <0>        -0.0790
      2 C2          4.1746   -3.7805    0.2502 C.ar      1 <0>        -0.1267
      3 C3          2.9859   -4.4869    0.2272 C.ar      1 <0>        -0.0533
      4 C4          1.8345   -3.8983   -0.2761 C.ar      1 <0>        -0.1513
      5 C5          1.8733   -2.5925   -0.7622 C.ar      1 <0>         0.1830
      6 C6          3.0730   -1.8924   -0.7308 C.ar      1 <0>        -0.1638
      7 N1          0.7381   -1.9623   -1.2648 N.pl3     1 <0>        -0.5621
      8 C7         -0.3774   -2.6174   -1.7797 C.ar      1 <0>         0.1990
      9 C8         -1.1994   -1.9395   -2.6743 C.ar      1 <0>        -0.1602
     10 C9         -2.3181   -2.5574   -3.2019 C.ar      1 <0>         0.0013
     11 C10        -2.6283   -3.8570   -2.8440 C.ar      1 <0>        -0.1197
     12 C11        -1.8166   -4.5404   -1.9573 C.ar      1 <0>        -0.0415
     13 C12        -0.6922   -3.9261   -1.4249 C.ar      1 <0>        -0.1475
     14 S1          0.3307   -4.8151   -0.2995 S.3       1 <0>         0.0427
     15 Cl1        -3.3363   -1.6998   -4.3161 Cl        1 <0>        -0.0539
     16 C13         0.7182   -0.4975   -1.2568 C.3       1 <0>         0.1175
     17 C14         1.3085    0.0278   -2.5669 C.3       1 <0>        -0.1909
     18 C15         1.2878    1.5576   -2.5585 C.3       1 <0>        -0.0022
     19 H1          5.1450   -1.9344   -0.2132 H         1 <0>         0.1334
     20 H2          5.0695   -4.2407    0.6424 H         1 <0>         0.1376
     21 H3          2.9537   -5.4994    0.6015 H         1 <0>         0.1391
     22 H4          3.1127   -0.8797   -1.1039 H         1 <0>         0.1242
     23 H5         -0.9623   -0.9248   -2.9581 H         1 <0>         0.1342
     24 H6         -3.5031   -4.3374   -3.2569 H         1 <0>         0.1478
     25 H7         -2.0584   -5.5554   -1.6786 H         1 <0>         0.1489
     26 H8          1.3106   -0.1307   -0.4185 H         1 <0>         0.0988
     27 H9         -0.3095   -0.1486   -1.1557 H         1 <0>         0.0970
     28 H10         0.7162   -0.3390   -3.4052 H         1 <0>         0.0969
     29 H11         2.3362   -0.3211   -2.6681 H         1 <0>         0.0990
     30 H12         0.2601    1.9065   -2.4574 H         1 <0>         0.1365
     31 H13         1.8801    1.9244   -1.7203 H         1 <0>         0.1396
     32 H14         1.8520    3.0708   -3.8354 H         1 <0>         0.4430
     33 H15         2.7846    1.6998   -3.9649 H         1 <0>         0.4382
     34 N2          1.8380    2.0522   -3.8329 N.4       1 <0>        -0.6464
     35 H16         1.2473    1.7234   -4.6058 H         1 <0>         0.4409
@<TRIPOS>BOND
     1    1    6 ar
     2    1    2 ar
     3    1   19 1
     4    2    3 ar
     5    2   20 1
     6    3    4 ar
     7    3   21 1
     8    4   14 1
     9    4    5 ar
    10    5    6 ar
    11    5    7 1
    12    6   22 1
    13    7    8 1
    14    7   16 1
    15    8   13 ar
    16    8    9 ar
    17    9   10 ar
    18    9   23 1
    19   10   11 ar
    20   10   15 1
    21   11   12 ar
    22   11   24 1
    23   12   13 ar
    24   12   25 1
    25   13   14 1
    26   16   17 1
    27   16   26 1
    28   16   27 1
    29   17   18 1
    30   17   28 1
    31   17   29 1
    32   18   30 1
    33   18   31 1
    34   18   34 1
    35   32   34 1
    36   33   34 1
    37   34   35 1
@<TRIPOS>MOLECULE
ZINC00001137
   40    42     0     0     0
SMALL
USER_CHARGES

@<TRIPOS>ATOM
      1 C1         -0.6748    1.1418   -0.7339 C.3       1 <0>        -0.0546
      2 N1         -0.3316   -0.2500   -0.4129 N.4       1 <0>        -0.3867
      3 C2         -1.5537   -1.0650   -0.3990 C.3       1 <0>        -0.0471
      4 C3          0.5939   -0.7725   -1.4270 C.3       1 <0>        -0.0083
      5 C4          1.9147   -0.0034   -1.3566 C.3       1 <0>        -0.1286
      6 C5          2.8641   -0.5394   -2.3970 C.2       1 <0>        -0.1644
      7 C6          3.4662    0.3009   -3.2521 C.2       1 <0>        -0.0110
      8 C7          4.0375   -0.2409   -4.4991 C.ar      1 <0>        -0.0560
      9 C8          4.3686   -1.5979   -4.5583 C.ar      1 <0>        -0.0950
     10 C9          4.9050   -2.1310   -5.7101 C.ar      1 <0>        -0.1079
     11 C10         5.1196   -1.3249   -6.8157 C.ar      1 <0>        -0.0902
     12 C11         4.7973    0.0148   -6.7712 C.ar      1 <0>        -0.0869
     13 C12         4.2518    0.5698   -5.6149 C.ar      1 <0>        -0.1057
     14 S1          3.8473    2.2804   -5.5967 S.3       1 <0>         0.0693
     15 C13         3.7053    2.7093   -3.8978 C.ar      1 <0>        -0.0928
     16 C14         3.5286    1.7354   -2.9154 C.ar      1 <0>        -0.0481
     17 C15         3.4127    2.1219   -1.5773 C.ar      1 <0>        -0.1036
     18 C16         3.4679    3.4565   -1.2333 C.ar      1 <0>        -0.0395
     19 C17         3.6389    4.4208   -2.2134 C.ar      1 <0>        -0.0802
     20 C18         3.7644    4.0522   -3.5311 C.ar      1 <0>        -0.0766
     21 Cl1         3.3224    3.9289    0.4308 Cl        1 <0>        -0.0537
     22 H1          0.2320    1.7465   -0.7442 H         1 <0>         0.1222
     23 H2         -1.1495    1.1821   -1.7142 H         1 <0>         0.1237
     24 H3         -1.3615    1.5295    0.0186 H         1 <0>         0.1270
     25 H4         -2.0284   -1.0247   -1.3794 H         1 <0>         0.1223
     26 H5         -1.2990   -2.0977   -0.1609 H         1 <0>         0.1241
     27 H6         -2.2404   -0.6773    0.3534 H         1 <0>         0.1255
     28 H7          0.7790   -1.8302   -1.2395 H         1 <0>         0.1340
     29 H8          0.1547   -0.6504   -2.4171 H         1 <0>         0.1323
     30 H9          1.7296    1.0543   -1.5441 H         1 <0>         0.1045
     31 H10         2.3539   -0.1254   -0.3665 H         1 <0>         0.0992
     32 H11         3.0599   -1.5999   -2.4541 H         1 <0>         0.1393
     33 H12         4.2037   -2.2302   -3.6984 H         1 <0>         0.1311
     34 H13         5.1590   -3.1799   -5.7507 H         1 <0>         0.1356
     35 H14         5.5413   -1.7472   -7.7158 H         1 <0>         0.1388
     36 H15         4.9682    0.6374   -7.6370 H         1 <0>         0.1381
     37 H16         3.2791    1.3734   -0.8103 H         1 <0>         0.1465
     38 H17         3.6816    5.4647   -1.9397 H         1 <0>         0.1486
     39 H18         3.8971    4.8104   -4.2888 H         1 <0>         0.1481
     40 H19         0.1079   -0.2873    0.4946 H         1 <0>         0.4269
@<TRIPOS>BOND
     1    1    2 1
     2    1   22 1
     3    1   23 1
     4    1   24 1
     5    2    3 1
     6    2    4 1
     7    2   40 1
     8    3   25 1
     9    3   26 1
    10    3   27 1
    11    4    5 1
    12    4   28 1
    13    4   29 1
    14    5    6 1
    15    5   30 1
    16    5   31 1
    17    6    7 2
    18    6   32 1
    19    7   16 1
    20    7    8 1
    21    8   13 ar
    22    8    9 ar
    23    9   10 ar
    24    9   33 1
    25   10   11 ar
    26   10   34 1
    27   11   12 ar
    28   11   35 1
    29   12   13 ar
    30   12   36 1
    31   13   14 1
    32   14   15 1
    33   15   20 ar
    34   15   16 ar
    35   16   17 ar
    36   17   18 ar
    37   17   37 1
    38   18   19 ar
    39   18   21 1
    40   19   20 ar
    41   19   38 1
    42   20   39 1
