@<TRIPOS>MOLECULE
ZINC13488371
   58    58     0     0     0
SMALL
USER_CHARGES
7-[(2R)-2-[(3R)-3-hydroxyoctyl]-5-oxo-pyrrolidin-1-yl]heptanoic acid
@<TRIPOS>ATOM
      1 C1          3.3475   12.9117    1.2130 C.3       1 <0>        -0.1536
      2 C2          3.6822   11.4578    1.5520 C.3       1 <0>        -0.1265
      3 C3          2.6135   10.5370    0.9595 C.3       1 <0>        -0.1203
      4 C4          2.9482    9.0830    1.2985 C.3       1 <0>        -0.1179
      5 C5          1.8795    8.1623    0.7061 C.3       1 <0>        -0.1511
      6 C6          2.2141    6.7083    1.0451 C.3       1 <0>         0.1049
      7 H1          3.2235    6.4787    0.7037 H         1 <0>         0.0991
      8 C7          1.2167    5.7798    0.3493 C.3       1 <0>        -0.1479
      9 C8          1.6244    4.3242    0.5858 C.3       1 <0>        -0.1240
     10 C9          0.6780    3.3985   -0.1811 C.3       1 <0>         0.1300
     11 H2          0.6342    3.6884   -1.2309 H         1 <0>         0.0799
     12 C10        -0.7339    3.4403    0.4443 C.3       1 <0>        -0.1269
     13 C11        -1.2023    1.9767    0.2598 C.3       1 <0>        -0.1563
     14 C12         0.0841    1.1838    0.1882 C.2       1 <0>         0.5137
     15 O1          0.1679   -0.0182    0.3268 O.2       1 <0>        -0.5322
     16 N1          1.1200    2.0045   -0.0571 N.am      1 <0>        -0.6126
     17 C13         2.5115    1.5642   -0.1839 C.3       1 <0>         0.1210
     18 C14         2.8458    1.3493   -1.6614 C.3       1 <0>        -0.1327
     19 C15         4.2990    0.8894   -1.7938 C.3       1 <0>        -0.1164
     20 C16         4.6334    0.6745   -3.2712 C.3       1 <0>        -0.1177
     21 C17         6.0866    0.2146   -3.4036 C.3       1 <0>        -0.0986
     22 C18         6.4209   -0.0003   -4.8811 C.3       1 <0>        -0.1581
     23 C19         7.8523   -0.4532   -5.0115 C.2       1 <0>         0.4570
     24 O2          8.5350   -0.5901   -4.0241 O.co2     1 <0>        -0.6422
     25 O3          2.1349    6.5185    2.4592 O.3       1 <0>        -0.5586
     26 H3          3.3209   13.0355    0.1304 H         1 <0>         0.0532
     27 H4          2.3745   13.1678    1.6320 H         1 <0>         0.0523
     28 H5          4.1089   13.5677    1.6350 H         1 <0>         0.0530
     29 H6          3.7089   11.3340    2.6346 H         1 <0>         0.0606
     30 H7          4.6553   11.2017    1.1329 H         1 <0>         0.0614
     31 H8          2.5868   10.6608   -0.1231 H         1 <0>         0.0599
     32 H9          1.6404   10.7931    1.3786 H         1 <0>         0.0588
     33 H10         2.9748    8.9592    2.3812 H         1 <0>         0.0677
     34 H11         3.9212    8.8270    0.8795 H         1 <0>         0.0618
     35 H12         1.8528    8.2860   -0.3765 H         1 <0>         0.0713
     36 H13         0.9064    8.4183    1.1252 H         1 <0>         0.0640
     37 H14         1.2132    5.9869   -0.7208 H         1 <0>         0.0747
     38 H15         0.2193    5.9483    0.7553 H         1 <0>         0.0687
     39 H16         1.5683    4.0997    1.6510 H         1 <0>         0.0759
     40 H17         2.6452    4.1713    0.2355 H         1 <0>         0.0720
     41 H18        -0.6852    3.7079    1.4998 H         1 <0>         0.0832
     42 H19        -1.3819    4.1265   -0.1010 H         1 <0>         0.0882
     43 H20        -1.7689    1.8687   -0.6651 H         1 <0>         0.1030
     44 H21        -1.7999    1.6579    1.1138 H         1 <0>         0.0998
     45 H22         3.1726    2.3249    0.2313 H         1 <0>         0.0793
     46 H23         2.6475    0.6289    0.3592 H         1 <0>         0.0840
     47 H24         2.1847    0.5886   -2.0765 H         1 <0>         0.0638
     48 H25         2.7098    2.2845   -2.2044 H         1 <0>         0.0617
     49 H26         4.9601    1.6501   -1.3786 H         1 <0>         0.0625
     50 H27         4.4351   -0.0458   -1.2507 H         1 <0>         0.0637
     51 H28         3.9723   -0.0862   -3.6864 H         1 <0>         0.0562
     52 H29         4.4973    1.6097   -3.8143 H         1 <0>         0.0555
     53 H30         6.7477    0.9753   -2.9885 H         1 <0>         0.0589
     54 H31         6.2226   -0.7206   -2.8606 H         1 <0>         0.0594
     55 H32         5.7598   -0.7610   -5.2963 H         1 <0>         0.0613
     56 H33         6.2849    0.9350   -5.4242 H         1 <0>         0.0609
     57 H34         1.2628    6.7052    2.8329 H         1 <0>         0.3711
     58 O4          8.3688   -0.7046   -6.2247 O.co2     1 <0>        -0.7800
@<TRIPOS>BOND
     1    1    2 1
     2    1   26 1
     3    1   27 1
     4    1   28 1
     5    2    3 1
     6    2   29 1
     7    2   30 1
     8    3    4 1
     9    3   31 1
    10    3   32 1
    11    4    5 1
    12    4   33 1
    13    4   34 1
    14    5    6 1
    15    5   35 1
    16    5   36 1
    17    6    7 1
    18    6    8 1
    19    6   25 1
    20    8    9 1
    21    8   37 1
    22    8   38 1
    23    9   10 1
    24    9   39 1
    25    9   40 1
    26   10   11 1
    27   10   16 1
    28   10   12 1
    29   12   13 1
    30   12   41 1
    31   12   42 1
    32   13   14 1
    33   13   43 1
    34   13   44 1
    35   14   15 2
    36   14   16 am
    37   16   17 1
    38   17   18 1
    39   17   45 1
    40   17   46 1
    41   18   19 1
    42   18   47 1
    43   18   48 1
    44   19   20 1
    45   19   49 1
    46   19   50 1
    47   20   21 1
    48   20   51 1
    49   20   52 1
    50   21   22 1
    51   21   53 1
    52   21   54 1
    53   22   23 1
    54   22   55 1
    55   22   56 1
    56   23   24 2
    57   23   58 1
    58   25   57 1
@<TRIPOS>MOLECULE
ZINC13488372
   58    58     0     0     0
SMALL
USER_CHARGES
7-[(2R)-2-[(3S)-3-hydroxyoctyl]-5-oxo-pyrrolidin-1-yl]heptanoic acid
@<TRIPOS>ATOM
      1 C1         -4.5904   -8.4583    2.2855 C.3       1 <0>        -0.1532
      2 C2         -4.6441   -6.9326    2.3867 C.3       1 <0>        -0.1271
      3 C3         -3.4759   -6.3282    1.6051 C.3       1 <0>        -0.1195
      4 C4         -3.5295   -4.8025    1.7063 C.3       1 <0>        -0.1187
      5 C5         -2.3613   -4.1981    0.9247 C.3       1 <0>        -0.1503
      6 C6         -2.4150   -2.6724    1.0259 C.3       1 <0>         0.1046
      7 H1         -2.4342   -2.3783    2.0753 H         1 <0>         0.0980
      8 C7         -1.1799   -2.0727    0.3508 C.3       1 <0>        -0.1477
      9 C8         -1.1697   -0.5571    0.5599 C.3       1 <0>        -0.1255
     10 C9          0.0268    0.0510   -0.1746 C.3       1 <0>         0.1315
     11 H2          0.0307   -0.2657   -1.2176 H         1 <0>         0.0786
     12 C10         1.3451   -0.3646    0.5152 C.3       1 <0>        -0.1281
     13 C11         2.2074    0.9068    0.3393 C.3       1 <0>        -0.1565
     14 C12         1.1970    2.0232    0.1934 C.2       1 <0>         0.5133
     15 O1          1.4447    3.2044    0.3130 O.2       1 <0>        -0.5307
     16 N1         -0.0153    1.5155   -0.0886 N.am      1 <0>        -0.6136
     17 C13        -1.2222    2.3210   -0.2904 C.3       1 <0>         0.1258
     18 C14        -1.8631    2.6277    1.0646 C.3       1 <0>        -0.1349
     19 C15        -3.1236    3.4690    0.8539 C.3       1 <0>        -0.1153
     20 C16        -3.7645    3.7757    2.2089 C.3       1 <0>        -0.1174
     21 C17        -5.0249    4.6169    1.9982 C.3       1 <0>        -0.0981
     22 C18        -5.6658    4.9236    3.3532 C.3       1 <0>        -0.1581
     23 C19        -6.9074    5.7522    3.1457 C.2       1 <0>         0.4573
     24 O2         -7.2450    6.0653    2.0286 O.co2     1 <0>        -0.6426
     25 O3         -3.5935   -2.1930    0.3752 O.3       1 <0>        -0.5556
     26 H3         -4.6607   -8.7557    1.2393 H         1 <0>         0.0525
     27 H4         -3.6496   -8.8172    2.7029 H         1 <0>         0.0522
     28 H5         -5.4227   -8.8888    2.8424 H         1 <0>         0.0531
     29 H6         -4.5738   -6.6351    3.4330 H         1 <0>         0.0611
     30 H7         -5.5849   -6.5736    1.9694 H         1 <0>         0.0618
     31 H8         -3.5462   -6.6256    0.5588 H         1 <0>         0.0590
     32 H9         -2.5351   -6.6871    2.0224 H         1 <0>         0.0586
     33 H10        -3.4592   -4.5050    2.7526 H         1 <0>         0.0613
     34 H11        -4.4703   -4.4435    1.2890 H         1 <0>         0.0694
     35 H12        -2.4317   -4.4955   -0.1216 H         1 <0>         0.0639
     36 H13        -1.4206   -4.5570    1.3420 H         1 <0>         0.0695
     37 H14        -1.2068   -2.2920   -0.7166 H         1 <0>         0.0669
     38 H15        -0.2804   -2.5059    0.7881 H         1 <0>         0.0737
     39 H16        -1.0920   -0.3378    1.6248 H         1 <0>         0.0708
     40 H17        -2.0924   -0.1299    0.1673 H         1 <0>         0.0807
     41 H18         1.1814   -0.5819    1.5707 H         1 <0>         0.0836
     42 H19         1.7986   -1.2167    0.0088 H         1 <0>         0.0883
     43 H20         2.8312    1.0693    1.2182 H         1 <0>         0.1002
     44 H21         2.8226    0.8295   -0.5572 H         1 <0>         0.1018
     45 H22        -0.9572    3.2546   -0.7866 H         1 <0>         0.0789
     46 H23        -1.9287    1.7682   -0.9096 H         1 <0>         0.0795
     47 H24        -2.1281    1.6941    1.5609 H         1 <0>         0.0655
     48 H25        -1.1567    3.1805    1.6839 H         1 <0>         0.0639
     49 H26        -2.8586    4.4026    0.3577 H         1 <0>         0.0623
     50 H27        -3.8300    2.9162    0.2347 H         1 <0>         0.0625
     51 H28        -4.0295    2.8421    2.7052 H         1 <0>         0.0559
     52 H29        -3.0580    4.3285    2.8282 H         1 <0>         0.0556
     53 H30        -4.7599    5.5505    1.5020 H         1 <0>         0.0587
     54 H31        -5.7314    4.0641    1.3790 H         1 <0>         0.0590
     55 H32        -5.9308    3.9900    3.8495 H         1 <0>         0.0611
     56 H33        -4.9594    5.4765    3.9725 H         1 <0>         0.0610
     57 H34        -3.6438   -2.4186   -0.5637 H         1 <0>         0.3717
     58 O4         -7.6381    6.1425    4.2018 O.co2     1 <0>        -0.7802
@<TRIPOS>BOND
     1    1    2 1
     2    1   26 1
     3    1   27 1
     4    1   28 1
     5    2    3 1
     6    2   29 1
     7    2   30 1
     8    3    4 1
     9    3   31 1
    10    3   32 1
    11    4    5 1
    12    4   33 1
    13    4   34 1
    14    5    6 1
    15    5   35 1
    16    5   36 1
    17    6    7 1
    18    6    8 1
    19    6   25 1
    20    8    9 1
    21    8   37 1
    22    8   38 1
    23    9   10 1
    24    9   39 1
    25    9   40 1
    26   10   11 1
    27   10   16 1
    28   10   12 1
    29   12   13 1
    30   12   41 1
    31   12   42 1
    32   13   14 1
    33   13   43 1
    34   13   44 1
    35   14   15 2
    36   14   16 am
    37   16   17 1
    38   17   18 1
    39   17   45 1
    40   17   46 1
    41   18   19 1
    42   18   47 1
    43   18   48 1
    44   19   20 1
    45   19   49 1
    46   19   50 1
    47   20   21 1
    48   20   51 1
    49   20   52 1
    50   21   22 1
    51   21   53 1
    52   21   54 1
    53   22   23 1
    54   22   55 1
    55   22   56 1
    56   23   24 2
    57   23   58 1
    58   25   57 1
@<TRIPOS>MOLECULE
ZINC13488373
   58    58     0     0     0
SMALL
USER_CHARGES
7-[(2S)-2-[(3R)-3-hydroxyoctyl]-5-oxo-pyrrolidin-1-yl]heptanoic acid
@<TRIPOS>ATOM
      1 C1          3.6195   -3.7442    6.3296 C.3       1 <0>        -0.1536
      2 C2          2.9949   -3.3947    4.9773 C.3       1 <0>        -0.1264
      3 C3          2.9402   -1.8740    4.8186 C.3       1 <0>        -0.1204
      4 C4          2.3156   -1.5245    3.4663 C.3       1 <0>        -0.1178
      5 C5          2.2609   -0.0037    3.3076 C.3       1 <0>        -0.1513
      6 C6          1.6363    0.3458    1.9553 C.3       1 <0>         0.1055
      7 H1          2.1883   -0.1547    1.1598 H         1 <0>         0.0966
      8 C7          1.6950    1.8597    1.7424 C.3       1 <0>        -0.1481
      9 C8          1.1852    2.1977    0.3400 C.3       1 <0>        -0.1254
     10 C9          1.1545    3.7169    0.1609 C.3       1 <0>         0.1307
     11 H2          0.5854    4.1798    0.9671 H         1 <0>         0.0799
     12 C10         2.5924    4.2804    0.1271 C.3       1 <0>        -0.1276
     13 C11         2.4566    5.4299   -0.8982 C.3       1 <0>        -0.1564
     14 C12         1.2754    5.0268   -1.7531 C.2       1 <0>         0.5135
     15 O1          1.0065    5.5034   -2.8355 O.2       1 <0>        -0.5323
     16 N1          0.5675    4.0633   -1.1389 N.am      1 <0>        -0.6125
     17 C13        -0.6351    3.4388   -1.6956 C.3       1 <0>         0.1208
     18 C14        -1.8768    4.1461   -1.1488 C.3       1 <0>        -0.1320
     19 C15        -3.1328    3.4939   -1.7302 C.3       1 <0>        -0.1163
     20 C16        -4.3744    4.2012   -1.1834 C.3       1 <0>        -0.1175
     21 C17        -5.6304    3.5489   -1.7648 C.3       1 <0>        -0.0986
     22 C18        -6.8720    4.2563   -1.2180 C.3       1 <0>        -0.1580
     23 C19        -8.1091    3.6138   -1.7907 C.2       1 <0>         0.4570
     24 O2         -8.0081    2.6855   -2.5574 O.co2     1 <0>        -0.6421
     25 O3          0.2741   -0.0857    1.9341 O.3       1 <0>        -0.5582
     26 H3          4.6295   -3.3372    6.3793 H         1 <0>         0.0523
     27 H4          3.0157   -3.3168    7.1301 H         1 <0>         0.0532
     28 H5          3.6585   -4.8276    6.4427 H         1 <0>         0.0529
     29 H6          1.9849   -3.8017    4.9276 H         1 <0>         0.0616
     30 H7          3.5987   -3.8221    4.1768 H         1 <0>         0.0602
     31 H8          3.9502   -1.4670    4.8683 H         1 <0>         0.0588
     32 H9          2.3364   -1.4465    5.6191 H         1 <0>         0.0600
     33 H10         1.3056   -1.9315    3.4166 H         1 <0>         0.0692
     34 H11         2.9194   -1.9519    2.6658 H         1 <0>         0.0600
     35 H12         3.2709    0.4033    3.3573 H         1 <0>         0.0697
     36 H13         1.6571    0.4237    4.1081 H         1 <0>         0.0653
     37 H14         1.0704    2.3557    2.4854 H         1 <0>         0.0688
     38 H15         2.7247    2.2016    1.8469 H         1 <0>         0.0740
     39 H16         1.8492    1.7575   -0.4039 H         1 <0>         0.0685
     40 H17         0.1798    1.7964    0.2124 H         1 <0>         0.0806
     41 H18         2.8848    4.6625    1.1051 H         1 <0>         0.0888
     42 H19         3.2984    3.5271   -0.2227 H         1 <0>         0.0828
     43 H20         3.3582    5.5079   -1.5056 H         1 <0>         0.0999
     44 H21         2.2553    6.3728   -0.3897 H         1 <0>         0.1028
     45 H22        -0.6182    3.5225   -2.7822 H         1 <0>         0.0836
     46 H23        -0.6623    2.3865   -1.4126 H         1 <0>         0.0804
     47 H24        -1.8937    4.0623   -0.0622 H         1 <0>         0.0617
     48 H25        -1.8496    5.1984   -1.4317 H         1 <0>         0.0632
     49 H26        -3.1158    3.5776   -2.8168 H         1 <0>         0.0634
     50 H27        -3.1599    2.4416   -1.4472 H         1 <0>         0.0632
     51 H28        -4.3913    4.1174   -0.0968 H         1 <0>         0.0555
     52 H29        -4.3473    5.2534   -1.4664 H         1 <0>         0.0559
     53 H30        -5.6135    3.6327   -2.8515 H         1 <0>         0.0592
     54 H31        -5.6575    2.4967   -1.4819 H         1 <0>         0.0592
     55 H32        -6.8889    4.1725   -0.1314 H         1 <0>         0.0609
     56 H33        -6.8449    5.3085   -1.5010 H         1 <0>         0.0611
     57 H34        -0.2777    0.3201    2.6167 H         1 <0>         0.3744
     58 O4         -9.3233    4.0729   -1.4489 O.co2     1 <0>        -0.7802
@<TRIPOS>BOND
     1    1    2 1
     2    1   26 1
     3    1   27 1
     4    1   28 1
     5    2    3 1
     6    2   29 1
     7    2   30 1
     8    3    4 1
     9    3   31 1
    10    3   32 1
    11    4    5 1
    12    4   33 1
    13    4   34 1
    14    5    6 1
    15    5   35 1
    16    5   36 1
    17    6    7 1
    18    6    8 1
    19    6   25 1
    20    8    9 1
    21    8   37 1
    22    8   38 1
    23    9   10 1
    24    9   39 1
    25    9   40 1
    26   10   11 1
    27   10   16 1
    28   10   12 1
    29   12   13 1
    30   12   41 1
    31   12   42 1
    32   13   14 1
    33   13   43 1
    34   13   44 1
    35   14   15 2
    36   14   16 am
    37   16   17 1
    38   17   18 1
    39   17   45 1
    40   17   46 1
    41   18   19 1
    42   18   47 1
    43   18   48 1
    44   19   20 1
    45   19   49 1
    46   19   50 1
    47   20   21 1
    48   20   51 1
    49   20   52 1
    50   21   22 1
    51   21   53 1
    52   21   54 1
    53   22   23 1
    54   22   55 1
    55   22   56 1
    56   23   24 2
    57   23   58 1
    58   25   57 1
@<TRIPOS>MOLECULE
ZINC13488374
   58    58     0     0     0
SMALL
USER_CHARGES
7-[(2S)-2-[(3S)-3-hydroxyoctyl]-5-oxo-pyrrolidin-1-yl]heptanoic acid
@<TRIPOS>ATOM
      1 C1         -6.8479    2.2273   -7.3653 C.3       1 <0>        -0.1544
      2 C2         -5.5713    1.4425   -7.0566 C.3       1 <0>        -0.1247
      3 C3         -5.2129    1.6125   -5.5789 C.3       1 <0>        -0.1225
      4 C4         -3.9362    0.8278   -5.2702 C.3       1 <0>        -0.1150
      5 C5         -3.5778    0.9978   -3.7926 C.3       1 <0>        -0.1539
      6 C6         -2.3012    0.2130   -3.4839 C.3       1 <0>         0.1074
      7 H1         -1.5083    0.5276   -4.1625 H         1 <0>         0.0958
      8 C7         -1.8734    0.4826   -2.0399 C.3       1 <0>        -0.1599
      9 C8         -0.5318   -0.2014   -1.7693 C.3       1 <0>        -0.1239
     10 C9         -0.1715   -0.0502   -0.2900 C.3       1 <0>         0.1291
     11 H2         -0.9678   -0.4527    0.3360 H         1 <0>         0.0873
     12 C10         1.1615   -0.7702    0.0118 C.3       1 <0>        -0.1277
     13 C11         2.1840    0.3784   -0.1500 C.3       1 <0>        -0.1556
     14 C12         1.3786    1.6318    0.1129 C.2       1 <0>         0.5140
     15 O1          1.8503    2.7217    0.3590 O.2       1 <0>        -0.5312
     16 N1          0.0642    1.3618    0.0335 N.am      1 <0>        -0.6111
     17 C13        -0.9967    2.3513    0.2376 C.3       1 <0>         0.1180
     18 C14        -1.2936    2.4796    1.7331 C.3       1 <0>        -0.1341
     19 C15        -2.4016    3.5130    1.9462 C.3       1 <0>        -0.1154
     20 C16        -2.6985    3.6412    3.4416 C.3       1 <0>        -0.1180
     21 C17        -3.8064    4.6746    3.6548 C.3       1 <0>        -0.0982
     22 C18        -4.1034    4.8029    5.1502 C.3       1 <0>        -0.1583
     23 C19        -5.1947    5.8207    5.3602 C.2       1 <0>         0.4571
     24 O2         -5.6847    6.3856    4.4111 O.co2     1 <0>        -0.6426
     25 O3         -2.5478   -1.1841   -3.6548 O.3       1 <0>        -0.5611
     26 H3         -7.1033    2.1062   -8.4180 H         1 <0>         0.0523
     27 H4         -7.6638    1.8513   -6.7479 H         1 <0>         0.0536
     28 H5         -6.6862    3.2835   -7.1498 H         1 <0>         0.0539
     29 H6         -4.7555    1.8185   -7.6739 H         1 <0>         0.0595
     30 H7         -5.7330    0.3864   -7.2720 H         1 <0>         0.0598
     31 H8         -6.0287    1.2365   -4.9616 H         1 <0>         0.0609
     32 H9         -5.0512    2.6687   -5.3635 H         1 <0>         0.0610
     33 H10        -3.1204    1.2038   -5.8876 H         1 <0>         0.0591
     34 H11        -4.0979   -0.2284   -5.4857 H         1 <0>         0.0669
     35 H12        -4.3936    0.6218   -3.1752 H         1 <0>         0.0663
     36 H13        -3.4161    2.0540   -3.5771 H         1 <0>         0.0718
     37 H14        -2.6266    0.0876   -1.3581 H         1 <0>         0.0684
     38 H15        -1.7713    1.5567   -1.8856 H         1 <0>         0.0788
     39 H16         0.2422    0.2621   -2.3810 H         1 <0>         0.0657
     40 H17        -0.6067   -1.2598   -2.0186 H         1 <0>         0.0836
     41 H18         1.1720   -1.1613    1.0292 H         1 <0>         0.0829
     42 H19         1.3487   -1.5638   -0.7115 H         1 <0>         0.0911
     43 H20         2.9867    0.2804    0.5809 H         1 <0>         0.1000
     44 H21         2.5879    0.3898   -1.1623 H         1 <0>         0.1016
     45 H22        -0.6734    3.3163   -0.1527 H         1 <0>         0.0784
     46 H23        -1.8977    2.0311   -0.2855 H         1 <0>         0.0859
     47 H24        -1.6168    1.5146    2.1234 H         1 <0>         0.0617
     48 H25        -0.3926    2.7998    2.2563 H         1 <0>         0.0653
     49 H26        -2.0783    4.4780    1.5559 H         1 <0>         0.0632
     50 H27        -3.3026    3.1928    1.4230 H         1 <0>         0.0615
     51 H28        -3.0217    2.6762    3.8320 H         1 <0>         0.0556
     52 H29        -1.7975    3.9614    3.9648 H         1 <0>         0.0566
     53 H30        -3.4832    5.6396    3.2645 H         1 <0>         0.0592
     54 H31        -4.7075    4.3544    3.1316 H         1 <0>         0.0585
     55 H32        -4.4266    3.8379    5.5405 H         1 <0>         0.0610
     56 H33        -3.2023    5.1231    5.6734 H         1 <0>         0.0615
     57 H34        -3.2434   -1.5337   -3.0812 H         1 <0>         0.3730
     58 O4         -5.6224    6.0998    6.6015 O.co2     1 <0>        -0.7796
@<TRIPOS>BOND
     1    1    2 1
     2    1   26 1
     3    1   27 1
     4    1   28 1
     5    2    3 1
     6    2   29 1
     7    2   30 1
     8    3    4 1
     9    3   31 1
    10    3   32 1
    11    4    5 1
    12    4   33 1
    13    4   34 1
    14    5    6 1
    15    5   35 1
    16    5   36 1
    17    6    7 1
    18    6    8 1
    19    6   25 1
    20    8    9 1
    21    8   37 1
    22    8   38 1
    23    9   10 1
    24    9   39 1
    25    9   40 1
    26   10   11 1
    27   10   16 1
    28   10   12 1
    29   12   13 1
    30   12   41 1
    31   12   42 1
    32   13   14 1
    33   13   43 1
    34   13   44 1
    35   14   15 2
    36   14   16 am
    37   16   17 1
    38   17   18 1
    39   17   45 1
    40   17   46 1
    41   18   19 1
    42   18   47 1
    43   18   48 1
    44   19   20 1
    45   19   49 1
    46   19   50 1
    47   20   21 1
    48   20   51 1
    49   20   52 1
    50   21   22 1
    51   21   53 1
    52   21   54 1
    53   22   23 1
    54   22   55 1
    55   22   56 1
    56   23   24 2
    57   23   58 1
    58   25   57 1
@<TRIPOS>MOLECULE
ZINC13836509
   65    66     0     0     0
SMALL
USER_CHARGES
7-[(1R,2R,3R)-3-hydroxy-2-[(E,4S)-4-hydroxy-4-(1-propylcyclobutyl)but-1-enyl]-5-oxo-cyclopentyl]heptanoic acid
@<TRIPOS>ATOM
      1 C1          4.2717   -1.5736   -2.6049 C.3       1 <0>        -0.1567
      2 C2          3.5319   -0.2345   -2.6234 C.3       1 <0>        -0.1298
      3 C3          2.6929   -0.0977   -1.3513 C.3       1 <0>        -0.0991
      4 C4          2.0324    1.2821   -1.3219 C.3       1 <0>        -0.1157
      5 C5          2.9735    2.4265   -1.7335 C.3       1 <0>        -0.1290
      6 C6          2.5141    2.1788   -3.1800 C.3       1 <0>        -0.1612
      7 C7          1.2180    1.6023   -2.5864 C.3       1 <0>        -0.1193
      8 C8          1.2742    1.5501   -0.0203 C.3       1 <0>         0.1287
      9 H1          1.0250    2.6094    0.0435 H         1 <0>         0.0977
     10 C9          2.1517    1.1600    1.1708 C.3       1 <0>        -0.1242
     11 C10         1.4642    1.5556    2.4521 C.2       1 <0>        -0.1306
     12 C11         1.2511    0.6604    3.3845 C.2       1 <0>        -0.1523
     13 C12         0.5636    1.0559    4.6658 C.3       1 <0>        -0.0465
     14 H2          0.3328    2.1212    4.6623 H         1 <0>         0.0969
     15 C13        -0.7252    0.2203    4.8728 C.3       1 <0>         0.1122
     16 H3         -0.5805   -0.8057    4.5343 H         1 <0>         0.0727
     17 C14        -0.9130    0.2768    6.4092 C.3       1 <0>        -0.2115
     18 C15         0.4975    0.1996    6.9660 C.2       1 <0>         0.3759
     19 O1          0.8121   -0.1827    8.0674 O.2       1 <0>        -0.4262
     20 C16         1.4367    0.6912    5.8844 C.3       1 <0>        -0.1321
     21 H4          2.0899   -0.0204    5.6255 H         1 <0>         0.0986
     22 C17         2.1953    1.9269    6.3727 C.3       1 <0>        -0.1042
     23 C18         3.1499    1.5271    7.4995 C.3       1 <0>        -0.1289
     24 C19         3.9085    2.7628    7.9878 C.3       1 <0>        -0.1165
     25 C20         4.8631    2.3629    9.1147 C.3       1 <0>        -0.1195
     26 C21         5.6217    3.5986    9.6030 C.3       1 <0>        -0.0982
     27 C22         6.5763    3.1988   10.7298 C.3       1 <0>        -0.1583
     28 C23         7.3235    4.4159   11.2108 C.2       1 <0>         0.4572
     29 O2          7.1141    5.4926   10.7042 O.co2     1 <0>        -0.6428
     30 O3         -1.8344    0.8225    4.2027 O.3       1 <0>        -0.5512
     31 O4          0.0730    0.7763   -0.0007 O.3       1 <0>        -0.5518
     32 H5          4.8695   -1.6710   -3.5111 H         1 <0>         0.0532
     33 H6          4.9243   -1.6161   -1.7329 H         1 <0>         0.0536
     34 H7          3.5485   -2.3876   -2.5575 H         1 <0>         0.0522
     35 H8          2.8793   -0.1919   -3.4954 H         1 <0>         0.0674
     36 H9          4.2552    0.5796   -2.6708 H         1 <0>         0.0698
     37 H10         3.3354   -0.2116   -0.4783 H         1 <0>         0.0702
     38 H11         1.9231   -0.8693   -1.3391 H         1 <0>         0.0633
     39 H12         2.6759    3.3990   -1.3413 H         1 <0>         0.0808
     40 H13         4.0279    2.2063   -1.5664 H         1 <0>         0.0694
     41 H14         3.1176    1.4416   -3.7096 H         1 <0>         0.0968
     42 H15         2.3629    3.0938   -3.7528 H         1 <0>         0.0622
     43 H16         0.8551    0.7166   -3.1079 H         1 <0>         0.0647
     44 H17         0.4404    2.3494   -2.4274 H         1 <0>         0.0806
     45 H18         2.3154    0.0824    1.1639 H         1 <0>         0.0712
     46 H19         3.1105    1.6736    1.0993 H         1 <0>         0.0825
     47 H20         1.1472    2.5771    2.6018 H         1 <0>         0.1092
     48 H21         1.5681   -0.3612    3.2348 H         1 <0>         0.1077
     49 H22        -1.3748    1.1283    6.6575 H         1 <0>         0.1033
     50 H23        -1.5064   -0.5710    6.7516 H         1 <0>         0.0928
     51 H24         2.7658    2.3527    5.5472 H         1 <0>         0.0763
     52 H25         1.4853    2.6663    6.7432 H         1 <0>         0.0658
     53 H26         2.5794    1.1013    8.3250 H         1 <0>         0.0741
     54 H27         3.8599    0.7877    7.1290 H         1 <0>         0.0608
     55 H28         4.4790    3.1886    7.1624 H         1 <0>         0.0597
     56 H29         3.1985    3.5021    8.3583 H         1 <0>         0.0593
     57 H30         4.2926    1.9371    9.9401 H         1 <0>         0.0563
     58 H31         5.5731    1.6235    8.7442 H         1 <0>         0.0556
     59 H32         6.1922    4.0244    8.7775 H         1 <0>         0.0582
     60 H33         4.9117    4.3380    9.9735 H         1 <0>         0.0582
     61 H34         6.0058    2.7729   11.5553 H         1 <0>         0.0613
     62 H35         7.2863    2.4594   10.3593 H         1 <0>         0.0611
     63 H36        -2.6648    0.3369    4.3021 H         1 <0>         0.3795
     64 H37         0.2191   -0.1781   -0.0545 H         1 <0>         0.3687
     65 O5          8.2217    4.3038   12.2019 O.co2     1 <0>        -0.7801
@<TRIPOS>BOND
     1    1    2 1
     2    1   32 1
     3    1   33 1
     4    1   34 1
     5    2    3 1
     6    2   35 1
     7    2   36 1
     8    3    4 1
     9    3   37 1
    10    3   38 1
    11    4    7 1
    12    4    5 1
    13    4    8 1
    14    5    6 1
    15    5   39 1
    16    5   40 1
    17    6    7 1
    18    6   41 1
    19    6   42 1
    20    7   43 1
    21    7   44 1
    22    8    9 1
    23    8   10 1
    24    8   31 1
    25   10   11 1
    26   10   45 1
    27   10   46 1
    28   11   12 2
    29   11   47 1
    30   12   13 1
    31   12   48 1
    32   13   14 1
    33   13   20 1
    34   13   15 1
    35   15   16 1
    36   15   17 1
    37   15   30 1
    38   17   18 1
    39   17   49 1
    40   17   50 1
    41   18   19 2
    42   18   20 1
    43   20   21 1
    44   20   22 1
    45   22   23 1
    46   22   51 1
    47   22   52 1
    48   23   24 1
    49   23   53 1
    50   23   54 1
    51   24   25 1
    52   24   55 1
    53   24   56 1
    54   25   26 1
    55   25   57 1
    56   25   58 1
    57   26   27 1
    58   26   59 1
    59   26   60 1
    60   27   28 1
    61   27   61 1
    62   27   62 1
    63   28   29 2
    64   28   65 1
    65   30   63 1
    66   31   64 1
@<TRIPOS>MOLECULE
ZINC01628222
   34    35     0     0     0
SMALL
USER_CHARGES
2-(4-chloro-2-cyclohexyl-phenoxy)acetic acid
@<TRIPOS>ATOM
      1 C1          3.9989    2.5655   -0.0209 C.ar      1 <0>        -0.0720
      2 C2          3.7684    1.2032   -0.0256 C.ar      1 <0>        -0.2039
      3 C3          2.4681    0.7207   -0.0118 C.ar      1 <0>         0.1491
      4 C4          1.4011    1.6074   -0.0027 C.ar      1 <0>        -0.1021
      5 C5          1.6355    2.9686    0.0024 C.ar      1 <0>        -0.0682
      6 C6          2.9337    3.4481   -0.0070 C.ar      1 <0>        -0.0831
      7 Cl1         3.2258    5.1593   -0.0006 Cl        1 <0>        -0.0866
      8 C7         -0.0127    1.0858    0.0080 C.3       1 <0>        -0.0451
      9 C8         -0.7288    1.5792    1.2668 C.3       1 <0>        -0.1068
     10 C9         -2.1642    1.0497    1.2777 C.3       1 <0>        -0.1208
     11 C10        -2.9042    1.5565    0.0381 C.3       1 <0>        -0.1171
     12 C11        -2.1881    1.0631   -1.2207 C.3       1 <0>        -0.1208
     13 C12        -0.7527    1.5927   -1.2315 C.3       1 <0>        -0.1068
     14 O1          2.2394   -0.6192   -0.0112 O.3       1 <0>        -0.2791
     15 C13         3.3853   -1.4729   -0.0209 C.3       1 <0>         0.0155
     16 C14         2.9394   -2.9124   -0.0186 C.2       1 <0>         0.4697
     17 O2          1.7611   -3.1798   -0.0096 O.co2     1 <0>        -0.6122
     18 H1          5.0113    2.9415   -0.0278 H         1 <0>         0.1303
     19 H2          4.6003    0.5145   -0.0358 H         1 <0>         0.1381
     20 H3          0.8052    3.6592    0.0133 H         1 <0>         0.1333
     21 H4          0.0021   -0.0041    0.0020 H         1 <0>         0.0985
     22 H5         -0.2017    1.2182    2.1499 H         1 <0>         0.0626
     23 H6         -0.7436    2.6691    1.2728 H         1 <0>         0.0587
     24 H7         -2.6744    1.4012    2.1745 H         1 <0>         0.0589
     25 H8         -2.1494   -0.0402    1.2717 H         1 <0>         0.0664
     26 H9         -2.9190    2.6464    0.0441 H         1 <0>         0.0578
     27 H10        -3.9268    1.1792    0.0459 H         1 <0>         0.0578
     28 H11        -2.7153    1.4241   -2.1037 H         1 <0>         0.0589
     29 H12        -2.1733   -0.0268   -1.2266 H         1 <0>         0.0664
     30 H13        -0.7675    2.6825   -1.2255 H         1 <0>         0.0588
     31 H14        -0.2425    1.2411   -2.1283 H         1 <0>         0.0625
     32 H15         3.9767   -1.2771   -0.9154 H         1 <0>         0.0677
     33 H16         3.9907   -1.2787    0.8645 H         1 <0>         0.0677
     34 O3          3.8511   -3.8975   -0.0266 O.co2     1 <0>        -0.7543
@<TRIPOS>BOND
     1    1    6 ar
     2    1    2 ar
     3    1   18 1
     4    2    3 ar
     5    2   19 1
     6    3    4 ar
     7    3   14 1
     8    4    5 ar
     9    4    8 1
    10    5    6 ar
    11    5   20 1
    12    6    7 1
    13    8   13 1
    14    8    9 1
    15    8   21 1
    16    9   10 1
    17    9   22 1
    18    9   23 1
    19   10   11 1
    20   10   24 1
    21   10   25 1
    22   11   12 1
    23   11   26 1
    24   11   27 1
    25   12   13 1
    26   12   28 1
    27   12   29 1
    28   13   30 1
    29   13   31 1
    30   14   15 1
    31   15   16 1
    32   15   32 1
    33   15   33 1
    34   16   17 2
    35   16   34 1
@<TRIPOS>MOLECULE
ZINC12496520
   62    62     0     0     0
SMALL
USER_CHARGES
7-[(1R,2R,3R,5S)-3,5-dihydroxy-2-[(3S)-3-hydroxyoctyl]cyclopentyl]heptanoic acid
@<TRIPOS>ATOM
      1 C1         -6.5955   -2.1744   16.0829 C.3       1 <0>        -0.1536
      2 C2         -5.5219   -2.5108   15.0460 C.3       1 <0>        -0.1258
      3 C3         -5.0992   -1.2338   14.3168 C.3       1 <0>        -0.1209
      4 C4         -4.0256   -1.5702   13.2799 C.3       1 <0>        -0.1168
      5 C5         -3.6028   -0.2933   12.5508 C.3       1 <0>        -0.1511
      6 C6         -2.5293   -0.6297   11.5139 C.3       1 <0>         0.1037
      7 H1         -2.8994   -1.4085   10.8473 H         1 <0>         0.0975
      8 C7         -2.1962    0.6224   10.7001 C.3       1 <0>        -0.1476
      9 C8         -1.2158    0.2587    9.5831 C.3       1 <0>        -0.1081
     10 C9         -0.8827    1.5108    8.7693 C.3       1 <0>        -0.0815
     11 H2         -1.8006    1.9860    8.4233 H         1 <0>         0.0920
     12 C10        -0.0667    2.4982    9.6289 C.3       1 <0>         0.1066
     13 H3          0.4539    1.9691   10.4271 H         1 <0>         0.0615
     14 C11         0.9487    3.1167    8.6363 C.3       1 <0>        -0.1914
     15 C12         1.3266    1.9121    7.7390 C.3       1 <0>         0.1045
     16 H4          2.0723    1.2883    8.2320 H         1 <0>         0.0607
     17 C13         0.0032    1.1381    7.5677 C.3       1 <0>        -0.0789
     18 H5          0.1952    0.0651    7.5638 H         1 <0>         0.0804
     19 C14        -0.6811    1.5524    6.2635 C.3       1 <0>        -0.0993
     20 C15        -1.9561    0.7284    6.0725 C.3       1 <0>        -0.1201
     21 C16        -2.5720    1.0504    4.7094 C.3       1 <0>        -0.1179
     22 C17        -3.8469    0.2265    4.5184 C.3       1 <0>        -0.1189
     23 C18        -4.4628    0.5485    3.1554 C.3       1 <0>        -0.0987
     24 C19        -5.7378   -0.2755    2.9643 C.3       1 <0>        -0.1579
     25 C20        -6.3444    0.0417    1.6218 C.2       1 <0>         0.4570
     26 O1         -5.8117    0.8444    0.8926 O.co2     1 <0>        -0.6424
     27 O2          1.8093    2.3640    6.4722 O.3       1 <0>        -0.5542
     28 O3         -0.9177    3.5092   10.1728 O.3       1 <0>        -0.5588
     29 O4         -1.3524   -1.0922   12.1796 O.3       1 <0>        -0.5607
     30 H6         -6.1945   -1.4608   16.8027 H         1 <0>         0.0522
     31 H7         -7.4602   -1.7386   15.5823 H         1 <0>         0.0536
     32 H8         -6.8967   -3.0841   16.6023 H         1 <0>         0.0526
     33 H9         -5.9229   -3.2243   14.3261 H         1 <0>         0.0611
     34 H10        -4.6573   -2.9466   15.5465 H         1 <0>         0.0599
     35 H11        -4.6982   -0.5203   15.0366 H         1 <0>         0.0586
     36 H12        -5.9638   -0.7980   13.8163 H         1 <0>         0.0605
     37 H13        -4.4266   -2.2838   12.5601 H         1 <0>         0.0611
     38 H14        -3.1609   -2.0060   13.7805 H         1 <0>         0.0665
     39 H15        -3.2018    0.4203   13.2706 H         1 <0>         0.0628
     40 H16        -4.4675    0.1425   12.0503 H         1 <0>         0.0715
     41 H17        -1.7435    1.3696   11.3519 H         1 <0>         0.0684
     42 H18        -3.1100    1.0262   10.2642 H         1 <0>         0.0721
     43 H19        -1.6685   -0.4885    8.9314 H         1 <0>         0.0680
     44 H20        -0.3020   -0.1451   10.0190 H         1 <0>         0.0666
     45 H21         0.4814    3.9057    8.0470 H         1 <0>         0.0866
     46 H22         1.8227    3.4975    9.1648 H         1 <0>         0.0660
     47 H23        -0.0055    1.3757    5.4266 H         1 <0>         0.0727
     48 H24        -0.9360    2.6113    6.3073 H         1 <0>         0.0601
     49 H25        -2.6685    0.9736    6.8601 H         1 <0>         0.0587
     50 H26        -1.7132   -0.3331    6.1197 H         1 <0>         0.0576
     51 H27        -1.8595    0.8053    3.9217 H         1 <0>         0.0598
     52 H28        -2.8149    2.1120    4.6621 H         1 <0>         0.0589
     53 H29        -4.5594    0.4716    5.3061 H         1 <0>         0.0546
     54 H30        -3.6040   -0.8351    4.5657 H         1 <0>         0.0549
     55 H31        -3.7504    0.3033    2.3677 H         1 <0>         0.0583
     56 H32        -4.7058    1.6100    3.1081 H         1 <0>         0.0581
     57 H33        -6.4502   -0.0304    3.7520 H         1 <0>         0.0608
     58 H34        -5.4949   -1.3370    3.0116 H         1 <0>         0.0609
     59 H35         2.6397    2.8572    6.5209 H         1 <0>         0.3741
     60 H36        -0.4566    4.1576   10.7224 H         1 <0>         0.3743
     61 H37        -0.9675   -0.4489   12.7904 H         1 <0>         0.3694
     62 O5         -7.4766   -0.5676    1.2361 O.co2     1 <0>        -0.7806
@<TRIPOS>BOND
     1    1    2 1
     2    1   30 1
     3    1   31 1
     4    1   32 1
     5    2    3 1
     6    2   33 1
     7    2   34 1
     8    3    4 1
     9    3   35 1
    10    3   36 1
    11    4    5 1
    12    4   37 1
    13    4   38 1
    14    5    6 1
    15    5   39 1
    16    5   40 1
    17    6    7 1
    18    6    8 1
    19    6   29 1
    20    8    9 1
    21    8   41 1
    22    8   42 1
    23    9   10 1
    24    9   43 1
    25    9   44 1
    26   10   11 1
    27   10   17 1
    28   10   12 1
    29   12   13 1
    30   12   14 1
    31   12   28 1
    32   14   15 1
    33   14   45 1
    34   14   46 1
    35   15   16 1
    36   15   17 1
    37   15   27 1
    38   17   18 1
    39   17   19 1
    40   19   20 1
    41   19   47 1
    42   19   48 1
    43   20   21 1
    44   20   49 1
    45   20   50 1
    46   21   22 1
    47   21   51 1
    48   21   52 1
    49   22   23 1
    50   22   53 1
    51   22   54 1
    52   23   24 1
    53   23   55 1
    54   23   56 1
    55   24   25 1
    56   24   57 1
    57   24   58 1
    58   25   26 2
    59   25   62 1
    60   27   59 1
    61   28   60 1
    62   29   61 1
@<TRIPOS>MOLECULE
ZINC04536236
   57    58     0     0     0
SMALL
USER_CHARGES

@<TRIPOS>ATOM
      1 C1          0.2051    1.0524   -1.1415 C.ar      1 <0>        -0.0670
      2 C2          1.3851    1.7705   -1.1107 C.ar      1 <0>        -0.1477
      3 C3          2.5879    1.1177   -0.8839 C.ar      1 <0>         0.1465
      4 C4          2.6033   -0.2556   -0.6883 C.ar      1 <0>        -0.2051
      5 C5          1.4204   -0.9701   -0.7200 C.ar      1 <0>         0.0055
      6 C6          0.2219   -0.3159   -0.9465 C.ar      1 <0>        -0.1521
      7 Cl1         1.4381   -2.6888   -0.4760 Cl        1 <0>        -0.0671
      8 O1          3.7495    1.8225   -0.8537 O.3       1 <0>        -0.2982
      9 C7          4.9499    1.0847   -0.6151 C.3       1 <0>         0.0304
     10 C8          6.1447    2.0404   -0.6168 C.3       1 <0>         0.1438
     11 H1          5.9734    2.8375    0.1067 H         1 <0>         0.1224
     12 C9          7.3937    1.2838   -0.2443 C.2       1 <0>        -0.1935
     13 C10         8.4365    1.3104   -1.0367 C.2       1 <0>        -0.1215
     14 C11         9.6854    0.5538   -0.6642 C.3       1 <0>        -0.0528
     15 H2          9.5464    0.0326    0.2830 H         1 <0>         0.0928
     16 C12        10.0667   -0.4473   -1.7829 C.3       1 <0>         0.1089
     17 H3          9.8800   -0.0167   -2.7667 H         1 <0>         0.0666
     18 C13        11.5844   -0.6546   -1.5534 C.3       1 <0>        -0.1921
     19 C14        12.1003    0.7423   -1.1504 C.3       1 <0>         0.1075
     20 H4         12.4967    1.2602   -2.0238 H         1 <0>         0.0592
     21 C15        10.8922    1.5112   -0.5816 C.3       1 <0>        -0.0687
     22 H5         10.7029    2.4030   -1.1790 H         1 <0>         0.0847
     23 C16        11.1534    1.9008    0.8747 C.3       1 <0>        -0.0769
     24 C17        12.2536    2.9293    0.9300 C.2       1 <0>        -0.1583
     25 C18        12.0684    4.0523    1.5786 C.2       1 <0>        -0.1529
     26 C19        10.8264    4.2464    2.4097 C.3       1 <0>        -0.1024
     27 C20        11.2221    4.6514    3.8311 C.3       1 <0>        -0.0858
     28 C21         9.9612    4.8485    4.6750 C.3       1 <0>        -0.1830
     29 C22        10.3510    5.2474    6.0750 C.2       1 <0>         0.4877
     30 O2         11.5282    5.3632    6.3705 O.co2     1 <0>        -0.6996
     31 O3          9.4891    5.4542    6.9122 O.co2     1 <0>        -0.7100
     32 O4         13.1151    0.6200   -0.1518 O.3       1 <0>        -0.5474
     33 O5          9.3546   -1.6764   -1.6269 O.3       1 <0>        -0.5590
     34 O6          6.3010    2.6055   -1.9200 O.3       1 <0>        -0.5467
     35 H6         -0.7318    1.5613   -1.3137 H         1 <0>         0.1400
     36 H7          1.3711    2.8396   -1.2635 H         1 <0>         0.1388
     37 H8          3.5386   -0.7661   -0.5119 H         1 <0>         0.1384
     38 H9         -0.7016   -0.8754   -0.9709 H         1 <0>         0.1345
     39 H10         4.8842    0.5868    0.3523 H         1 <0>         0.0770
     40 H11         5.0800    0.3390   -1.3994 H         1 <0>         0.0688
     41 H12         7.4290    0.7196    0.6760 H         1 <0>         0.1228
     42 H13         8.4011    1.8746   -1.9569 H         1 <0>         0.1198
     43 H14        11.7543   -1.3706   -0.7493 H         1 <0>         0.0873
     44 H15        12.0669   -0.9892   -2.4717 H         1 <0>         0.0689
     45 H16        10.2442    2.3178    1.3079 H         1 <0>         0.0744
     46 H17        11.4529    1.0177    1.4390 H         1 <0>         0.0740
     47 H18        13.1946    2.7404    0.4349 H         1 <0>         0.1123
     48 H19        12.8058    4.8390    1.5176 H         1 <0>         0.1029
     49 H20        10.2115    5.0298    1.9667 H         1 <0>         0.0605
     50 H21        10.2611    3.3150    2.4414 H         1 <0>         0.0678
     51 H22        11.8371    3.8680    4.2742 H         1 <0>         0.0579
     52 H23        11.7874    5.5828    3.7995 H         1 <0>         0.0573
     53 H24         9.3463    5.6319    4.2319 H         1 <0>         0.0543
     54 H25         9.3959    3.9171    4.7066 H         1 <0>         0.0536
     55 H26        13.8946    0.1265   -0.4416 H         1 <0>         0.3709
     56 H27         9.5580   -2.3373   -2.3028 H         1 <0>         0.3770
     57 H28         6.4571    1.9523   -2.6157 H         1 <0>         0.3725
@<TRIPOS>BOND
     1    1    6 ar
     2    1    2 ar
     3    1   35 1
     4    2    3 ar
     5    2   36 1
     6    3    4 ar
     7    3    8 1
     8    4    5 ar
     9    4   37 1
    10    5    6 ar
    11    5    7 1
    12    6   38 1
    13    8    9 1
    14    9   10 1
    15    9   39 1
    16    9   40 1
    17   10   11 1
    18   10   12 1
    19   10   34 1
    20   12   13 2
    21   12   41 1
    22   13   14 1
    23   13   42 1
    24   14   15 1
    25   14   21 1
    26   14   16 1
    27   16   17 1
    28   16   18 1
    29   16   33 1
    30   18   19 1
    31   18   43 1
    32   18   44 1
    33   19   20 1
    34   19   21 1
    35   19   32 1
    36   21   22 1
    37   21   23 1
    38   23   24 1
    39   23   45 1
    40   23   46 1
    41   24   25 2
    42   24   47 1
    43   25   26 1
    44   25   48 1
    45   26   27 1
    46   26   49 1
    47   26   50 1
    48   27   28 1
    49   27   51 1
    50   27   52 1
    51   28   29 1
    52   28   53 1
    53   28   54 1
    54   29   30 2
    55   29   31 1
    56   32   55 1
    57   33   56 1
    58   34   57 1
@<TRIPOS>MOLECULE
ZINC03961849
   47    50     0     0     0
SMALL
USER_CHARGES
2-[(4-chlorophenyl)methyl-fluoro-methylsulfonyl-BLAHyl]acetic acid
@<TRIPOS>ATOM
      1 C1         -6.4410    3.4422   -0.0771 C.3       1 <0>        -0.6680
      2 S1         -6.2263    5.1766    0.4093 S.o2      1 <0>         2.4753
      3 O1         -6.2757    5.2978    1.8243 O.2       1 <0>        -0.9191
      4 O2         -7.0177    6.0184   -0.4179 O.2       1 <0>        -0.9355
      5 C2         -4.5612    5.5638   -0.0173 C.ar      1 <0>        -0.6388
      6 C3         -4.2992    6.5062   -0.9872 C.ar      1 <0>        -0.0283
      7 C4         -2.9909    6.8221   -1.3340 C.ar      1 <0>         0.0424
      8 C5         -1.9346    6.1941   -0.7095 C.ar      1 <0>        -0.0445
      9 C6         -2.1863    5.2365    0.2749 C.ar      1 <0>        -0.0680
     10 C7         -3.5098    4.9174    0.6244 C.ar      1 <0>         0.1754
     11 N1         -3.4482    3.9554    1.6069 N.pl3     1 <0>        -0.4588
     12 C8         -2.1367    3.6549    1.8906 C.2       1 <0>         0.0813
     13 C9         -1.3294    4.3965    1.1188 C.2       1 <0>        -0.1840
     14 C10         0.1222    4.0855    1.4114 C.3       1 <0>        -0.0512
     15 C11         0.0955    2.7384    2.1661 C.3       1 <0>        -0.0908
     16 C12        -1.3147    2.7562    2.7946 C.3       1 <0>        -0.0057
     17 H1         -1.2744    3.1663    3.8037 H         1 <0>         0.0987
     18 C13        -1.9038    1.3444    2.8187 C.3       1 <0>        -0.1654
     19 C14        -1.0210    0.4458    3.6458 C.2       1 <0>         0.4635
     20 O3         -0.0204    0.8879    4.1589 O.co2     1 <0>        -0.6318
     21 C15        -4.6097    3.3411    2.2547 C.3       1 <0>         0.1233
     22 C16        -4.6851    3.7981    3.6888 C.ar      1 <0>        -0.1087
     23 C17        -3.6604    3.4941    4.5656 C.ar      1 <0>        -0.1050
     24 C18        -3.7264    3.9178    5.8795 C.ar      1 <0>        -0.1157
     25 C19        -4.8234    4.6366    6.3201 C.ar      1 <0>        -0.0240
     26 C20        -5.8512    4.9356    5.4435 C.ar      1 <0>        -0.1266
     27 C21        -5.7815    4.5162    4.1284 C.ar      1 <0>        -0.0643
     28 Cl1        -4.9105    5.1625    7.9722 Cl        1 <0>        -0.0786
     29 F1         -2.7532    7.7493   -2.2873 F         1 <0>        -0.1388
     30 H2         -5.6239    2.8468    0.3303 H         1 <0>         0.1359
     31 H3         -7.3896    3.0709    0.3107 H         1 <0>         0.1413
     32 H4         -6.4384    3.3669   -1.1645 H         1 <0>         0.1398
     33 H5         -5.1189    7.0050   -1.4830 H         1 <0>         0.1576
     34 H6         -0.9186    6.4415   -0.9797 H         1 <0>         0.1436
     35 H7          0.5575    4.8631    2.0390 H         1 <0>         0.0746
     36 H8          0.6855    3.9889    0.4832 H         1 <0>         0.0692
     37 H9          0.8655    2.7079    2.9370 H         1 <0>         0.0988
     38 H10         0.2040    1.9022    1.4754 H         1 <0>         0.0724
     39 H11        -1.9636    0.9582    1.8011 H         1 <0>         0.0704
     40 H12        -2.9022    1.3747    3.2551 H         1 <0>         0.0660
     41 H13        -5.5178    3.6386    1.7304 H         1 <0>         0.0915
     42 H14        -4.5112    2.2560    2.2239 H         1 <0>         0.1076
     43 H15        -2.8062    2.9293    4.2227 H         1 <0>         0.1531
     44 H16        -2.9238    3.6841    6.5634 H         1 <0>         0.1351
     45 H17        -6.7080    5.4963    5.7869 H         1 <0>         0.1316
     46 H18        -6.5839    4.7492    3.4441 H         1 <0>         0.1730
     47 O4         -1.3434   -0.8471    3.8080 O.co2     1 <0>        -0.7697
@<TRIPOS>BOND
     1    1    2 1
     2    1   30 1
     3    1   31 1
     4    1   32 1
     5    2    3 2
     6    2    4 2
     7    2    5 1
     8    5   10 ar
     9    5    6 ar
    10    6    7 ar
    11    6   33 1
    12    7    8 ar
    13    7   29 1
    14    8    9 ar
    15    8   34 1
    16    9   13 1
    17    9   10 ar
    18   10   11 1
    19   11   12 1
    20   11   21 1
    21   12   16 1
    22   12   13 2
    23   13   14 1
    24   14   15 1
    25   14   35 1
    26   14   36 1
    27   15   16 1
    28   15   37 1
    29   15   38 1
    30   16   17 1
    31   16   18 1
    32   18   19 1
    33   18   39 1
    34   18   40 1
    35   19   20 2
    36   19   47 1
    37   21   22 1
    38   21   41 1
    39   21   42 1
    40   22   27 ar
    41   22   23 ar
    42   23   24 ar
    43   23   43 1
    44   24   25 ar
    45   24   44 1
    46   25   26 ar
    47   25   28 1
    48   26   27 ar
    49   26   45 1
    50   27   46 1
@<TRIPOS>MOLECULE
ZINC03830713
   56    56     0     0     0
SMALL
USER_CHARGES

@<TRIPOS>ATOM
      1 C1          1.1435    1.5780    0.1841 C.3       1 <0>        -0.1534
      2 C2          1.1566    0.0481    0.1856 C.3       1 <0>        -0.1262
      3 C3          1.6249   -0.4592   -1.1798 C.3       1 <0>        -0.1204
      4 C4          1.6381   -1.9892   -1.1783 C.3       1 <0>        -0.1181
      5 C5          2.1064   -2.4965   -2.5437 C.3       1 <0>        -0.1441
      6 C6          2.1195   -4.0264   -2.5422 C.3       1 <0>         0.1339
      7 H1          1.1360   -4.3979   -2.2545 H         1 <0>         0.1099
      8 C7          2.4618   -4.5271   -3.9218 C.2       1 <0>        -0.1807
      9 C8          3.4668   -5.3505   -4.0891 C.2       1 <0>        -0.1418
     10 C9          3.8091   -5.8513   -5.4686 C.3       1 <0>        -0.0473
     11 H2          3.1330   -5.4234   -6.2088 H         1 <0>         0.0978
     12 C10         5.2816   -5.5181   -5.8190 C.3       1 <0>         0.1132
     13 H3          5.9219   -5.6238   -4.9433 H         1 <0>         0.0737
     14 C11         5.6200   -6.5928   -6.8819 C.3       1 <0>        -0.2190
     15 C12         4.9054   -7.8420   -6.3978 C.2       1 <0>         0.3763
     16 O1          5.1958   -8.9826   -6.6680 O.2       1 <0>        -0.4319
     17 C13         3.7574   -7.3925   -5.5141 C.3       1 <0>        -0.1326
     18 H4          3.8794   -7.7992   -4.5102 H         1 <0>         0.1096
     19 C14         2.4245   -7.8537   -6.1072 C.3       1 <0>        -0.0812
     20 C15         2.3350   -9.3562   -6.0335 C.2       1 <0>        -0.1876
     21 C16         1.2888   -9.9240   -5.4864 C.2       1 <0>        -0.1312
     22 C17         0.1019   -9.0874   -5.0835 C.3       1 <0>        -0.1053
     23 C18        -1.1656   -9.6598   -5.7213 C.3       1 <0>        -0.0865
     24 C19        -2.3706   -8.8104   -5.3122 C.3       1 <0>        -0.1829
     25 C20        -3.6190   -9.3742   -5.9404 C.2       1 <0>         0.4875
     26 O2         -3.5513  -10.3637   -6.6495 O.co2     1 <0>        -0.6993
     27 O3         -4.6968   -8.8408   -5.7395 O.co2     1 <0>        -0.7094
     28 O4          5.3883   -4.2031   -6.3682 O.3       1 <0>        -0.5536
     29 O5          3.0966   -4.4935   -1.6099 O.3       1 <0>        -0.5569
     30 H5          2.1483    1.9498   -0.0165 H         1 <0>         0.0521
     31 H6          0.4630    1.9348   -0.5890 H         1 <0>         0.0533
     32 H7          0.8099    1.9395    1.1568 H         1 <0>         0.0523
     33 H8          1.8372   -0.3087    0.9587 H         1 <0>         0.0602
     34 H9          0.1518   -0.3237    0.3862 H         1 <0>         0.0615
     35 H10         0.9444   -0.1024   -1.9529 H         1 <0>         0.0606
     36 H11         2.6297   -0.0874   -1.3804 H         1 <0>         0.0589
     37 H12         2.3186   -2.3459   -0.4052 H         1 <0>         0.0674
     38 H13         0.6333   -2.3609   -0.9777 H         1 <0>         0.0627
     39 H14         1.4258   -2.1397   -3.3168 H         1 <0>         0.0733
     40 H15         3.1112   -2.1247   -2.7443 H         1 <0>         0.0652
     41 H16         1.8785   -4.2072   -4.7725 H         1 <0>         0.1180
     42 H17         4.0501   -5.6705   -3.2383 H         1 <0>         0.1187
     43 H18         5.2429   -6.2932   -7.8597 H         1 <0>         0.1142
     44 H19         6.6961   -6.7616   -6.9233 H         1 <0>         0.0938
     45 H20         1.6034   -7.4127   -5.5421 H         1 <0>         0.0927
     46 H21         2.3609   -7.5366   -7.1481 H         1 <0>         0.0696
     47 H22         3.1333   -9.9650   -6.4317 H         1 <0>         0.1146
     48 H23         1.2770  -10.9917   -5.3242 H         1 <0>         0.1080
     49 H24         0.0002   -9.0999   -3.9984 H         1 <0>         0.0647
     50 H25         0.2482   -8.0620   -5.4230 H         1 <0>         0.0685
     51 H26        -1.0638   -9.6473   -6.8065 H         1 <0>         0.0585
     52 H27        -1.3118  -10.6852   -5.3819 H         1 <0>         0.0589
     53 H28        -2.4724   -8.8229   -4.2271 H         1 <0>         0.0550
     54 H29        -2.2243   -7.7850   -5.6517 H         1 <0>         0.0541
     55 H30         6.2905   -3.9473   -6.6039 H         1 <0>         0.3797
     56 H31         3.9974   -4.2006   -1.8044 H         1 <0>         0.3713
@<TRIPOS>BOND
     1    1    2 1
     2    1   30 1
     3    1   31 1
     4    1   32 1
     5    2    3 1
     6    2   33 1
     7    2   34 1
     8    3    4 1
     9    3   35 1
    10    3   36 1
    11    4    5 1
    12    4   37 1
    13    4   38 1
    14    5    6 1
    15    5   39 1
    16    5   40 1
    17    6    7 1
    18    6    8 1
    19    6   29 1
    20    8    9 2
    21    8   41 1
    22    9   10 1
    23    9   42 1
    24   10   11 1
    25   10   17 1
    26   10   12 1
    27   12   13 1
    28   12   14 1
    29   12   28 1
    30   14   15 1
    31   14   43 1
    32   14   44 1
    33   15   16 2
    34   15   17 1
    35   17   18 1
    36   17   19 1
    37   19   20 1
    38   19   45 1
    39   19   46 1
    40   20   21 2
    41   20   47 1
    42   21   22 1
    43   21   48 1
    44   22   23 1
    45   22   49 1
    46   22   50 1
    47   23   24 1
    48   23   51 1
    49   23   52 1
    50   24   25 1
    51   24   53 1
    52   24   54 1
    53   25   26 2
    54   25   27 1
    55   28   55 1
    56   29   56 1
