@<TRIPOS>MOLECULE
ZINC00670237
   60    62     0     0     0
SMALL
USER_CHARGES

@<TRIPOS>ATOM
      1 C1         -1.2623   -0.6457   -2.1368 C.3       1 <0>        -0.1547
      2 C2          0.2084   -0.5921   -1.7185 C.3       1 <0>        -0.0911
      3 C3          0.4329    0.5990   -0.8230 C.ar      1 <0>        -0.0736
      4 C4         -0.6096    1.4618   -0.5458 C.ar      1 <0>        -0.1226
      5 C5         -0.4044    2.5552    0.2752 C.ar      1 <0>        -0.1059
      6 C6          0.8444    2.7887    0.8220 C.ar      1 <0>        -0.1215
      7 C7          1.8907    1.9300    0.5494 C.ar      1 <0>        -0.0828
      8 C8          1.6867    0.8274   -0.2710 C.ar      1 <0>         0.1209
      9 N1          2.7416   -0.0462   -0.5446 N.pl3     1 <0>        -0.9273
     10 C9          3.3189   -0.0989   -1.8900 C.3       1 <0>         0.0957
     11 C10         4.3621    0.9794   -2.0316 C.2       1 <0>         0.4941
     12 O1          4.6915    1.6351   -1.0660 O.2       1 <0>        -0.5169
     13 N2          4.9292    1.2150   -3.2314 N.am      1 <0>        -0.7251
     14 C11         5.9434    2.2632   -3.3690 C.3       1 <0>         0.1694
     15 C12         6.4135    2.3225   -4.7996 C.ar      1 <0>        -0.1507
     16 C13         7.4837    1.5476   -5.2071 C.ar      1 <0>        -0.0588
     17 C14         7.9169    1.6006   -6.5178 C.ar      1 <0>        -0.1536
     18 C15         7.2769    2.4318   -7.4256 C.ar      1 <0>         0.1378
     19 C16         6.2031    3.2080   -7.0143 C.ar      1 <0>        -0.2101
     20 C17         5.7704    3.1476   -5.7037 C.ar      1 <0>        -0.0577
     21 O2          7.7014    2.4860   -8.7154 O.3       1 <0>        -0.3163
     22 C18         6.9953    3.3639   -9.5945 C.3       1 <0>         0.0256
     23 S1          3.3398   -1.0224    0.6519 S.o2      1 <0>         2.6868
     24 O3          3.3215   -0.2561    1.8484 O.2       1 <0>        -0.9437
     25 O4          2.6661   -2.2680    0.5345 O.2       1 <0>        -0.9516
     26 C19         5.0338   -1.3288    0.2760 C.ar      1 <0>        -0.6825
     27 C20         5.3881   -2.4462   -0.4567 C.ar      1 <0>        -0.0229
     28 C21         6.7170   -2.6865   -0.7516 C.ar      1 <0>        -0.1441
     29 C22         7.6917   -1.8093   -0.3141 C.ar      1 <0>        -0.0226
     30 C23         7.3373   -0.6914    0.4178 C.ar      1 <0>        -0.1423
     31 C24         6.0080   -0.4488    0.7090 C.ar      1 <0>         0.0141
     32 C25         9.1406   -2.0718   -0.6347 C.3       1 <0>        -0.1261
     33 H1         -1.8863   -0.7851   -1.2541 H         1 <0>         0.0601
     34 H2         -1.5339    0.2875   -2.6302 H         1 <0>         0.0589
     35 H3         -1.4143   -1.4778   -2.8243 H         1 <0>         0.0595
     36 H4          0.4668   -1.5045   -1.1810 H         1 <0>         0.0854
     37 H5          0.8355   -0.5031   -2.6055 H         1 <0>         0.0752
     38 H6         -1.5859    1.2823   -0.9712 H         1 <0>         0.1331
     39 H7         -1.2210    3.2286    0.4898 H         1 <0>         0.1258
     40 H8          1.0013    3.6439    1.4626 H         1 <0>         0.1278
     41 H9          2.8657    2.1131    0.9764 H         1 <0>         0.1378
     42 H10         3.7798   -1.0736   -2.0497 H         1 <0>         0.1106
     43 H11         2.5329    0.0568   -2.6290 H         1 <0>         0.1181
     44 H12         4.6658    0.6906   -4.0037 H         1 <0>         0.4018
     45 H13         5.5130    3.2243   -3.0878 H         1 <0>         0.0761
     46 H14         6.7883    2.0390   -2.7179 H         1 <0>         0.0760
     47 H15         7.9815    0.9007   -4.5000 H         1 <0>         0.1304
     48 H16         8.7532    0.9956   -6.8354 H         1 <0>         0.1333
     49 H17         5.7032    3.8559   -7.7191 H         1 <0>         0.1307
     50 H18         4.9318    3.7483   -5.3841 H         1 <0>         0.1270
     51 H19         5.9483    3.0646   -9.6431 H         1 <0>         0.0572
     52 H20         7.0642    4.3854   -9.2203 H         1 <0>         0.0573
     53 H21         7.4348    3.3114  -10.5905 H         1 <0>         0.1028
     54 H22         4.6266   -3.1316   -0.7984 H         1 <0>         0.1409
     55 H23         6.9939   -3.5599   -1.3234 H         1 <0>         0.1335
     56 H24         8.0988   -0.0062    0.7598 H         1 <0>         0.1324
     57 H25         5.7308    0.4266    1.2776 H         1 <0>         0.1416
     58 H26         9.3951   -1.5961   -1.5818 H         1 <0>         0.0795
     59 H27         9.7679   -1.6629    0.1574 H         1 <0>         0.0736
     60 H28         9.3068   -3.1463   -0.7117 H         1 <0>         0.0736
@<TRIPOS>BOND
     1    1    2 1
     2    1   33 1
     3    1   34 1
     4    1   35 1
     5    2    3 1
     6    2   36 1
     7    2   37 1
     8    3    8 ar
     9    3    4 ar
    10    4    5 ar
    11    4   38 1
    12    5    6 ar
    13    5   39 1
    14    6    7 ar
    15    6   40 1
    16    7    8 ar
    17    7   41 1
    18    8    9 1
    19    9   10 1
    20    9   23 1
    21   10   11 1
    22   10   42 1
    23   10   43 1
    24   11   12 2
    25   11   13 am
    26   13   14 1
    27   13   44 1
    28   14   15 1
    29   14   45 1
    30   14   46 1
    31   15   20 ar
    32   15   16 ar
    33   16   17 ar
    34   16   47 1
    35   17   18 ar
    36   17   48 1
    37   18   19 ar
    38   18   21 1
    39   19   20 ar
    40   19   49 1
    41   20   50 1
    42   21   22 1
    43   22   51 1
    44   22   52 1
    45   22   53 1
    46   23   24 2
    47   23   25 2
    48   23   26 1
    49   26   31 ar
    50   26   27 ar
    51   27   28 ar
    52   27   54 1
    53   28   29 ar
    54   28   55 1
    55   29   30 ar
    56   29   32 1
    57   30   31 ar
    58   30   56 1
    59   31   57 1
    60   32   58 1
    61   32   59 1
    62   32   60 1
@<TRIPOS>MOLECULE
ZINC03818373
   48    51     0     0     0
SMALL
USER_CHARGES
6-[2-[5-chloro-2-[(2,4-difluorophenyl)methoxy]phenyl]-1-cyclopentenyl]pyridine-2-carboxylic acid
@<TRIPOS>ATOM
      1 C1         -2.5012    5.3172   -4.6306 C.ar      1 <0>        -0.0946
      2 C2         -3.0885    5.2597   -3.3803 C.ar      1 <0>        -0.1740
      3 C3         -2.4348    4.5744   -2.3483 C.ar      1 <0>         0.1496
      4 N1         -1.2706    3.9773   -2.5657 N.ar      1 <0>        -0.4123
      5 C4         -0.6862    4.0114   -3.7558 C.ar      1 <0>         0.1054
      6 C5         -1.2826    4.6813   -4.8227 C.ar      1 <0>        -0.1480
      7 C6          0.6137    3.3302   -3.9533 C.2       1 <0>         0.4963
      8 O1          1.1545    3.3574   -5.0402 O.co2     1 <0>        -0.6361
      9 C7         -3.0489    4.5111   -1.0110 C.2       1 <0>        -0.0899
     10 C8         -2.5162    3.8805    0.0451 C.2       1 <0>        -0.0407
     11 C9         -3.4160    4.0150    1.2517 C.3       1 <0>        -0.0856
     12 C10        -4.3685    5.1842    0.9073 C.3       1 <0>        -0.1201
     13 C11        -4.3671    5.1489   -0.6377 C.3       1 <0>        -0.0799
     14 C12        -1.2362    3.1529    0.0299 C.ar      1 <0>        -0.0309
     15 C13        -0.0284    3.8558    0.0226 C.ar      1 <0>        -0.0307
     16 C14         1.1673    3.1675    0.0079 C.ar      1 <0>        -0.0147
     17 C15         1.1754    1.7818    0.0004 C.ar      1 <0>        -0.0404
     18 C16        -0.0126    1.0758    0.0080 C.ar      1 <0>        -0.1901
     19 C17        -1.2222    1.7508    0.0173 C.ar      1 <0>         0.1377
     20 O2         -2.3899    1.0574    0.0191 O.3       1 <0>        -0.3073
     21 C18        -2.2976   -0.3686    0.0109 C.3       1 <0>         0.1035
     22 C19        -3.6830   -0.9617    0.0142 C.ar      1 <0>        -0.1259
     23 C20        -4.7893   -0.1330    0.0239 C.ar      1 <0>        -0.0374
     24 C21        -6.0602   -0.6754    0.0261 C.ar      1 <0>        -0.1616
     25 C22        -6.2269   -2.0503    0.0189 C.ar      1 <0>         0.1259
     26 C23        -5.1200   -2.8810    0.0096 C.ar      1 <0>        -0.1911
     27 C24        -3.8472   -2.3364    0.0017 C.ar      1 <0>         0.1363
     28 F1         -2.7658   -3.1461   -0.0130 F         1 <0>        -0.1270
     29 F2         -7.4696   -2.5804    0.0214 F         1 <0>        -0.1327
     30 Cl1         2.6676    4.0410   -0.0006 Cl        1 <0>        -0.0865
     31 H1         -2.9829    5.8423   -5.4422 H         1 <0>         0.1254
     32 H2         -4.0383    5.7412   -3.2004 H         1 <0>         0.1234
     33 H3         -0.8015    4.7049   -5.7893 H         1 <0>         0.1352
     34 H4         -3.9811    3.0960    1.4076 H         1 <0>         0.0803
     35 H5         -2.8284    4.2545    2.1380 H         1 <0>         0.0721
     36 H6         -3.9765    6.1323    1.2757 H         1 <0>         0.0711
     37 H7         -5.3681    4.9990    1.3004 H         1 <0>         0.0725
     38 H8         -4.4263    6.1602   -1.0400 H         1 <0>         0.0706
     39 H9         -5.1975    4.5452   -1.0038 H         1 <0>         0.0755
     40 H10        -0.0309    4.9358    0.0280 H         1 <0>         0.1206
     41 H11         2.1156    1.2505   -0.0111 H         1 <0>         0.1229
     42 H12         0.0021   -0.0041    0.0020 H         1 <0>         0.1238
     43 H13        -1.7656   -0.6931   -0.8834 H         1 <0>         0.0822
     44 H14        -1.7572   -0.7028    0.8965 H         1 <0>         0.0797
     45 H15        -4.6602    0.9392    0.0295 H         1 <0>         0.1552
     46 H16        -6.9238   -0.0270    0.0330 H         1 <0>         0.1443
     47 H17        -5.2490   -3.9532    0.0040 H         1 <0>         0.1498
     48 O3          1.1962    2.6804   -2.9274 O.co2     1 <0>        -0.7017
@<TRIPOS>BOND
     1    1    6 ar
     2    1    2 ar
     3    1   31 1
     4    2    3 ar
     5    2   32 1
     6    3    4 ar
     7    3    9 1
     8    4    5 ar
     9    5    6 ar
    10    5    7 1
    11    6   33 1
    12    7    8 2
    13    7   48 1
    14    9   13 1
    15    9   10 2
    16   10   11 1
    17   10   14 1
    18   11   12 1
    19   11   34 1
    20   11   35 1
    21   12   13 1
    22   12   36 1
    23   12   37 1
    24   13   38 1
    25   13   39 1
    26   14   19 ar
    27   14   15 ar
    28   15   16 ar
    29   15   40 1
    30   16   17 ar
    31   16   30 1
    32   17   18 ar
    33   17   41 1
    34   18   19 ar
    35   18   42 1
    36   19   20 1
    37   20   21 1
    38   21   22 1
    39   21   43 1
    40   21   44 1
    41   22   27 ar
    42   22   23 ar
    43   23   24 ar
    44   23   45 1
    45   24   25 ar
    46   24   46 1
    47   25   26 ar
    48   25   29 1
    49   26   27 ar
    50   26   47 1
    51   27   28 1
@<TRIPOS>MOLECULE
ZINC04536236
   57    58     0     0     0
SMALL
USER_CHARGES

@<TRIPOS>ATOM
      1 C1          0.2051    1.0524   -1.1415 C.ar      1 <0>        -0.0670
      2 C2          1.3851    1.7705   -1.1107 C.ar      1 <0>        -0.1477
      3 C3          2.5879    1.1177   -0.8839 C.ar      1 <0>         0.1465
      4 C4          2.6033   -0.2556   -0.6883 C.ar      1 <0>        -0.2051
      5 C5          1.4204   -0.9701   -0.7200 C.ar      1 <0>         0.0055
      6 C6          0.2219   -0.3159   -0.9465 C.ar      1 <0>        -0.1521
      7 Cl1         1.4381   -2.6888   -0.4760 Cl        1 <0>        -0.0671
      8 O1          3.7495    1.8225   -0.8537 O.3       1 <0>        -0.2982
      9 C7          4.9499    1.0847   -0.6151 C.3       1 <0>         0.0304
     10 C8          6.1447    2.0404   -0.6168 C.3       1 <0>         0.1438
     11 H1          5.9734    2.8375    0.1067 H         1 <0>         0.1224
     12 C9          7.3937    1.2838   -0.2443 C.2       1 <0>        -0.1935
     13 C10         8.4365    1.3104   -1.0367 C.2       1 <0>        -0.1215
     14 C11         9.6854    0.5538   -0.6642 C.3       1 <0>        -0.0528
     15 H2          9.5464    0.0326    0.2830 H         1 <0>         0.0928
     16 C12        10.0667   -0.4473   -1.7829 C.3       1 <0>         0.1089
     17 H3          9.8800   -0.0167   -2.7667 H         1 <0>         0.0666
     18 C13        11.5844   -0.6546   -1.5534 C.3       1 <0>        -0.1921
     19 C14        12.1003    0.7423   -1.1504 C.3       1 <0>         0.1075
     20 H4         12.4967    1.2602   -2.0238 H         1 <0>         0.0592
     21 C15        10.8922    1.5112   -0.5816 C.3       1 <0>        -0.0687
     22 H5         10.7029    2.4030   -1.1790 H         1 <0>         0.0847
     23 C16        11.1534    1.9008    0.8747 C.3       1 <0>        -0.0769
     24 C17        12.2536    2.9293    0.9300 C.2       1 <0>        -0.1583
     25 C18        12.0684    4.0523    1.5786 C.2       1 <0>        -0.1529
     26 C19        10.8264    4.2464    2.4097 C.3       1 <0>        -0.1024
     27 C20        11.2221    4.6514    3.8311 C.3       1 <0>        -0.0858
     28 C21         9.9612    4.8485    4.6750 C.3       1 <0>        -0.1830
     29 C22        10.3510    5.2474    6.0750 C.2       1 <0>         0.4877
     30 O2         11.5282    5.3632    6.3705 O.co2     1 <0>        -0.6996
     31 O3          9.4891    5.4542    6.9122 O.co2     1 <0>        -0.7100
     32 O4         13.1151    0.6200   -0.1518 O.3       1 <0>        -0.5474
     33 O5          9.3546   -1.6764   -1.6269 O.3       1 <0>        -0.5590
     34 O6          6.3010    2.6055   -1.9200 O.3       1 <0>        -0.5467
     35 H6         -0.7318    1.5613   -1.3137 H         1 <0>         0.1400
     36 H7          1.3711    2.8396   -1.2635 H         1 <0>         0.1388
     37 H8          3.5386   -0.7661   -0.5119 H         1 <0>         0.1384
     38 H9         -0.7016   -0.8754   -0.9709 H         1 <0>         0.1345
     39 H10         4.8842    0.5868    0.3523 H         1 <0>         0.0770
     40 H11         5.0800    0.3390   -1.3994 H         1 <0>         0.0688
     41 H12         7.4290    0.7196    0.6760 H         1 <0>         0.1228
     42 H13         8.4011    1.8746   -1.9569 H         1 <0>         0.1198
     43 H14        11.7543   -1.3706   -0.7493 H         1 <0>         0.0873
     44 H15        12.0669   -0.9892   -2.4717 H         1 <0>         0.0689
     45 H16        10.2442    2.3178    1.3079 H         1 <0>         0.0744
     46 H17        11.4529    1.0177    1.4390 H         1 <0>         0.0740
     47 H18        13.1946    2.7404    0.4349 H         1 <0>         0.1123
     48 H19        12.8058    4.8390    1.5176 H         1 <0>         0.1029
     49 H20        10.2115    5.0298    1.9667 H         1 <0>         0.0605
     50 H21        10.2611    3.3150    2.4414 H         1 <0>         0.0678
     51 H22        11.8371    3.8680    4.2742 H         1 <0>         0.0579
     52 H23        11.7874    5.5828    3.7995 H         1 <0>         0.0573
     53 H24         9.3463    5.6319    4.2319 H         1 <0>         0.0543
     54 H25         9.3959    3.9171    4.7066 H         1 <0>         0.0536
     55 H26        13.8946    0.1265   -0.4416 H         1 <0>         0.3709
     56 H27         9.5580   -2.3373   -2.3028 H         1 <0>         0.3770
     57 H28         6.4571    1.9523   -2.6157 H         1 <0>         0.3725
@<TRIPOS>BOND
     1    1    6 ar
     2    1    2 ar
     3    1   35 1
     4    2    3 ar
     5    2   36 1
     6    3    4 ar
     7    3    8 1
     8    4    5 ar
     9    4   37 1
    10    5    6 ar
    11    5    7 1
    12    6   38 1
    13    8    9 1
    14    9   10 1
    15    9   39 1
    16    9   40 1
    17   10   11 1
    18   10   12 1
    19   10   34 1
    20   12   13 2
    21   12   41 1
    22   13   14 1
    23   13   42 1
    24   14   15 1
    25   14   21 1
    26   14   16 1
    27   16   17 1
    28   16   18 1
    29   16   33 1
    30   18   19 1
    31   18   43 1
    32   18   44 1
    33   19   20 1
    34   19   21 1
    35   19   32 1
    36   21   22 1
    37   21   23 1
    38   23   24 1
    39   23   45 1
    40   23   46 1
    41   24   25 2
    42   24   47 1
    43   25   26 1
    44   25   48 1
    45   26   27 1
    46   26   49 1
    47   26   50 1
    48   27   28 1
    49   27   51 1
    50   27   52 1
    51   28   29 1
    52   28   53 1
    53   28   54 1
    54   29   30 2
    55   29   31 1
    56   32   55 1
    57   33   56 1
    58   34   57 1
@<TRIPOS>MOLECULE
ZINC03961849
   47    50     0     0     0
SMALL
USER_CHARGES
2-[(4-chlorophenyl)methyl-fluoro-methylsulfonyl-BLAHyl]acetic acid
@<TRIPOS>ATOM
      1 C1         -6.4410    3.4422   -0.0771 C.3       1 <0>        -0.6680
      2 S1         -6.2263    5.1766    0.4093 S.o2      1 <0>         2.4753
      3 O1         -6.2757    5.2978    1.8243 O.2       1 <0>        -0.9191
      4 O2         -7.0177    6.0184   -0.4179 O.2       1 <0>        -0.9355
      5 C2         -4.5612    5.5638   -0.0173 C.ar      1 <0>        -0.6388
      6 C3         -4.2992    6.5062   -0.9872 C.ar      1 <0>        -0.0283
      7 C4         -2.9909    6.8221   -1.3340 C.ar      1 <0>         0.0424
      8 C5         -1.9346    6.1941   -0.7095 C.ar      1 <0>        -0.0445
      9 C6         -2.1863    5.2365    0.2749 C.ar      1 <0>        -0.0680
     10 C7         -3.5098    4.9174    0.6244 C.ar      1 <0>         0.1754
     11 N1         -3.4482    3.9554    1.6069 N.pl3     1 <0>        -0.4588
     12 C8         -2.1367    3.6549    1.8906 C.2       1 <0>         0.0813
     13 C9         -1.3294    4.3965    1.1188 C.2       1 <0>        -0.1840
     14 C10         0.1222    4.0855    1.4114 C.3       1 <0>        -0.0512
     15 C11         0.0955    2.7384    2.1661 C.3       1 <0>        -0.0908
     16 C12        -1.3147    2.7562    2.7946 C.3       1 <0>        -0.0057
     17 H1         -1.2744    3.1663    3.8037 H         1 <0>         0.0987
     18 C13        -1.9038    1.3444    2.8187 C.3       1 <0>        -0.1654
     19 C14        -1.0210    0.4458    3.6458 C.2       1 <0>         0.4635
     20 O3         -0.0204    0.8879    4.1589 O.co2     1 <0>        -0.6318
     21 C15        -4.6097    3.3411    2.2547 C.3       1 <0>         0.1233
     22 C16        -4.6851    3.7981    3.6888 C.ar      1 <0>        -0.1087
     23 C17        -3.6604    3.4941    4.5656 C.ar      1 <0>        -0.1050
     24 C18        -3.7264    3.9178    5.8795 C.ar      1 <0>        -0.1157
     25 C19        -4.8234    4.6366    6.3201 C.ar      1 <0>        -0.0240
     26 C20        -5.8512    4.9356    5.4435 C.ar      1 <0>        -0.1266
     27 C21        -5.7815    4.5162    4.1284 C.ar      1 <0>        -0.0643
     28 Cl1        -4.9105    5.1625    7.9722 Cl        1 <0>        -0.0786
     29 F1         -2.7532    7.7493   -2.2873 F         1 <0>        -0.1388
     30 H2         -5.6239    2.8468    0.3303 H         1 <0>         0.1359
     31 H3         -7.3896    3.0709    0.3107 H         1 <0>         0.1413
     32 H4         -6.4384    3.3669   -1.1645 H         1 <0>         0.1398
     33 H5         -5.1189    7.0050   -1.4830 H         1 <0>         0.1576
     34 H6         -0.9186    6.4415   -0.9797 H         1 <0>         0.1436
     35 H7          0.5575    4.8631    2.0390 H         1 <0>         0.0746
     36 H8          0.6855    3.9889    0.4832 H         1 <0>         0.0692
     37 H9          0.8655    2.7079    2.9370 H         1 <0>         0.0988
     38 H10         0.2040    1.9022    1.4754 H         1 <0>         0.0724
     39 H11        -1.9636    0.9582    1.8011 H         1 <0>         0.0704
     40 H12        -2.9022    1.3747    3.2551 H         1 <0>         0.0660
     41 H13        -5.5178    3.6386    1.7304 H         1 <0>         0.0915
     42 H14        -4.5112    2.2560    2.2239 H         1 <0>         0.1076
     43 H15        -2.8062    2.9293    4.2227 H         1 <0>         0.1531
     44 H16        -2.9238    3.6841    6.5634 H         1 <0>         0.1351
     45 H17        -6.7080    5.4963    5.7869 H         1 <0>         0.1316
     46 H18        -6.5839    4.7492    3.4441 H         1 <0>         0.1730
     47 O4         -1.3434   -0.8471    3.8080 O.co2     1 <0>        -0.7697
@<TRIPOS>BOND
     1    1    2 1
     2    1   30 1
     3    1   31 1
     4    1   32 1
     5    2    3 2
     6    2    4 2
     7    2    5 1
     8    5   10 ar
     9    5    6 ar
    10    6    7 ar
    11    6   33 1
    12    7    8 ar
    13    7   29 1
    14    8    9 ar
    15    8   34 1
    16    9   13 1
    17    9   10 ar
    18   10   11 1
    19   11   12 1
    20   11   21 1
    21   12   16 1
    22   12   13 2
    23   13   14 1
    24   14   15 1
    25   14   35 1
    26   14   36 1
    27   15   16 1
    28   15   37 1
    29   15   38 1
    30   16   17 1
    31   16   18 1
    32   18   19 1
    33   18   39 1
    34   18   40 1
    35   19   20 2
    36   19   47 1
    37   21   22 1
    38   21   41 1
    39   21   42 1
    40   22   27 ar
    41   22   23 ar
    42   23   24 ar
    43   23   43 1
    44   24   25 ar
    45   24   44 1
    46   25   26 ar
    47   25   28 1
    48   26   27 ar
    49   26   45 1
    50   27   46 1
@<TRIPOS>MOLECULE
ZINC03830713
   56    56     0     0     0
SMALL
USER_CHARGES

@<TRIPOS>ATOM
      1 C1          1.1435    1.5780    0.1841 C.3       1 <0>        -0.1534
      2 C2          1.1566    0.0481    0.1856 C.3       1 <0>        -0.1262
      3 C3          1.6249   -0.4592   -1.1798 C.3       1 <0>        -0.1204
      4 C4          1.6381   -1.9892   -1.1783 C.3       1 <0>        -0.1181
      5 C5          2.1064   -2.4965   -2.5437 C.3       1 <0>        -0.1441
      6 C6          2.1195   -4.0264   -2.5422 C.3       1 <0>         0.1339
      7 H1          1.1360   -4.3979   -2.2545 H         1 <0>         0.1099
      8 C7          2.4618   -4.5271   -3.9218 C.2       1 <0>        -0.1807
      9 C8          3.4668   -5.3505   -4.0891 C.2       1 <0>        -0.1418
     10 C9          3.8091   -5.8513   -5.4686 C.3       1 <0>        -0.0473
     11 H2          3.1330   -5.4234   -6.2088 H         1 <0>         0.0978
     12 C10         5.2816   -5.5181   -5.8190 C.3       1 <0>         0.1132
     13 H3          5.9219   -5.6238   -4.9433 H         1 <0>         0.0737
     14 C11         5.6200   -6.5928   -6.8819 C.3       1 <0>        -0.2190
     15 C12         4.9054   -7.8420   -6.3978 C.2       1 <0>         0.3763
     16 O1          5.1958   -8.9826   -6.6680 O.2       1 <0>        -0.4319
     17 C13         3.7574   -7.3925   -5.5141 C.3       1 <0>        -0.1326
     18 H4          3.8794   -7.7992   -4.5102 H         1 <0>         0.1096
     19 C14         2.4245   -7.8537   -6.1072 C.3       1 <0>        -0.0812
     20 C15         2.3350   -9.3562   -6.0335 C.2       1 <0>        -0.1876
     21 C16         1.2888   -9.9240   -5.4864 C.2       1 <0>        -0.1312
     22 C17         0.1019   -9.0874   -5.0835 C.3       1 <0>        -0.1053
     23 C18        -1.1656   -9.6598   -5.7213 C.3       1 <0>        -0.0865
     24 C19        -2.3706   -8.8104   -5.3122 C.3       1 <0>        -0.1829
     25 C20        -3.6190   -9.3742   -5.9404 C.2       1 <0>         0.4875
     26 O2         -3.5513  -10.3637   -6.6495 O.co2     1 <0>        -0.6993
     27 O3         -4.6968   -8.8408   -5.7395 O.co2     1 <0>        -0.7094
     28 O4          5.3883   -4.2031   -6.3682 O.3       1 <0>        -0.5536
     29 O5          3.0966   -4.4935   -1.6099 O.3       1 <0>        -0.5569
     30 H5          2.1483    1.9498   -0.0165 H         1 <0>         0.0521
     31 H6          0.4630    1.9348   -0.5890 H         1 <0>         0.0533
     32 H7          0.8099    1.9395    1.1568 H         1 <0>         0.0523
     33 H8          1.8372   -0.3087    0.9587 H         1 <0>         0.0602
     34 H9          0.1518   -0.3237    0.3862 H         1 <0>         0.0615
     35 H10         0.9444   -0.1024   -1.9529 H         1 <0>         0.0606
     36 H11         2.6297   -0.0874   -1.3804 H         1 <0>         0.0589
     37 H12         2.3186   -2.3459   -0.4052 H         1 <0>         0.0674
     38 H13         0.6333   -2.3609   -0.9777 H         1 <0>         0.0627
     39 H14         1.4258   -2.1397   -3.3168 H         1 <0>         0.0733
     40 H15         3.1112   -2.1247   -2.7443 H         1 <0>         0.0652
     41 H16         1.8785   -4.2072   -4.7725 H         1 <0>         0.1180
     42 H17         4.0501   -5.6705   -3.2383 H         1 <0>         0.1187
     43 H18         5.2429   -6.2932   -7.8597 H         1 <0>         0.1142
     44 H19         6.6961   -6.7616   -6.9233 H         1 <0>         0.0938
     45 H20         1.6034   -7.4127   -5.5421 H         1 <0>         0.0927
     46 H21         2.3609   -7.5366   -7.1481 H         1 <0>         0.0696
     47 H22         3.1333   -9.9650   -6.4317 H         1 <0>         0.1146
     48 H23         1.2770  -10.9917   -5.3242 H         1 <0>         0.1080
     49 H24         0.0002   -9.0999   -3.9984 H         1 <0>         0.0647
     50 H25         0.2482   -8.0620   -5.4230 H         1 <0>         0.0685
     51 H26        -1.0638   -9.6473   -6.8065 H         1 <0>         0.0585
     52 H27        -1.3118  -10.6852   -5.3819 H         1 <0>         0.0589
     53 H28        -2.4724   -8.8229   -4.2271 H         1 <0>         0.0550
     54 H29        -2.2243   -7.7850   -5.6517 H         1 <0>         0.0541
     55 H30         6.2905   -3.9473   -6.6039 H         1 <0>         0.3797
     56 H31         3.9974   -4.2006   -1.8044 H         1 <0>         0.3713
@<TRIPOS>BOND
     1    1    2 1
     2    1   30 1
     3    1   31 1
     4    1   32 1
     5    2    3 1
     6    2   33 1
     7    2   34 1
     8    3    4 1
     9    3   35 1
    10    3   36 1
    11    4    5 1
    12    4   37 1
    13    4   38 1
    14    5    6 1
    15    5   39 1
    16    5   40 1
    17    6    7 1
    18    6    8 1
    19    6   29 1
    20    8    9 2
    21    8   41 1
    22    9   10 1
    23    9   42 1
    24   10   11 1
    25   10   17 1
    26   10   12 1
    27   12   13 1
    28   12   14 1
    29   12   28 1
    30   14   15 1
    31   14   43 1
    32   14   44 1
    33   15   16 2
    34   15   17 1
    35   17   18 1
    36   17   19 1
    37   19   20 1
    38   19   45 1
    39   19   46 1
    40   20   21 2
    41   20   47 1
    42   21   22 1
    43   21   48 1
    44   22   23 1
    45   22   49 1
    46   22   50 1
    47   23   24 1
    48   23   51 1
    49   23   52 1
    50   24   25 1
    51   24   53 1
    52   24   54 1
    53   25   26 2
    54   25   27 1
    55   28   55 1
    56   29   56 1
@<TRIPOS>MOLECULE
ZINC03830709
   58    58     0     0     0
SMALL
USER_CHARGES

@<TRIPOS>ATOM
      1 C1          1.1636    1.5627    0.2135 C.3       1 <0>        -0.1533
      2 C2          1.1751    0.0327    0.2109 C.3       1 <0>        -0.1261
      3 C3          1.6404   -0.4714   -1.1567 C.3       1 <0>        -0.1204
      4 C4          1.6520   -2.0014   -1.1593 C.3       1 <0>        -0.1179
      5 C5          2.1173   -2.5055   -2.5269 C.3       1 <0>        -0.1440
      6 C6          2.1288   -4.0355   -2.5295 C.3       1 <0>         0.1348
      7 H1          1.1454   -4.4067   -2.2410 H         1 <0>         0.1090
      8 C7          2.4682   -4.5329   -3.9110 C.2       1 <0>        -0.1863
      9 C8          3.4720   -5.3569   -4.0822 C.2       1 <0>        -0.1385
     10 C9          3.8114   -5.8543   -5.4637 C.3       1 <0>        -0.0503
     11 H2          3.1338   -5.4230   -6.2006 H         1 <0>         0.0902
     12 C10         5.2813   -5.5162   -5.8157 C.3       1 <0>         0.1088
     13 H3          5.9248   -5.6371   -4.9443 H         1 <0>         0.0655
     14 C11         5.6234   -6.5673   -6.9008 C.3       1 <0>        -0.1921
     15 C12         4.9078   -7.8485   -6.4253 C.3       1 <0>         0.1074
     16 H4          5.6010   -8.4783   -5.8675 H         1 <0>         0.0585
     17 C13         3.7522   -7.3950   -5.5125 C.3       1 <0>        -0.0685
     18 H5          3.8845   -7.8056   -4.5115 H         1 <0>         0.0838
     19 C14         2.4118   -7.8499   -6.0933 C.3       1 <0>        -0.0766
     20 C15         2.3173   -9.3523   -6.0218 C.2       1 <0>        -0.1574
     21 C16         1.2737   -9.9173   -5.4672 C.2       1 <0>        -0.1538
     22 C17         0.0924   -9.0774   -5.0547 C.3       1 <0>        -0.1023
     23 C18        -1.1818   -9.6464   -5.6820 C.3       1 <0>        -0.0856
     24 C19        -2.3812   -8.7937   -5.2632 C.3       1 <0>        -0.1830
     25 C20        -3.6362   -9.3541   -5.8811 C.2       1 <0>         0.4878
     26 O1         -3.5770  -10.3438   -6.5906 O.co2     1 <0>        -0.6996
     27 O2         -4.7109   -8.8178   -5.6714 O.co2     1 <0>        -0.7102
     28 O3          4.3904   -8.5656   -7.5478 O.3       1 <0>        -0.5476
     29 O4          5.3847   -4.1905   -6.3391 O.3       1 <0>        -0.5585
     30 O5          3.1071   -4.5061   -1.6002 O.3       1 <0>        -0.5572
     31 H6          2.1684    1.9340    0.0121 H         1 <0>         0.0520
     32 H7          0.4820    1.9222   -0.5575 H         1 <0>         0.0533
     33 H8          0.8320    1.9219    1.1878 H         1 <0>         0.0523
     34 H9          1.8566   -0.3268    0.9818 H         1 <0>         0.0601
     35 H10         0.1702   -0.3385    0.4123 H         1 <0>         0.0615
     36 H11         0.9589   -0.1119   -1.9276 H         1 <0>         0.0605
     37 H12         2.6453   -0.1002   -1.3581 H         1 <0>         0.0587
     38 H13         2.3335   -2.3609   -0.3884 H         1 <0>         0.0672
     39 H14         0.6471   -2.3726   -0.9579 H         1 <0>         0.0627
     40 H15         1.4358   -2.1460   -3.2978 H         1 <0>         0.0730
     41 H16         3.1222   -2.1343   -2.7283 H         1 <0>         0.0646
     42 H17         1.8837   -4.2100   -4.7599 H         1 <0>         0.1163
     43 H18         4.0565   -5.6797   -3.2334 H         1 <0>         0.1162
     44 H19         5.2386   -6.2531   -7.8710 H         1 <0>         0.0867
     45 H20         6.7004   -6.7279   -6.9503 H         1 <0>         0.0680
     46 H21         1.5980   -7.4070   -5.5192 H         1 <0>         0.0742
     47 H22         2.3390   -7.5303   -7.1328 H         1 <0>         0.0734
     48 H23         3.1100   -9.9631   -6.4279 H         1 <0>         0.1121
     49 H24         1.2598  -10.9850   -5.3055 H         1 <0>         0.1026
     50 H25        -0.0006   -9.0895   -3.9687 H         1 <0>         0.0601
     51 H26         0.2387   -8.0524   -5.3954 H         1 <0>         0.0680
     52 H27        -1.0889   -9.6342   -6.7679 H         1 <0>         0.0579
     53 H28        -1.3281  -10.6714   -5.3413 H         1 <0>         0.0571
     54 H29        -2.4741   -8.8058   -4.1772 H         1 <0>         0.0542
     55 H30        -2.2349   -7.7687   -5.6039 H         1 <0>         0.0537
     56 H31         5.0674   -8.8602   -8.1724 H         1 <0>         0.3704
     57 H32         6.2856   -3.9301   -6.5753 H         1 <0>         0.3758
     58 H33         4.0079   -4.2136   -1.7955 H         1 <0>         0.3707
@<TRIPOS>BOND
     1    1    2 1
     2    1   31 1
     3    1   32 1
     4    1   33 1
     5    2    3 1
     6    2   34 1
     7    2   35 1
     8    3    4 1
     9    3   36 1
    10    3   37 1
    11    4    5 1
    12    4   38 1
    13    4   39 1
    14    5    6 1
    15    5   40 1
    16    5   41 1
    17    6    7 1
    18    6    8 1
    19    6   30 1
    20    8    9 2
    21    8   42 1
    22    9   10 1
    23    9   43 1
    24   10   11 1
    25   10   17 1
    26   10   12 1
    27   12   13 1
    28   12   14 1
    29   12   29 1
    30   14   15 1
    31   14   44 1
    32   14   45 1
    33   15   16 1
    34   15   17 1
    35   15   28 1
    36   17   18 1
    37   17   19 1
    38   19   20 1
    39   19   46 1
    40   19   47 1
    41   20   21 2
    42   20   48 1
    43   21   22 1
    44   21   49 1
    45   22   23 1
    46   22   50 1
    47   22   51 1
    48   23   24 1
    49   23   52 1
    50   23   53 1
    51   24   25 1
    52   24   54 1
    53   24   55 1
    54   25   26 2
    55   25   27 1
    56   28   56 1
    57   29   57 1
    58   30   58 1
