@<TRIPOS>MOLECULE
ZINC45337634
   35    37     0     0     0
SMALL
USER_CHARGES

@<TRIPOS>ATOM
      1 C1          0.1056    0.5237    0.1692 C.2       1 <0>        -0.1594
      2 C2          1.1308    1.4501    0.2080 C.2       1 <0>        -0.1477
      3 C3          2.4066    1.0264    0.0343 C.2       1 <0>        -0.1510
      4 S1          2.1845   -0.7304   -0.1930 S.3       1 <0>         0.0408
      5 C4          0.4064   -0.7811   -0.0413 C.2       1 <0>        -0.1668
      6 C5          3.6816    1.8298    0.0330 C.3       1 <0>        -0.0323
      7 C6          4.2404    1.9020    1.4555 C.3       1 <0>         0.0604
      8 O1          5.4493    2.6638    1.4542 O.3       1 <0>        -0.3068
      9 C7          6.0776    2.8249    2.6469 C.ar      1 <0>         0.1645
     10 C8          5.5407    2.2540    3.7951 C.ar      1 <0>        -0.2095
     11 C9          6.1735    2.4141    5.0071 C.ar      1 <0>        -0.0402
     12 C10         7.3602    3.1539    5.0821 C.ar      1 <0>        -0.1408
     13 C11         7.8966    3.7268    3.9223 C.ar      1 <0>        -0.0332
     14 C12         7.2584    3.5555    2.7146 C.ar      1 <0>        -0.1556
     15 C13         8.0395    3.3285    6.3722 C.2       1 <0>         0.0896
     16 C14         7.6183    2.6351    7.4602 C.2       1 <0>        -0.2292
     17 C15         8.0295    2.7596    8.8727 C.2       1 <0>         0.5628
     18 O2          8.8631    3.5727    9.2266 O.2       1 <0>        -0.4727
     19 N1          7.4461    1.9432    9.7340 N.am      1 <0>        -0.6853
     20 C16         6.5228    1.0436    9.3376 C.2       1 <0>         0.5294
     21 O3          5.9121    0.2393   10.0155 O.2       1 <0>        -0.4201
     22 S2          6.4074    1.3254    7.5782 S.3       1 <0>        -0.0362
     23 H1         -0.9192    0.8343    0.3090 H         1 <0>         0.1359
     24 H2          0.9184    2.4960    0.3737 H         1 <0>         0.1348
     25 H3         -0.2573   -1.6309   -0.1012 H         1 <0>         0.1873
     26 H4          4.4115    1.3519   -0.6203 H         1 <0>         0.0931
     27 H5          3.4757    2.8375   -0.3280 H         1 <0>         0.1000
     28 H6          3.5104    2.3799    2.1088 H         1 <0>         0.0721
     29 H7          4.4463    0.8943    1.8165 H         1 <0>         0.0711
     30 H8          4.6253    1.6840    3.7362 H         1 <0>         0.1376
     31 H9          5.7554    1.9704    5.8986 H         1 <0>         0.1372
     32 H10         8.8115    4.2982    3.9744 H         1 <0>         0.1438
     33 H11         7.6734    3.9932    1.8187 H         1 <0>         0.1421
     34 H12         8.8742    4.0088    6.4553 H         1 <0>         0.1646
     35 H13         7.6878    1.9923   10.6721 H         1 <0>         0.4199
@<TRIPOS>BOND
     1    1    5 2
     2    1    2 1
     3    1   23 1
     4    2    3 2
     5    2   24 1
     6    3    4 1
     7    3    6 1
     8    4    5 1
     9    5   25 1
    10    6    7 1
    11    6   26 1
    12    6   27 1
    13    7    8 1
    14    7   28 1
    15    7   29 1
    16    8    9 1
    17    9   14 ar
    18    9   10 ar
    19   10   11 ar
    20   10   30 1
    21   11   12 ar
    22   11   31 1
    23   12   13 ar
    24   12   15 1
    25   13   14 ar
    26   13   32 1
    27   14   33 1
    28   15   16 2
    29   15   34 1
    30   16   22 1
    31   16   17 1
    32   17   18 2
    33   17   19 am
    34   19   20 am
    35   19   35 1
    36   20   21 2
    37   20   22 1
@<TRIPOS>MOLECULE
ZINC13060570
   38    40     0     0     0
SMALL
USER_CHARGES
(5Z)-5-[[4-(p-tolylmethoxy)phenyl]methylene]thiazolidine-2,4-dione
@<TRIPOS>ATOM
      1 C1         -3.8336  -11.5130    0.7433 C.3       1 <0>        -0.1197
      2 C2         -3.2713  -10.1188    0.6382 C.ar      1 <0>        -0.0719
      3 C3         -3.0093   -9.3911    1.7840 C.ar      1 <0>        -0.1243
      4 C4         -2.4931   -8.1124    1.6876 C.ar      1 <0>        -0.0893
      5 C5         -2.2383   -7.5616    0.4456 C.ar      1 <0>        -0.1079
      6 C6         -2.5052   -8.2874   -0.7003 C.ar      1 <0>        -0.0893
      7 C7         -3.0178   -9.5676   -0.6038 C.ar      1 <0>        -0.1242
      8 C8         -1.6755   -6.1676    0.3405 C.3       1 <0>         0.1000
      9 O1         -0.2478   -6.2291    0.3410 O.3       1 <0>        -0.3016
     10 C9          0.4199   -5.0504    0.2517 C.ar      1 <0>         0.1641
     11 C10         1.8100   -5.0406    0.2470 C.ar      1 <0>        -0.1565
     12 C11         2.4922   -3.8483    0.1562 C.ar      1 <0>        -0.0327
     13 C12         1.7832   -2.6439    0.0683 C.ar      1 <0>        -0.1424
     14 C13         0.3829   -2.6593    0.0793 C.ar      1 <0>        -0.0399
     15 C14        -0.2890   -3.8577    0.1648 C.ar      1 <0>        -0.2114
     16 C15         2.5054   -1.3690   -0.0288 C.2       1 <0>         0.0904
     17 C16         1.8265   -0.2225   -0.2865 C.2       1 <0>        -0.2299
     18 C17         2.3025    1.1751   -0.2789 C.2       1 <0>         0.5628
     19 O2          3.4573    1.4557   -0.0167 O.2       1 <0>        -0.4728
     20 N1          1.4106    2.1066   -0.5717 N.am      1 <0>        -0.6854
     21 C18         0.1319    1.7912   -0.8621 C.2       1 <0>         0.5295
     22 O3         -0.7835    2.5383   -1.1508 O.2       1 <0>        -0.4203
     23 S1          0.1100    0.0108   -0.7278 S.3       1 <0>        -0.0363
     24 H1         -4.9226  -11.4665    0.7435 H         1 <0>         0.0737
     25 H2         -3.4955  -12.1062   -0.1064 H         1 <0>         0.0688
     26 H3         -3.4895  -11.9748    1.6687 H         1 <0>         0.0687
     27 H4         -3.2077   -9.8216    2.7543 H         1 <0>         0.1261
     28 H5         -2.2884   -7.5438    2.5827 H         1 <0>         0.1248
     29 H6         -2.3102   -7.8554   -1.6707 H         1 <0>         0.1250
     30 H7         -3.2228  -10.1360   -1.4989 H         1 <0>         0.1261
     31 H8         -2.0139   -5.5742    1.1899 H         1 <0>         0.0758
     32 H9         -2.0189   -5.7059   -0.5852 H         1 <0>         0.0760
     33 H10         2.3558   -5.9700    0.3151 H         1 <0>         0.1412
     34 H11         3.5722   -3.8419    0.1522 H         1 <0>         0.1433
     35 H12        -0.1688   -1.7329    0.0167 H         1 <0>         0.1373
     36 H13        -1.3689   -3.8711    0.1688 H         1 <0>         0.1378
     37 H14         3.5768   -1.3438    0.1047 H         1 <0>         0.1643
     38 H15         1.6824    3.0377   -0.5782 H         1 <0>         0.4198
@<TRIPOS>BOND
     1    1    2 1
     2    1   24 1
     3    1   25 1
     4    1   26 1
     5    2    7 ar
     6    2    3 ar
     7    3    4 ar
     8    3   27 1
     9    4    5 ar
    10    4   28 1
    11    5    6 ar
    12    5    8 1
    13    6    7 ar
    14    6   29 1
    15    7   30 1
    16    8    9 1
    17    8   31 1
    18    8   32 1
    19    9   10 1
    20   10   15 ar
    21   10   11 ar
    22   11   12 ar
    23   11   33 1
    24   12   13 ar
    25   12   34 1
    26   13   14 ar
    27   13   16 1
    28   14   15 ar
    29   14   35 1
    30   15   36 1
    31   16   17 2
    32   16   37 1
    33   17   23 1
    34   17   18 1
    35   18   19 2
    36   18   20 am
    37   20   21 am
    38   20   38 1
    39   21   22 2
    40   21   23 1
@<TRIPOS>MOLECULE
ZINC45389033
   38    41     0     0     0
SMALL
USER_CHARGES

@<TRIPOS>ATOM
      1 C1         -0.0247    1.3877   -0.2260 C.ar      1 <0>        -0.0425
      2 C2          1.1471    2.1088   -0.1804 C.ar      1 <0>        -0.1499
      3 C3          2.3422    1.4781    0.1460 C.ar      1 <0>         0.1633
      4 C4          2.3614    0.1170    0.4279 C.ar      1 <0>        -0.2158
      5 C5          1.1956   -0.6139    0.3852 C.ar      1 <0>        -0.0309
      6 C6         -0.0112    0.0163    0.0571 C.ar      1 <0>        -0.1406
      7 C7         -1.2579   -0.7582    0.0100 C.2       1 <0>         0.0885
      8 C8         -2.3919   -0.1900   -0.4729 C.2       1 <0>        -0.2287
      9 C9         -3.7760   -0.7038   -0.4722 C.2       1 <0>         0.5627
     10 O1         -4.0556   -1.7871    0.0070 O.2       1 <0>        -0.4733
     11 N1         -4.6967    0.0726   -1.0183 N.am      1 <0>        -0.6854
     12 C10        -4.3826    1.2723   -1.5483 C.2       1 <0>         0.5292
     13 O2         -5.1211    2.0812   -2.0771 O.2       1 <0>        -0.4196
     14 S1         -2.6216    1.3897   -1.2775 S.3       1 <0>        -0.0335
     15 O3          3.4949    2.1941    0.1891 O.3       1 <0>        -0.3015
     16 C11         4.6870    1.4843    0.5311 C.3       1 <0>         0.1043
     17 C12         5.8561    2.4352    0.5287 C.ar      1 <0>        -0.0929
     18 C13         6.5786    2.6371   -0.6326 C.ar      1 <0>        -0.0801
     19 C14         7.6515    3.5088   -0.6399 C.ar      1 <0>        -0.1033
     20 C15         8.0056    4.1823    0.5179 C.ar      1 <0>         0.0465
     21 C16         7.2778    3.9789    1.6877 C.ar      1 <0>         0.0291
     22 C17         6.2002    3.1081    1.6862 C.ar      1 <0>        -0.0749
     23 O4          7.8185    4.7482    2.6772 O.3       1 <0>        -0.3067
     24 C18         9.1305    5.1115    2.2082 C.3       1 <0>         0.2126
     25 O5          9.0022    5.0791    0.7744 O.3       1 <0>        -0.3066
     26 H1         -0.9533    1.8795   -0.4753 H         1 <0>         0.1405
     27 H2          1.1379    3.1665   -0.3988 H         1 <0>         0.1418
     28 H3          3.2927   -0.3680    0.6805 H         1 <0>         0.1386
     29 H4          1.2117   -1.6714    0.6041 H         1 <0>         0.1391
     30 H5         -1.2725   -1.7799    0.3596 H         1 <0>         0.1636
     31 H6         -5.6188   -0.2277   -1.0384 H         1 <0>         0.4198
     32 H7          4.5771    1.0462    1.5232 H         1 <0>         0.0792
     33 H8          4.8607    0.6931   -0.1982 H         1 <0>         0.0818
     34 H9          6.3044    2.1124   -1.5359 H         1 <0>         0.1424
     35 H10         8.2141    3.6646   -1.5486 H         1 <0>         0.1413
     36 H11         5.6312    2.9519    2.5908 H         1 <0>         0.1387
     37 H12         9.3944    6.1134    2.5466 H         1 <0>         0.1351
     38 H13         9.8715    4.3855    2.5429 H         1 <0>         0.0878
@<TRIPOS>BOND
     1    1    6 ar
     2    1    2 ar
     3    1   26 1
     4    2    3 ar
     5    2   27 1
     6    3    4 ar
     7    3   15 1
     8    4    5 ar
     9    4   28 1
    10    5    6 ar
    11    5   29 1
    12    6    7 1
    13    7    8 2
    14    7   30 1
    15    8   14 1
    16    8    9 1
    17    9   10 2
    18    9   11 am
    19   11   12 am
    20   11   31 1
    21   12   13 2
    22   12   14 1
    23   15   16 1
    24   16   17 1
    25   16   32 1
    26   16   33 1
    27   17   22 ar
    28   17   18 ar
    29   18   19 ar
    30   18   34 1
    31   19   20 ar
    32   19   35 1
    33   20   25 1
    34   20   21 ar
    35   21   22 ar
    36   21   23 1
    37   22   36 1
    38   23   24 1
    39   24   25 1
    40   24   37 1
    41   24   38 1
