@<TRIPOS>MOLECULE
ZINC03815794
   31    33     0     0     0
SMALL
USER_CHARGES
4-(5-methoxybenzoimidazol-1-yl)aniline
@<TRIPOS>ATOM
      1 C1          6.0404   -1.8896   -0.0662 C.3       1 <0>         0.0273
      2 O1          5.4589   -0.5843   -0.0537 O.3       1 <0>        -0.3155
      3 C2          4.1011   -0.5135   -0.0399 C.ar      1 <0>         0.1199
      4 C3          3.3473   -1.6841   -0.0389 C.ar      1 <0>        -0.1802
      5 C4          1.9706   -1.6269   -0.0259 C.ar      1 <0>        -0.0662
      6 C5          1.3292   -0.3962   -0.0128 C.ar      1 <0>         0.0175
      7 C6          2.0829    0.7895   -0.0136 C.ar      1 <0>         0.0865
      8 C7          3.4786    0.7185   -0.0273 C.ar      1 <0>        -0.1067
      9 N1          1.1998    1.8211    0.0004 N.2       1 <0>        -0.4945
     10 C8         -0.0164    1.3576    0.0095 C.2       1 <0>         0.2740
     11 N2          0.0021   -0.0041    0.0020 N.pl3     1 <0>        -0.4358
     12 C9         -1.1161   -0.8516    0.0086 C.ar      1 <0>         0.0587
     13 C10        -1.2139   -1.8786   -0.9206 C.ar      1 <0>        -0.0638
     14 C11        -2.3117   -2.7156   -0.9113 C.ar      1 <0>        -0.1814
     15 C12        -3.3236   -2.5234    0.0206 C.ar      1 <0>         0.2242
     16 C13        -3.2279   -1.4926    0.9466 C.ar      1 <0>        -0.1809
     17 C14        -2.1271   -0.6594    0.9405 C.ar      1 <0>        -0.0640
     18 N3         -4.4388   -3.3673    0.0262 N.pl3     1 <0>        -0.8733
     19 H1          5.7101   -2.4260   -0.9557 H         1 <0>         0.0554
     20 H2          7.1269   -1.8033   -0.0765 H         1 <0>         0.1010
     21 H3          5.7277   -2.4352    0.8241 H         1 <0>         0.0554
     22 H4          3.8446   -2.6427   -0.0492 H         1 <0>         0.1369
     23 H5          1.3915   -2.5385   -0.0251 H         1 <0>         0.1262
     24 H6          4.0676    1.6237   -0.0277 H         1 <0>         0.1390
     25 H7         -0.9098    1.9643    0.0172 H         1 <0>         0.2153
     26 H8         -0.4292   -2.0252   -1.6480 H         1 <0>         0.1285
     27 H9         -2.3857   -3.5173   -1.6312 H         1 <0>         0.1305
     28 H10        -4.0147   -1.3427    1.6711 H         1 <0>         0.1315
     29 H11        -2.0526    0.1421    1.6605 H         1 <0>         0.1312
     30 H12        -5.1455   -3.2328    0.6768 H         1 <0>         0.4016
     31 H13        -4.5056   -4.0872   -0.6205 H         1 <0>         0.4015
@<TRIPOS>BOND
     1    1    2 1
     2    1   19 1
     3    1   20 1
     4    1   21 1
     5    2    3 1
     6    3    8 ar
     7    3    4 ar
     8    4    5 ar
     9    4   22 1
    10    5    6 ar
    11    5   23 1
    12    6   11 1
    13    6    7 ar
    14    7    8 ar
    15    7    9 1
    16    8   24 1
    17    9   10 2
    18   10   11 1
    19   10   25 1
    20   11   12 1
    21   12   17 ar
    22   12   13 ar
    23   13   14 ar
    24   13   26 1
    25   14   15 ar
    26   14   27 1
    27   15   16 ar
    28   15   18 1
    29   16   17 ar
    30   16   28 1
    31   17   29 1
    32   18   30 1
    33   18   31 1
@<TRIPOS>MOLECULE
ZINC03952380
   72    74     0     0     0
SMALL
USER_CHARGES
1-[3-(2,6-dichlorophenyl)-8-(4-diethylaminobutylamino)-5,7,9-triazabicyclo[4.4.0]deca-2,4,7,9,11-pentaen-4-yl]-3-tert-butyl-urea
@<TRIPOS>ATOM
      1 C1         -4.4663    6.7451   -2.1992 C.3       1 <0>        -0.1869
      2 C2         -3.7440    7.5917   -1.1493 C.3       1 <0>        -0.0140
      3 C3         -5.7495    7.7763    0.1948 C.3       1 <0>        -0.0122
      4 C4         -5.8211    9.3045    0.1743 C.3       1 <0>        -0.1886
      5 C5         -4.2126    5.9411    0.5591 C.3       1 <0>        -0.0109
      6 C6         -2.7345    5.6035    0.7639 C.3       1 <0>        -0.1438
      7 C7         -2.5983    4.1344    1.1690 C.3       1 <0>        -0.1329
      8 C8         -1.1201    3.7968    1.3738 C.3       1 <0>         0.1393
      9 N1         -0.9897    2.3901    1.7617 N.pl3     1 <0>        -0.6988
     10 C9          0.2606    1.8528    2.0025 C.ar      1 <0>         0.5908
     11 N2          1.3286    2.6364    1.8690 N.ar      1 <0>        -0.5736
     12 C10         2.5462    2.1791    2.0797 C.ar      1 <0>         0.2660
     13 C11         2.7015    0.8330    2.4529 C.ar      1 <0>        -0.2909
     14 C12         3.9658    0.2710    2.6947 C.ar      1 <0>         0.0475
     15 C13         4.0241   -1.0651    3.0577 C.ar      1 <0>        -0.1607
     16 C14         2.8285   -1.8061    3.1708 C.ar      1 <0>         0.4876
     17 N3          1.6541   -1.2563    2.9386 N.ar      1 <0>        -0.4748
     18 C15         1.5415    0.0257    2.5863 C.ar      1 <0>         0.4312
     19 N4          0.3471    0.5830    2.3502 N.ar      1 <0>        -0.5595
     20 N5          2.8912   -3.1435    3.5349 N.am      1 <0>        -0.6592
     21 C16         1.7585   -3.8651    3.6472 C.2       1 <0>         0.6931
     22 O1          0.6818   -3.3443    3.4295 O.2       1 <0>        -0.5048
     23 N6          1.8195   -5.1642    4.0010 N.am      1 <0>        -0.7340
     24 C17         0.5883   -5.9487    4.1231 C.3       1 <0>         0.1879
     25 C18        -0.1412   -5.9656    2.7783 C.3       1 <0>        -0.1657
     26 C19         0.9349   -7.3813    4.5333 C.3       1 <0>        -0.1564
     27 C20        -0.3148   -5.3184    5.1852 C.3       1 <0>        -0.1657
     28 C21         5.3318   -1.7107    3.3246 C.ar      1 <0>        -0.0437
     29 C22         6.0299   -2.3328    2.2896 C.ar      1 <0>        -0.0133
     30 C23         7.2503   -2.9280    2.5437 C.ar      1 <0>        -0.1036
     31 C24         7.7753   -2.9171    3.8233 C.ar      1 <0>        -0.0815
     32 C25         7.0852   -2.3068    4.8551 C.ar      1 <0>        -0.1036
     33 C26         5.8664   -1.7036    4.6130 C.ar      1 <0>        -0.0132
     34 Cl1         5.0016   -0.9387    5.9094 Cl        1 <0>        -0.0433
     35 Cl2         5.3693   -2.3538    0.6844 Cl        1 <0>        -0.0434
     36 H1         -4.0065    6.9055   -3.1744 H         1 <0>         0.1057
     37 H2         -4.3908    5.6913   -1.9309 H         1 <0>         0.0804
     38 H3         -5.5162    7.0352   -2.2404 H         1 <0>         0.0800
     39 H4         -3.8394    8.6470   -1.4052 H         1 <0>         0.1289
     40 H5         -2.6893    7.3178   -1.1245 H         1 <0>         0.1296
     41 H6         -6.2651    7.3767   -0.6785 H         1 <0>         0.1321
     42 H7         -6.2262    7.4024    1.1009 H         1 <0>         0.1285
     43 H8         -6.8645    9.6196    0.1898 H         1 <0>         0.1058
     44 H9         -5.3079    9.7041    1.0489 H         1 <0>         0.0802
     45 H10        -5.3421    9.6786   -0.7305 H         1 <0>         0.0792
     46 H11        -4.6244    5.3079   -0.2268 H         1 <0>         0.1339
     47 H12        -4.7569    5.7683    1.4875 H         1 <0>         0.1302
     48 H13        -2.3227    6.2368    1.5498 H         1 <0>         0.0912
     49 H14        -2.1902    5.7764   -0.1645 H         1 <0>         0.0908
     50 H15        -3.0100    3.5012    0.3831 H         1 <0>         0.0823
     51 H16        -3.1425    3.9616    2.0974 H         1 <0>         0.0829
     52 H17        -0.7083    4.4301    2.1597 H         1 <0>         0.0712
     53 H18        -0.5759    3.9697    0.4454 H         1 <0>         0.0709
     54 H19        -1.7808    1.8359    1.8494 H         1 <0>         0.4172
     55 H20         3.4054    2.8240    1.9687 H         1 <0>         0.1807
     56 H21         4.8648    0.8621    2.6010 H         1 <0>         0.1525
     57 H22         3.7503   -3.5590    3.7086 H         1 <0>         0.4130
     58 H23         2.6786   -5.5798    4.1747 H         1 <0>         0.3948
     59 H24         0.5022   -6.4147    2.0216 H         1 <0>         0.0532
     60 H25        -1.0573   -6.5493    2.8692 H         1 <0>         0.0646
     61 H26        -0.3882   -4.9450    2.4860 H         1 <0>         0.0802
     62 H27         1.4546   -7.3693    5.4914 H         1 <0>         0.0630
     63 H28         0.0188   -7.9650    4.6242 H         1 <0>         0.0775
     64 H29         1.5783   -7.8304    3.7766 H         1 <0>         0.0630
     65 H30        -0.5618   -4.2978    4.8930 H         1 <0>         0.0802
     66 H31        -1.2309   -5.9021    5.2761 H         1 <0>         0.0646
     67 H32         0.2049   -5.3063    6.1433 H         1 <0>         0.0532
     68 H33         7.7940   -3.4061    1.7423 H         1 <0>         0.1465
     69 H34         8.7278   -3.3874    4.0178 H         1 <0>         0.1484
     70 H35         7.5004   -2.3017    5.8521 H         1 <0>         0.1466
     71 N7         -4.3291    7.3675    0.1894 N.4       1 <0>        -0.3960
     72 H36        -3.8167    7.9330    0.8763 H         1 <0>         0.4282
@<TRIPOS>BOND
     1    1    2 1
     2    1   36 1
     3    1   37 1
     4    1   38 1
     5    2   39 1
     6    2   40 1
     7    2   71 1
     8    3    4 1
     9    3   41 1
    10    3   42 1
    11    3   71 1
    12    4   43 1
    13    4   44 1
    14    4   45 1
    15    5    6 1
    16    5   46 1
    17    5   47 1
    18    5   71 1
    19    6    7 1
    20    6   48 1
    21    6   49 1
    22    7    8 1
    23    7   50 1
    24    7   51 1
    25    8    9 1
    26    8   52 1
    27    8   53 1
    28    9   10 1
    29    9   54 1
    30   10   19 ar
    31   10   11 ar
    32   11   12 ar
    33   12   13 ar
    34   12   55 1
    35   13   18 ar
    36   13   14 ar
    37   14   15 ar
    38   14   56 1
    39   15   16 ar
    40   15   28 1
    41   16   17 ar
    42   16   20 1
    43   17   18 ar
    44   18   19 ar
    45   20   21 am
    46   20   57 1
    47   21   22 2
    48   21   23 am
    49   23   24 1
    50   23   58 1
    51   24   25 1
    52   24   26 1
    53   24   27 1
    54   25   59 1
    55   25   60 1
    56   25   61 1
    57   26   62 1
    58   26   63 1
    59   26   64 1
    60   27   65 1
    61   27   66 1
    62   27   67 1
    63   28   33 ar
    64   28   29 ar
    65   29   30 ar
    66   29   35 1
    67   30   31 ar
    68   30   68 1
    69   31   32 ar
    70   31   69 1
    71   32   33 ar
    72   32   70 1
    73   33   34 1
    74   71   72 1
@<TRIPOS>MOLECULE
ZINC01486219
   63    66     0     0     0
SMALL
USER_CHARGES
3-(2,6-dichlorophenyl)-8-[4-(2-diethylaminoethoxy)phenyl]amino-5-methyl-5,7,9-triazabicyclo[4.4.0]deca-2,7,9,11-tetraen-4-one
@<TRIPOS>ATOM
      1 C1          4.3966   -4.7837   -2.5468 C.3       1 <0>        -0.1870
      2 C2          2.8964   -4.6021   -2.7861 C.3       1 <0>        -0.0162
      3 C3          2.4461   -6.8910   -2.1372 C.3       1 <0>        -0.0118
      4 C4          1.8425   -7.2999   -3.4823 C.3       1 <0>        -0.1890
      5 C5          2.4154   -5.1324   -0.4731 C.3       1 <0>        -0.0017
      6 C6          1.8626   -3.7372   -0.1755 C.3       1 <0>         0.0258
      7 O1          0.4386   -3.7538   -0.2937 O.3       1 <0>        -0.3284
      8 C7         -0.2140   -2.5840   -0.0593 C.ar      1 <0>         0.0962
      9 C8         -1.5967   -2.5300   -0.1569 C.ar      1 <0>        -0.1190
     10 C9         -2.2601   -1.3423    0.0800 C.ar      1 <0>        -0.0693
     11 C10        -1.5427   -0.2019    0.4166 C.ar      1 <0>         0.1456
     12 C11        -0.1586   -0.2569    0.5145 C.ar      1 <0>        -0.1051
     13 C12         0.5033   -1.4453    0.2768 C.ar      1 <0>        -0.1797
     14 N1         -2.2146    1.0029    0.6565 N.pl3     1 <0>        -0.6299
     15 C13        -3.4618    0.9918    1.2505 C.ar      1 <0>         0.6044
     16 N2         -3.9572   -0.1650    1.6772 N.ar      1 <0>        -0.5742
     17 C14        -5.1437   -0.2299    2.2512 C.ar      1 <0>         0.2632
     18 C15        -5.8809    0.9543    2.4052 C.ar      1 <0>        -0.2686
     19 C16        -7.1573    0.9487    3.0126 C.2       1 <0>         0.0223
     20 C17        -7.8369    2.1304    3.1401 C.2       1 <0>        -0.1517
     21 C18        -7.2276    3.3671    2.6461 C.2       1 <0>         0.5544
     22 O2         -7.8250    4.4230    2.7559 O.2       1 <0>        -0.4939
     23 N3         -6.0096    3.3430    2.0714 N.am      1 <0>        -0.5055
     24 C19        -5.3213    2.1634    1.9394 C.ar      1 <0>         0.4667
     25 N4         -4.1173    2.1350    1.3785 N.ar      1 <0>        -0.5922
     26 C20        -5.4137    4.5888    1.5828 C.3       1 <0>         0.0688
     27 C21        -9.1768    2.1577    3.7717 C.ar      1 <0>        -0.0161
     28 C22       -10.3226    1.9980    2.9915 C.ar      1 <0>        -0.0058
     29 C23       -11.5685    2.0201    3.5872 C.ar      1 <0>        -0.1054
     30 C24       -11.6824    2.2097    4.9527 C.ar      1 <0>        -0.0846
     31 C25       -10.5507    2.3740    5.7310 C.ar      1 <0>        -0.1053
     32 C26        -9.2987    2.3491    5.1486 C.ar      1 <0>        -0.0060
     33 Cl1        -7.8797    2.5560    6.1271 Cl        1 <0>        -0.0505
     34 Cl2       -10.1822    1.7665    1.2768 Cl        1 <0>        -0.0510
     35 H1          4.9531   -4.1230   -3.2115 H         1 <0>         0.1068
     36 H2          4.6315   -4.5389   -1.5110 H         1 <0>         0.0793
     37 H3          4.6739   -5.8185   -2.7475 H         1 <0>         0.0822
     38 H4          2.6589   -4.8621   -3.8177 H         1 <0>         0.1316
     39 H5          2.6219   -3.5637   -2.6008 H         1 <0>         0.1265
     40 H6          3.5263   -7.0339   -2.1651 H         1 <0>         0.1326
     41 H7          2.0186   -7.5058   -1.3452 H         1 <0>         0.1298
     42 H8          2.0860   -8.3423   -3.6879 H         1 <0>         0.1065
     43 H9          0.7598   -7.1800   -3.4463 H         1 <0>         0.0812
     44 H10         2.2519   -6.6689   -4.2712 H         1 <0>         0.0791
     45 H11         3.4910   -5.1423   -0.2968 H         1 <0>         0.1506
     46 H12         1.9336   -5.8608    0.1791 H         1 <0>         0.1410
     47 H13         2.2779   -3.0226   -0.8861 H         1 <0>         0.0853
     48 H14         2.1397   -3.4450    0.8374 H         1 <0>         0.1080
     49 H15        -2.1544   -3.4170   -0.4187 H         1 <0>         0.1368
     50 H16        -3.3362   -1.2993   -0.0007 H         1 <0>         0.1474
     51 H17         0.4000    0.6295    0.7766 H         1 <0>         0.1342
     52 H18         1.5798   -1.4882    0.3529 H         1 <0>         0.1308
     53 H19        -1.8044    1.8453    0.4058 H         1 <0>         0.4284
     54 H20        -5.5388   -1.1742    2.5955 H         1 <0>         0.1893
     55 H21        -7.5900    0.0261    3.3703 H         1 <0>         0.1521
     56 H22        -5.7018    4.7463    0.5434 H         1 <0>         0.0759
     57 H23        -5.7679    5.4230    2.1883 H         1 <0>         0.0941
     58 H24        -4.3278    4.5242    1.6530 H         1 <0>         0.0949
     59 H25       -12.4560    1.8924    2.9851 H         1 <0>         0.1450
     60 H26       -12.6591    2.2300    5.4131 H         1 <0>         0.1471
     61 H27       -10.6465    2.5224    6.7965 H         1 <0>         0.1451
     62 N5          2.1179   -5.4728   -1.8803 N.4       1 <0>        -0.3969
     63 H28         1.1169   -5.3253   -2.0547 H         1 <0>         0.4358
@<TRIPOS>BOND
     1    1    2 1
     2    1   35 1
     3    1   36 1
     4    1   37 1
     5    2   38 1
     6    2   39 1
     7    2   62 1
     8    3    4 1
     9    3   40 1
    10    3   41 1
    11    3   62 1
    12    4   42 1
    13    4   43 1
    14    4   44 1
    15    5    6 1
    16    5   45 1
    17    5   46 1
    18    5   62 1
    19    6    7 1
    20    6   47 1
    21    6   48 1
    22    7    8 1
    23    8   13 ar
    24    8    9 ar
    25    9   10 ar
    26    9   49 1
    27   10   11 ar
    28   10   50 1
    29   11   12 ar
    30   11   14 1
    31   12   13 ar
    32   12   51 1
    33   13   52 1
    34   14   15 1
    35   14   53 1
    36   15   25 ar
    37   15   16 ar
    38   16   17 ar
    39   17   18 ar
    40   17   54 1
    41   18   24 ar
    42   18   19 1
    43   19   20 2
    44   19   55 1
    45   20   21 1
    46   20   27 1
    47   21   22 2
    48   21   23 am
    49   23   24 1
    50   23   26 1
    51   24   25 ar
    52   26   56 1
    53   26   57 1
    54   26   58 1
    55   27   32 ar
    56   27   28 ar
    57   28   29 ar
    58   28   34 1
    59   29   30 ar
    60   29   59 1
    61   30   31 ar
    62   30   60 1
    63   31   32 ar
    64   31   61 1
    65   32   33 1
    66   62   63 1
@<TRIPOS>MOLECULE
ZINC00007489
   29    31     0     0     0
SMALL
USER_CHARGES
5-methoxy-1-phenyl-benzoimidazole
@<TRIPOS>ATOM
      1 C1          5.9692    3.4062   -0.0362 C.3       1 <0>         0.0268
      2 O1          5.4230    2.0857   -0.0380 O.3       1 <0>        -0.3147
      3 C2          4.0676    1.9783   -0.0261 C.ar      1 <0>         0.1222
      4 C3          3.2826    3.1280   -0.0125 C.ar      1 <0>        -0.1781
      5 C4          1.9079    3.0336    0.0001 C.ar      1 <0>        -0.0667
      6 C5          1.3000    1.7860   -0.0008 C.ar      1 <0>         0.0174
      7 C6          2.0852    0.6211   -0.0145 C.ar      1 <0>         0.0877
      8 C7          3.4784    0.7299   -0.0272 C.ar      1 <0>        -0.1058
      9 N1          1.2301   -0.4340   -0.0120 N.2       1 <0>        -0.4902
     10 C8          0.0021   -0.0041    0.0020 C.2       1 <0>         0.2769
     11 N2         -0.0164    1.3581    0.0095 N.pl3     1 <0>        -0.4467
     12 C9         -1.1555    2.1739    0.0196 C.ar      1 <0>         0.1243
     13 C10        -1.2691    3.1986    0.9496 C.ar      1 <0>        -0.1181
     14 C11        -2.3904    4.0050    0.9530 C.ar      1 <0>        -0.1002
     15 C12        -3.4047    3.7851    0.0392 C.ar      1 <0>        -0.1145
     16 C13        -3.2972    2.7615   -0.8843 C.ar      1 <0>        -0.0995
     17 C14        -2.1756    1.9556   -0.8967 C.ar      1 <0>        -0.1183
     18 H1          5.6251    3.9430   -0.9203 H         1 <0>         0.0559
     19 H2          5.6414    3.9337    0.8596 H         1 <0>         0.0559
     20 H3          7.0576    3.3493   -0.0465 H         1 <0>         0.1019
     21 H4          3.7539    4.0997   -0.0114 H         1 <0>         0.1384
     22 H5          1.3044    3.9292    0.0111 H         1 <0>         0.1269
     23 H6          4.0916   -0.1591   -0.0382 H         1 <0>         0.1405
     24 H7         -0.8745   -0.6349    0.0064 H         1 <0>         0.2172
     25 H8         -0.4794    3.3677    1.6667 H         1 <0>         0.1292
     26 H9         -2.4772    4.8053    1.6731 H         1 <0>         0.1336
     27 H10        -4.2824    4.4144    0.0465 H         1 <0>         0.1315
     28 H11        -4.0910    2.5922   -1.5968 H         1 <0>         0.1346
     29 H12        -2.0920    1.1567   -1.6187 H         1 <0>         0.1318
@<TRIPOS>BOND
     1    1    2 1
     2    1   18 1
     3    1   19 1
     4    1   20 1
     5    2    3 1
     6    3    8 ar
     7    3    4 ar
     8    4    5 ar
     9    4   21 1
    10    5    6 ar
    11    5   22 1
    12    6   11 1
    13    6    7 ar
    14    7    8 ar
    15    7    9 1
    16    8   23 1
    17    9   10 2
    18   10   11 1
    19   10   24 1
    20   11   12 1
    21   12   17 ar
    22   12   13 ar
    23   13   14 ar
    24   13   25 1
    25   14   15 ar
    26   14   26 1
    27   15   16 ar
    28   15   27 1
    29   16   17 ar
    30   16   28 1
    31   17   29 1
@<TRIPOS>MOLECULE
ZINC13763794
   45    47     0     0     0
SMALL
USER_CHARGES
3-(2-amino-6-phenyl-pyrido[6,5-d]pyrimidin-7-yl)-1-tert-butyl-urea
@<TRIPOS>ATOM
      1 C1         -1.0890    7.6771    1.3039 C.3       1 <0>        -0.1665
      2 C2         -0.3114    8.0808    0.0497 C.3       1 <0>         0.1876
      3 C3         -0.0831    9.5937    0.0561 C.3       1 <0>        -0.1554
      4 C4         -1.1123    7.6912   -1.1944 C.3       1 <0>        -0.1662
      5 N1          0.9814    7.3920    0.0338 N.am      1 <0>        -0.7356
      6 C5          1.0272    6.0450    0.0258 C.2       1 <0>         0.6893
      7 O1         -0.0043    5.4017    0.0317 O.2       1 <0>        -0.5040
      8 N2          2.2166    5.4112    0.0112 N.am      1 <0>        -0.6638
      9 C6          2.2638    4.0247    0.0029 C.ar      1 <0>         0.4702
     10 C7          3.5175    3.3772   -0.0124 C.ar      1 <0>        -0.1612
     11 C8          3.5690    1.9924   -0.0207 C.ar      1 <0>         0.0353
     12 C9          2.3538    1.2883   -0.0134 C.ar      1 <0>        -0.2947
     13 C10         2.3093   -0.1165   -0.0206 C.ar      1 <0>         0.2642
     14 N3          1.1320   -0.7081   -0.0126 N.ar      1 <0>        -0.5710
     15 C11         0.0021   -0.0041    0.0020 C.ar      1 <0>         0.5947
     16 N4         -0.0158    1.3153    0.0093 N.ar      1 <0>        -0.5639
     17 C12         1.1301    2.0077    0.0021 C.ar      1 <0>         0.4265
     18 N5          1.1371    3.3420    0.0091 N.ar      1 <0>        -0.4760
     19 N6         -1.2015   -0.6830    0.0094 N.pl3     1 <0>        -0.8109
     20 C13         4.7693    4.1719   -0.0190 C.ar      1 <0>        -0.0405
     21 C14         4.9387    5.2026   -0.9420 C.ar      1 <0>        -0.1268
     22 C15         6.1035    5.9427   -0.9397 C.ar      1 <0>        -0.1105
     23 C16         7.1066    5.6558   -0.0313 C.ar      1 <0>        -0.1154
     24 C17         6.9463    4.6304    0.8832 C.ar      1 <0>        -0.1109
     25 C18         5.7834    3.8873    0.8940 C.ar      1 <0>        -0.1033
     26 H1         -0.5185    7.9547    2.1902 H         1 <0>         0.0527
     27 H2         -2.0510    8.1896    1.3158 H         1 <0>         0.0642
     28 H3         -1.2517    6.5993    1.2994 H         1 <0>         0.0814
     29 H4          0.4709    9.8813   -0.8375 H         1 <0>         0.0624
     30 H5         -1.0450   10.1062    0.0679 H         1 <0>         0.0766
     31 H6          0.4874    9.8713    0.9424 H         1 <0>         0.0623
     32 H7         -1.2749    6.6134   -1.1990 H         1 <0>         0.0815
     33 H8         -2.0742    8.2037   -1.1826 H         1 <0>         0.0642
     34 H9         -0.5582    7.9788   -2.0880 H         1 <0>         0.0527
     35 H10         1.8045    7.9053    0.0290 H         1 <0>         0.3941
     36 H11         3.0396    5.9245    0.0064 H         1 <0>         0.4155
     37 H12         4.5146    1.4707   -0.0321 H         1 <0>         0.1527
     38 H13         3.2195   -0.6978   -0.0328 H         1 <0>         0.1809
     39 H14        -2.0366   -0.1897    0.0197 H         1 <0>         0.4185
     40 H15        -1.2112   -1.6530    0.0043 H         1 <0>         0.4170
     41 H16         4.1583    5.4243   -1.6548 H         1 <0>         0.1241
     42 H17         6.2343    6.7442   -1.6516 H         1 <0>         0.1276
     43 H18         8.0182    6.2349   -0.0359 H         1 <0>         0.1257
     44 H19         7.7329    4.4106    1.5899 H         1 <0>         0.1275
     45 H20         5.6592    3.0872    1.6087 H         1 <0>         0.1271
@<TRIPOS>BOND
     1    1    2 1
     2    1   26 1
     3    1   27 1
     4    1   28 1
     5    2    3 1
     6    2    4 1
     7    2    5 1
     8    3   29 1
     9    3   30 1
    10    3   31 1
    11    4   32 1
    12    4   33 1
    13    4   34 1
    14    5    6 am
    15    5   35 1
    16    6    7 2
    17    6    8 am
    18    8    9 1
    19    8   36 1
    20    9   18 ar
    21    9   10 ar
    22   10   11 ar
    23   10   20 1
    24   11   12 ar
    25   11   37 1
    26   12   17 ar
    27   12   13 ar
    28   13   14 ar
    29   13   38 1
    30   14   15 ar
    31   15   16 ar
    32   15   19 1
    33   16   17 ar
    34   17   18 ar
    35   19   39 1
    36   19   40 1
    37   20   25 ar
    38   20   21 ar
    39   21   22 ar
    40   21   41 1
    41   22   23 ar
    42   22   42 1
    43   23   24 ar
    44   23   43 1
    45   24   25 ar
    46   24   44 1
    47   25   45 1
@<TRIPOS>MOLECULE
ZINC00017525
   26    28     0     0     0
SMALL
USER_CHARGES
1-phenylbenzimidazol-5-ol
@<TRIPOS>ATOM
      1 C1         -3.4049    3.7848    0.0395 C.ar      1 <0>        -0.1134
      2 C2         -3.2972    2.7615   -0.8843 C.ar      1 <0>        -0.0997
      3 C3         -2.1756    1.9556   -0.8967 C.ar      1 <0>        -0.1175
      4 C4         -1.1555    2.1739    0.0196 C.ar      1 <0>         0.1220
      5 C5         -1.2691    3.1986    0.9496 C.ar      1 <0>        -0.1171
      6 C6         -2.3904    4.0050    0.9530 C.ar      1 <0>        -0.0999
      7 N1         -0.0164    1.3581    0.0095 N.pl3     1 <0>        -0.4469
      8 C7          0.0021   -0.0041    0.0020 C.2       1 <0>         0.2737
      9 N2          1.2301   -0.4342   -0.0120 N.2       1 <0>        -0.4879
     10 C8          2.0853    0.6208   -0.0145 C.ar      1 <0>         0.0636
     11 C9          1.3001    1.7861   -0.0008 C.ar      1 <0>         0.0414
     12 C10         1.9078    3.0332    0.0006 C.ar      1 <0>        -0.0903
     13 C11         3.2830    3.1275   -0.0120 C.ar      1 <0>        -0.1218
     14 C12         4.0676    1.9781   -0.0261 C.ar      1 <0>         0.1008
     15 C13         3.4782    0.7294   -0.0272 C.ar      1 <0>        -0.0913
     16 O1          5.4231    2.0854   -0.0385 O.3       1 <0>        -0.4941
     17 H1         -4.2829    4.4137    0.0472 H         1 <0>         0.1319
     18 H2         -4.0909    2.5924   -1.5970 H         1 <0>         0.1349
     19 H3         -2.0920    1.1567   -1.6187 H         1 <0>         0.1318
     20 H4         -0.4793    3.3680    1.6665 H         1 <0>         0.1298
     21 H5         -2.4774    4.8050    1.6733 H         1 <0>         0.1342
     22 H6         -0.8746   -0.6349    0.0070 H         1 <0>         0.2176
     23 H7          1.3044    3.9288    0.0119 H         1 <0>         0.1283
     24 H8          3.7544    4.0992   -0.0106 H         1 <0>         0.1392
     25 H9          4.0913   -0.1596   -0.0382 H         1 <0>         0.1388
     26 H10         5.8067    2.1212   -0.9254 H         1 <0>         0.3917
@<TRIPOS>BOND
     1    1    6 ar
     2    1    2 ar
     3    1   17 1
     4    2    3 ar
     5    2   18 1
     6    3    4 ar
     7    3   19 1
     8    4    5 ar
     9    4    7 1
    10    5    6 ar
    11    5   20 1
    12    6   21 1
    13    7   11 1
    14    7    8 1
    15    8    9 2
    16    8   22 1
    17    9   10 1
    18   10   15 ar
    19   10   11 ar
    20   11   12 ar
    21   12   13 ar
    22   12   23 1
    23   13   14 ar
    24   13   24 1
    25   14   15 ar
    26   14   16 1
    27   15   25 1
    28   16   26 1
