@<TRIPOS>MOLECULE
ZINC00007460
   40    43     0     0     0
SMALL
USER_CHARGES

@<TRIPOS>ATOM
      1 C1          0.0099    1.3100   -0.6665 C.ar      1 <0>        -0.0873
      2 C2          1.1932    2.0449   -0.6736 C.ar      1 <0>        -0.1031
      3 C3          2.3989    1.4389   -0.4755 C.ar      1 <0>        -0.0878
      4 C4          2.4464    0.0575   -0.2619 C.ar      1 <0>        -0.1050
      5 C5          1.2413   -0.6922   -0.2545 C.ar      1 <0>        -0.0366
      6 C6          0.0201   -0.0377   -0.4614 C.ar      1 <0>        -0.1000
      7 C7          1.3338   -2.0791   -0.0357 C.ar      1 <0>         0.0670
      8 N1          2.5164   -2.6188    0.1508 N.ar      1 <0>        -0.2122
      9 N2          3.6082   -1.9490    0.1455 N.ar      1 <0>        -0.3148
     10 C8          3.6557   -0.6424   -0.0488 C.ar      1 <0>         0.3624
     11 N3          4.8682    0.0284   -0.0441 N.pl3     1 <0>        -0.6425
     12 C9          6.0641   -0.6900    0.0467 C.ar      1 <0>         0.1605
     13 C10         6.1747   -1.9364   -0.5565 C.ar      1 <0>        -0.1016
     14 C11         7.3572   -2.6438   -0.4652 C.ar      1 <0>        -0.0857
     15 C12         8.4313   -2.1122    0.2268 C.ar      1 <0>        -0.0509
     16 C13         8.3240   -0.8708    0.8288 C.ar      1 <0>        -0.0880
     17 C14         7.1459   -0.1562    0.7354 C.ar      1 <0>        -0.1365
     18 Cl1         9.9160   -3.0048    0.3406 Cl        1 <0>        -0.0690
     19 C15         0.0926   -2.9335   -0.0150 C.3       1 <0>        -0.0232
     20 C16        -0.1981   -3.4309   -1.4076 C.ar      1 <0>        -0.0363
     21 C17        -0.9979   -2.6976   -2.2706 C.ar      1 <0>        -0.1703
     22 C18        -1.2425   -3.1855   -3.5404 C.ar      1 <0>         0.0995
     23 N4         -0.7257   -4.3333   -3.9331 N.ar      1 <0>        -0.4856
     24 C19         0.0392   -5.0571   -3.1393 C.ar      1 <0>         0.1005
     25 C20         0.3326   -4.6300   -1.8581 C.ar      1 <0>        -0.1573
     26 H1         -0.9311    1.8168   -0.8216 H         1 <0>         0.1364
     27 H2          1.1553    3.1115   -0.8389 H         1 <0>         0.1355
     28 H3          3.3089    2.0205   -0.4838 H         1 <0>         0.1315
     29 H4         -0.9047   -0.5955   -0.4580 H         1 <0>         0.1411
     30 H5          4.8872    0.9963   -0.1038 H         1 <0>         0.4199
     31 H6          5.3365   -2.3519   -1.0962 H         1 <0>         0.1422
     32 H7          7.4438   -3.6128   -0.9340 H         1 <0>         0.1376
     33 H8          9.1638   -0.4583    1.3683 H         1 <0>         0.1380
     34 H9          7.0641    0.8146    1.2016 H         1 <0>         0.1341
     35 H10         0.2476   -3.7836    0.6494 H         1 <0>         0.1044
     36 H11        -0.7500   -2.3417    0.3426 H         1 <0>         0.0975
     37 H12        -1.4246   -1.7571   -1.9546 H         1 <0>         0.1331
     38 H13        -1.8645   -2.6203   -4.2187 H         1 <0>         0.1558
     39 H14         0.4444   -5.9925   -3.4961 H         1 <0>         0.1573
     40 H15         0.9637   -5.2248   -1.2145 H         1 <0>         0.1397
@<TRIPOS>BOND
     1    1    6 ar
     2    1    2 ar
     3    1   26 1
     4    2    3 ar
     5    2   27 1
     6    3    4 ar
     7    3   28 1
     8    4   10 ar
     9    4    5 ar
    10    5    6 ar
    11    5    7 ar
    12    6   29 1
    13    7    8 ar
    14    7   19 1
    15    8    9 ar
    16    9   10 ar
    17   10   11 1
    18   11   12 1
    19   11   30 1
    20   12   17 ar
    21   12   13 ar
    22   13   14 ar
    23   13   31 1
    24   14   15 ar
    25   14   32 1
    26   15   16 ar
    27   15   18 1
    28   16   17 ar
    29   16   33 1
    30   17   34 1
    31   19   20 1
    32   19   35 1
    33   19   36 1
    34   20   25 ar
    35   20   21 ar
    36   21   22 ar
    37   21   37 1
    38   22   23 ar
    39   22   38 1
    40   23   24 ar
    41   24   25 ar
    42   24   39 1
    43   25   40 1
@<TRIPOS>MOLECULE
ZINC13474785
   63    67     0     0     0
SMALL
USER_CHARGES

@<TRIPOS>ATOM
      1 C1         -2.1246    1.3061   -5.4588 C.3       1 <0>         0.0239
      2 O1         -2.0667   -0.1208   -5.5091 O.3       1 <0>        -0.3002
      3 C2         -0.8829   -0.7027   -5.1790 C.ar      1 <0>         0.1156
      4 C3          0.1763    0.0798   -4.8158 C.ar      1 <0>        -0.1419
      5 C4          1.3954   -0.5183   -4.4752 C.ar      1 <0>        -0.1517
      6 C5          1.5241   -1.9290   -4.5090 C.ar      1 <0>         0.1777
      7 C6          0.4256   -2.7116   -4.8848 C.ar      1 <0>        -0.1830
      8 C7         -0.7646   -2.0992   -5.2096 C.ar      1 <0>         0.1606
      9 O2         -1.8337   -2.8563   -5.5691 O.3       1 <0>        -0.2971
     10 C8         -1.6504   -4.2735   -5.5810 C.3       1 <0>         0.0201
     11 N1          2.7036   -2.4771   -4.1769 N.ar      1 <0>        -0.5096
     12 C9          3.7149   -1.7180   -3.8285 C.ar      1 <0>         0.3107
     13 N2          3.6413   -0.3971   -3.7826 N.ar      1 <0>        -0.5396
     14 C10         2.5229    0.2460   -4.0910 C.ar      1 <0>         0.4677
     15 N3          2.4606    1.6231   -4.0392 N.pl3     1 <0>        -0.6596
     16 C11         1.9700    2.3048   -2.8332 C.3       1 <0>         0.1330
     17 C12         3.0387    3.2996   -2.3635 C.3       1 <0>         0.1145
     18 N4          3.4622    4.1113   -3.5131 N.am      1 <0>        -0.6209
     19 C13         3.9528    3.4297   -4.7192 C.3       1 <0>         0.0940
     20 C14         2.8894    2.4350   -5.1867 C.3       1 <0>         0.1337
     21 C15         3.4014    5.4568   -3.4625 C.2       1 <0>         0.7098
     22 O3          3.1198    6.0137   -2.4190 O.2       1 <0>        -0.5683
     23 N5          3.6527    6.1848   -4.5685 N.am      1 <0>        -0.6809
     24 C16         3.7821    7.5772   -4.4764 C.ar      1 <0>         0.1309
     25 C17         3.1691    8.2644   -3.4373 C.ar      1 <0>        -0.0986
     26 C18         3.2969    9.6363   -3.3471 C.ar      1 <0>        -0.1707
     27 C19         4.0378   10.3281   -4.2944 C.ar      1 <0>         0.1023
     28 C20         4.6503    9.6419   -5.3332 C.ar      1 <0>        -0.1232
     29 C21         4.5282    8.2692   -5.4209 C.ar      1 <0>        -0.1151
     30 O4          4.1634   11.6789   -4.2051 O.3       1 <0>        -0.2607
     31 C22         3.6606   12.2948   -3.1032 C.ar      1 <0>         0.0843
     32 C23         4.3611   12.2581   -1.9060 C.ar      1 <0>        -0.1315
     33 C24         3.8477   12.8850   -0.7872 C.ar      1 <0>        -0.1050
     34 C25         2.6369   13.5487   -0.8597 C.ar      1 <0>        -0.1186
     35 C26         1.9365   13.5864   -2.0513 C.ar      1 <0>        -0.1056
     36 C27         2.4484   12.9664   -3.1746 C.ar      1 <0>        -0.1237
     37 H1         -1.9050    1.6432   -4.4457 H         1 <0>         0.0580
     38 H2         -1.3906    1.7240   -6.1478 H         1 <0>         0.0575
     39 H3         -3.1222    1.6396   -5.7445 H         1 <0>         0.1064
     40 H4          0.0737    1.1546   -4.7918 H         1 <0>         0.1486
     41 H5          0.5096   -3.7879   -4.9153 H         1 <0>         0.1554
     42 H6         -1.3739   -4.6125   -4.5827 H         1 <0>         0.0621
     43 H7         -2.5786   -4.7573   -5.8850 H         1 <0>         0.1077
     44 H8         -0.8589   -4.5315   -6.2846 H         1 <0>         0.0620
     45 H9          4.6495   -2.1919   -3.5670 H         1 <0>         0.1963
     46 H10         1.0488    2.8396   -3.0644 H         1 <0>         0.0667
     47 H11         1.7831    1.5713   -2.0488 H         1 <0>         0.0849
     48 H12         2.6219    3.9472   -1.5922 H         1 <0>         0.1045
     49 H13         3.8948    2.7556   -1.9646 H         1 <0>         0.0762
     50 H14         4.1397    4.1631   -5.5035 H         1 <0>         0.0839
     51 H15         4.8741    2.8949   -4.4879 H         1 <0>         0.0830
     52 H16         3.3096    1.7875   -5.9563 H         1 <0>         0.0850
     53 H17         2.0352    2.9792   -5.5894 H         1 <0>         0.0665
     54 H18         3.7439    5.7451   -5.4282 H         1 <0>         0.4059
     55 H19         2.5921    7.7260   -2.7000 H         1 <0>         0.1646
     56 H20         2.8198   10.1710   -2.5391 H         1 <0>         0.1299
     57 H21         5.2266   10.1809   -6.0706 H         1 <0>         0.1365
     58 H22         5.0089    7.7346   -6.2268 H         1 <0>         0.1327
     59 H23         5.3068   11.7395   -1.8487 H         1 <0>         0.1300
     60 H24         4.3924   12.8564    0.1449 H         1 <0>         0.1305
     61 H25         2.2372   14.0382    0.0161 H         1 <0>         0.1287
     62 H26         0.9908   14.1052   -2.1052 H         1 <0>         0.1314
     63 H27         1.9036   13.0006   -4.1065 H         1 <0>         0.1317
@<TRIPOS>BOND
     1    1    2 1
     2    1   37 1
     3    1   38 1
     4    1   39 1
     5    2    3 1
     6    3    8 ar
     7    3    4 ar
     8    4    5 ar
     9    4   40 1
    10    5   14 ar
    11    5    6 ar
    12    6    7 ar
    13    6   11 ar
    14    7    8 ar
    15    7   41 1
    16    8    9 1
    17    9   10 1
    18   10   42 1
    19   10   43 1
    20   10   44 1
    21   11   12 ar
    22   12   13 ar
    23   12   45 1
    24   13   14 ar
    25   14   15 1
    26   15   20 1
    27   15   16 1
    28   16   17 1
    29   16   46 1
    30   16   47 1
    31   17   18 1
    32   17   48 1
    33   17   49 1
    34   18   19 1
    35   18   21 am
    36   19   20 1
    37   19   50 1
    38   19   51 1
    39   20   52 1
    40   20   53 1
    41   21   22 2
    42   21   23 am
    43   23   24 1
    44   23   54 1
    45   24   29 ar
    46   24   25 ar
    47   25   26 ar
    48   25   55 1
    49   26   27 ar
    50   26   56 1
    51   27   28 ar
    52   27   30 1
    53   28   29 ar
    54   28   57 1
    55   29   58 1
    56   30   31 1
    57   31   36 ar
    58   31   32 ar
    59   32   33 ar
    60   32   59 1
    61   33   34 ar
    62   33   60 1
    63   34   35 ar
    64   34   61 1
    65   35   36 ar
    66   35   62 1
    67   36   63 1
@<TRIPOS>MOLECULE
ZINC13474785
   64    68     0     0     0
SMALL
USER_CHARGES

@<TRIPOS>ATOM
      1 C1         -2.1246    1.3061   -5.4588 C.3       1 <0>         0.0152
      2 O1         -2.0667   -0.1208   -5.5091 O.3       1 <0>        -0.2837
      3 C2         -0.8829   -0.7027   -5.1790 C.ar      1 <0>         0.1374
      4 C3          0.1763    0.0798   -4.8158 C.ar      1 <0>        -0.1240
      5 C4          1.3954   -0.5183   -4.4752 C.ar      1 <0>        -0.1342
      6 C5          1.5241   -1.9290   -4.5090 C.ar      1 <0>         0.1852
      7 C6          0.4256   -2.7116   -4.8848 C.ar      1 <0>        -0.2356
      8 C7         -0.7646   -2.0992   -5.2096 C.ar      1 <0>         0.2285
      9 O2         -1.8337   -2.8563   -5.5691 O.3       1 <0>        -0.2724
     10 C8         -1.6504   -4.2735   -5.5810 C.3       1 <0>         0.0100
     11 N1          2.7036   -2.4771   -4.1769 N.ar      1 <0>        -0.5056
     12 C9          3.7148   -1.7180   -3.8281 C.ar      1 <0>         0.4113
     13 N2          3.6411   -0.3972   -3.7821 N.ar      1 <0>        -0.5127
     14 C10         2.5229    0.2460   -4.0910 C.ar      1 <0>         0.5628
     15 N3          2.4606    1.6231   -4.0392 N.pl3     1 <0>        -0.6689
     16 C11         1.9700    2.3048   -2.8332 C.3       1 <0>         0.1266
     17 C12         3.0387    3.2996   -2.3635 C.3       1 <0>         0.1144
     18 N4          3.4622    4.1113   -3.5131 N.am      1 <0>        -0.6269
     19 C13         3.9528    3.4297   -4.7192 C.3       1 <0>         0.0932
     20 C14         2.8894    2.4350   -5.1867 C.3       1 <0>         0.1273
     21 C15         3.4014    5.4568   -3.4625 C.2       1 <0>         0.7099
     22 O3          3.1198    6.0137   -2.4190 O.2       1 <0>        -0.5601
     23 N5          3.6527    6.1848   -4.5685 N.am      1 <0>        -0.6776
     24 C16         3.7821    7.5772   -4.4764 C.ar      1 <0>         0.1208
     25 C17         3.1691    8.2644   -3.4373 C.ar      1 <0>        -0.0966
     26 C18         3.2969    9.6363   -3.3471 C.ar      1 <0>        -0.1715
     27 C19         4.0378   10.3281   -4.2944 C.ar      1 <0>         0.1096
     28 C20         4.6503    9.6419   -5.3332 C.ar      1 <0>        -0.1237
     29 C21         4.5282    8.2692   -5.4209 C.ar      1 <0>        -0.1115
     30 O4          4.1634   11.6789   -4.2051 O.3       1 <0>        -0.2586
     31 C22         3.6606   12.2948   -3.1032 C.ar      1 <0>         0.0808
     32 C23         4.3611   12.2581   -1.9060 C.ar      1 <0>        -0.1313
     33 C24         3.8477   12.8850   -0.7872 C.ar      1 <0>        -0.1047
     34 C25         2.6369   13.5487   -0.8597 C.ar      1 <0>        -0.1164
     35 C26         1.9365   13.5864   -2.0513 C.ar      1 <0>        -0.1050
     36 C27         2.4484   12.9664   -3.1746 C.ar      1 <0>        -0.1228
     37 H1         -1.9050    1.6432   -4.4457 H         1 <0>         0.0675
     38 H2         -1.3906    1.7240   -6.1478 H         1 <0>         0.0671
     39 H3         -3.1222    1.6396   -5.7444 H         1 <0>         0.1209
     40 H4          0.0737    1.1546   -4.7918 H         1 <0>         0.1728
     41 H5          0.5096   -3.7879   -4.9153 H         1 <0>         0.1743
     42 H6         -1.3739   -4.6125   -4.5827 H         1 <0>         0.0718
     43 H7         -2.5786   -4.7573   -5.8849 H         1 <0>         0.1244
     44 H8         -0.8589   -4.5315   -6.2845 H         1 <0>         0.0717
     45 H9          4.6493   -2.1919   -3.5663 H         1 <0>         0.2445
     46 H10         1.0488    2.8396   -3.0644 H         1 <0>         0.0826
     47 H11         1.7831    1.5713   -2.0488 H         1 <0>         0.0906
     48 H12         2.6219    3.9472   -1.5922 H         1 <0>         0.1138
     49 H13         3.8948    2.7556   -1.9646 H         1 <0>         0.0788
     50 H14         4.1397    4.1631   -5.5035 H         1 <0>         0.0934
     51 H15         4.8741    2.8949   -4.4879 H         1 <0>         0.0853
     52 H16         3.3096    1.7875   -5.9563 H         1 <0>         0.0906
     53 H17         2.0352    2.9792   -5.5894 H         1 <0>         0.0833
     54 H18         3.7439    5.7451   -5.4282 H         1 <0>         0.4047
     55 H19         2.5921    7.7260   -2.7000 H         1 <0>         0.1631
     56 H20         2.8198   10.1710   -2.5391 H         1 <0>         0.1317
     57 H21         5.2266   10.1809   -6.0706 H         1 <0>         0.1385
     58 H22         5.0089    7.7346   -6.2268 H         1 <0>         0.1326
     59 H23         5.3068   11.7395   -1.8487 H         1 <0>         0.1299
     60 H24         4.3924   12.8564    0.1449 H         1 <0>         0.1313
     61 H25         2.2372   14.0382    0.0161 H         1 <0>         0.1300
     62 H26         0.9908   14.1052   -2.1052 H         1 <0>         0.1325
     63 H27         1.9036   13.0006   -4.1065 H         1 <0>         0.1321
     64 H28         2.8087   -3.4412   -4.1948 H         1 <0>         0.4514
@<TRIPOS>BOND
     1    1    2 1
     2    1   37 1
     3    1   38 1
     4    1   39 1
     5    2    3 1
     6    3    8 ar
     7    3    4 ar
     8    4    5 ar
     9    4   40 1
    10    5   14 ar
    11    5    6 ar
    12    6    7 ar
    13    6   11 ar
    14    7    8 ar
    15    7   41 1
    16    8    9 1
    17    9   10 1
    18   10   42 1
    19   10   43 1
    20   10   44 1
    21   11   12 ar
    22   11   64 1
    23   12   13 ar
    24   12   45 1
    25   13   14 ar
    26   14   15 1
    27   15   20 1
    28   15   16 1
    29   16   17 1
    30   16   46 1
    31   16   47 1
    32   17   18 1
    33   17   48 1
    34   17   49 1
    35   18   19 1
    36   18   21 am
    37   19   20 1
    38   19   50 1
    39   19   51 1
    40   20   52 1
    41   20   53 1
    42   21   22 2
    43   21   23 am
    44   23   24 1
    45   23   54 1
    46   24   29 ar
    47   24   25 ar
    48   25   26 ar
    49   25   55 1
    50   26   27 ar
    51   26   56 1
    52   27   28 ar
    53   27   30 1
    54   28   29 ar
    55   28   57 1
    56   29   58 1
    57   30   31 1
    58   31   36 ar
    59   31   32 ar
    60   32   33 ar
    61   32   59 1
    62   33   34 ar
    63   33   60 1
    64   34   35 ar
    65   34   61 1
    66   35   36 ar
    67   35   62 1
    68   36   63 1
@<TRIPOS>MOLECULE
ZINC24044436
   76    80     0     0     0
SMALL
USER_CHARGES
1-[5-tert-butyl-2-(p-tolyl)pyrazol-3-yl]-3-[4-(2-morpholinoethoxy)-1-naphthyl]urea
@<TRIPOS>ATOM
      1 C1          3.3307    9.5387   -0.3298 C.3       1 <0>        -0.1193
      2 C2          2.0898    8.6848   -0.2813 C.ar      1 <0>        -0.0892
      3 C3          0.9612    9.0673   -0.9828 C.ar      1 <0>        -0.0934
      4 C4         -0.1775    8.2868   -0.9403 C.ar      1 <0>        -0.1062
      5 C5         -0.1884    7.1174   -0.1919 C.ar      1 <0>         0.1564
      6 C6          0.9444    6.7392    0.5163 C.ar      1 <0>        -0.1500
      7 C7          2.0821    7.5207    0.4649 C.ar      1 <0>        -0.0924
      8 N1         -1.3424    6.3233   -0.1469 N.pl3     1 <0>        -0.3448
      9 C8         -1.3788    4.9645   -0.0790 C.2       1 <0>         0.3309
     10 C9         -2.6878    4.5925   -0.0483 C.2       1 <0>        -0.2629
     11 C10        -3.4651    5.7529   -0.1047 C.2       1 <0>         0.1115
     12 N2         -2.6643    6.7861   -0.1672 N.2       1 <0>        -0.2779
     13 C11        -4.9712    5.8052   -0.0954 C.3       1 <0>         0.0134
     14 C12        -5.4824    5.5257    1.3193 C.3       1 <0>        -0.1388
     15 C13        -5.4360    7.1933   -0.5406 C.3       1 <0>        -0.1390
     16 C14        -5.5242    4.7499   -1.0553 C.3       1 <0>        -0.1399
     17 N3         -0.2771    4.1104   -0.0417 N.am      1 <0>        -0.6731
     18 C15        -0.4603    2.7771    0.0314 C.2       1 <0>         0.7165
     19 O1         -1.5862    2.3190    0.0649 O.2       1 <0>        -0.5445
     20 N4          0.6045    1.9516    0.0675 N.am      1 <0>        -0.6819
     21 C16         0.4162    0.5655    0.0407 C.ar      1 <0>         0.1254
     22 C17        -0.6813    0.0024    0.6542 C.ar      1 <0>        -0.0743
     23 C18        -0.8835   -1.3742    0.6299 C.ar      1 <0>        -0.2061
     24 C19         0.0048   -2.2051    0.0082 C.ar      1 <0>         0.1395
     25 C20         1.1426   -1.6672   -0.6254 C.ar      1 <0>        -0.0565
     26 C21         1.3517   -0.2661   -0.6096 C.ar      1 <0>        -0.0251
     27 C22         2.4862    0.2686   -1.2409 C.ar      1 <0>        -0.1232
     28 C23         3.3687   -0.5639   -1.8588 C.ar      1 <0>        -0.0971
     29 C24         3.1636   -1.9422   -1.8742 C.ar      1 <0>        -0.1313
     30 C25         2.0750   -2.4951   -1.2724 C.ar      1 <0>        -0.0739
     31 O2         -0.2080   -3.5475    0.0012 O.3       1 <0>        -0.2916
     32 C26        -1.3823   -4.0216    0.6634 C.3       1 <0>         0.0605
     33 C27        -1.4510   -5.5459    0.5508 C.3       1 <0>         0.0539
     34 N5         -0.3065   -6.1409    1.2538 N.3       1 <0>        -0.5287
     35 C28        -0.1978   -7.5776    0.9617 C.3       1 <0>         0.0167
     36 C29         1.0390   -8.1436    1.6645 C.3       1 <0>         0.0615
     37 O3          0.9456   -7.8818    3.0674 O.3       1 <0>        -0.3849
     38 C30         0.8389   -6.4921    3.3879 C.3       1 <0>         0.0625
     39 C31        -0.3999   -5.9094    2.7026 C.3       1 <0>         0.0120
     40 H1          3.1476   10.4156   -0.9682 H         1 <0>         0.0687
     41 H2          4.1639    8.9515   -0.7434 H         1 <0>         0.0732
     42 H3          3.5863    9.8722    0.6868 H         1 <0>         0.0734
     43 H4          0.9703    9.9770   -1.5648 H         1 <0>         0.1335
     44 H5         -1.0587    8.5861   -1.4884 H         1 <0>         0.1355
     45 H6          0.9374    5.8324    1.1029 H         1 <0>         0.1262
     46 H7          2.9651    7.2245    1.0118 H         1 <0>         0.1343
     47 H8         -3.0598    3.5802    0.0092 H         1 <0>         0.1784
     48 H9         -6.5817    5.5639    1.3261 H         1 <0>         0.0656
     49 H10        -5.0849    6.2845    2.0094 H         1 <0>         0.0565
     50 H11        -5.1481    4.5278    1.6395 H         1 <0>         0.0614
     51 H12        -6.5353    7.2315   -0.5338 H         1 <0>         0.0604
     52 H13        -5.0684    7.3943   -1.5577 H         1 <0>         0.0568
     53 H14        -5.0385    7.9519    0.1496 H         1 <0>         0.0614
     54 H15        -6.6235    4.7882   -1.0484 H         1 <0>         0.0647
     55 H16        -5.1900    3.7520   -0.7351 H         1 <0>         0.0637
     56 H17        -5.1566    4.9509   -2.0724 H         1 <0>         0.0570
     57 H18         0.7414    4.5248   -0.0719 H         1 <0>         0.4294
     58 H19         1.6215    2.3677    0.1180 H         1 <0>         0.4280
     59 H20        -1.3959    0.6376    1.1566 H         1 <0>         0.1450
     60 H21        -1.7537   -1.7925    1.1139 H         1 <0>         0.1296
     61 H22         2.6580    1.3348   -1.2361 H         1 <0>         0.1222
     62 H23         4.2405   -0.1501   -2.3437 H         1 <0>         0.1243
     63 H24         3.8790   -2.5810   -2.3706 H         1 <0>         0.1250
     64 H25         1.9286   -3.5650   -1.2926 H         1 <0>         0.1353
     65 H26        -1.3465   -3.7335    1.7244 H         1 <0>         0.0659
     66 H27        -2.2726   -3.5787    0.1931 H         1 <0>         0.0716
     67 H28        -2.3868   -5.9052    1.0039 H         1 <0>         0.0605
     68 H29        -1.4216   -5.8370   -0.5096 H         1 <0>         0.0912
     69 H30        -1.0977   -8.0949    1.3258 H         1 <0>         0.0437
     70 H31        -0.1044   -7.7249   -0.1244 H         1 <0>         0.0891
     71 H32         1.0925   -9.2291    1.4949 H         1 <0>         0.1001
     72 H33         1.9424   -7.6643    1.2595 H         1 <0>         0.0618
     73 H34         0.7475   -6.3731    4.4776 H         1 <0>         0.0994
     74 H35         1.7375   -5.9645    3.0355 H         1 <0>         0.0616
     75 H36        -0.4553   -4.8284    2.8983 H         1 <0>         0.0869
     76 H37        -1.3031   -6.3997    3.0948 H         1 <0>         0.0443
@<TRIPOS>BOND
     1    1    2 1
     2    1   40 1
     3    1   41 1
     4    1   42 1
     5    2    7 ar
     6    2    3 ar
     7    3    4 ar
     8    3   43 1
     9    4    5 ar
    10    4   44 1
    11    5    6 ar
    12    5    8 1
    13    6    7 ar
    14    6   45 1
    15    7   46 1
    16    8   12 1
    17    8    9 1
    18    9   10 2
    19    9   17 1
    20   10   11 1
    21   10   47 1
    22   11   12 2
    23   11   13 1
    24   13   14 1
    25   13   15 1
    26   13   16 1
    27   14   48 1
    28   14   49 1
    29   14   50 1
    30   15   51 1
    31   15   52 1
    32   15   53 1
    33   16   54 1
    34   16   55 1
    35   16   56 1
    36   17   18 am
    37   17   57 1
    38   18   19 2
    39   18   20 am
    40   20   21 1
    41   20   58 1
    42   21   26 ar
    43   21   22 ar
    44   22   23 ar
    45   22   59 1
    46   23   24 ar
    47   23   60 1
    48   24   25 ar
    49   24   31 1
    50   25   30 ar
    51   25   26 ar
    52   26   27 ar
    53   27   28 ar
    54   27   61 1
    55   28   29 ar
    56   28   62 1
    57   29   30 ar
    58   29   63 1
    59   30   64 1
    60   31   32 1
    61   32   33 1
    62   32   65 1
    63   32   66 1
    64   33   34 1
    65   33   67 1
    66   33   68 1
    67   34   39 1
    68   34   35 1
    69   35   36 1
    70   35   69 1
    71   35   70 1
    72   36   37 1
    73   36   71 1
    74   36   72 1
    75   37   38 1
    76   38   39 1
    77   38   73 1
    78   38   74 1
    79   39   75 1
    80   39   76 1
@<TRIPOS>MOLECULE
ZINC00008741
   43    45     0     0     0
SMALL
USER_CHARGES

@<TRIPOS>ATOM
      1 C1          1.2321    6.1407    0.0215 C.3       1 <0>         0.0224
      2 O1         -0.0318    5.4740    0.0301 O.3       1 <0>        -0.3016
      3 C2         -0.0127    4.1149    0.0232 C.ar      1 <0>         0.1132
      4 C3          1.1827    3.4576    0.0087 C.ar      1 <0>        -0.1385
      5 C4          1.2066    2.0527    0.0016 C.ar      1 <0>         0.0317
      6 C5         -0.0161    1.3350    0.0094 C.ar      1 <0>         0.1565
      7 C6         -1.2309    2.0396    0.0189 C.ar      1 <0>        -0.1859
      8 C7         -1.2227    3.4044    0.0315 C.ar      1 <0>         0.1580
      9 O2         -2.3999    4.0829    0.0463 O.3       1 <0>        -0.2984
     10 C8         -3.5978    3.3038    0.0541 C.3       1 <0>         0.0213
     11 N1          0.0021   -0.0041    0.0020 N.ar      1 <0>        -0.5092
     12 C9          1.1576   -0.6415   -0.0124 C.ar      1 <0>         0.3763
     13 C10         2.3666    0.0737   -0.0200 C.ar      1 <0>         0.0339
     14 N2          2.3671    1.3855   -0.0134 N.ar      1 <0>        -0.3913
     15 N3          1.1784   -2.0293   -0.0196 N.pl3     1 <0>        -0.7027
     16 C11         2.4579   -2.7426   -0.0356 C.3       1 <0>         0.1474
     17 C12         2.9507   -2.8739   -1.4781 C.3       1 <0>        -0.1361
     18 C13         1.9218   -3.6535   -2.2995 C.3       1 <0>        -0.1509
     19 C14         1.7366   -5.0468   -1.6951 C.3       1 <0>         0.1040
     20 C15         1.2439   -4.9155   -0.2525 C.3       1 <0>        -0.1160
     21 C16         2.2727   -4.1359    0.5689 C.3       1 <0>        -0.1234
     22 O3          0.7757   -5.7749   -2.4623 O.3       1 <0>        -0.5681
     23 H1          1.0741    7.2192    0.0283 H         1 <0>         0.1049
     24 H2          1.8015    5.8513    0.9048 H         1 <0>         0.0587
     25 H3          1.7848    5.8601   -0.8751 H         1 <0>         0.0586
     26 H4          2.1076    4.0153    0.0032 H         1 <0>         0.1508
     27 H5         -2.1683    1.5033    0.0205 H         1 <0>         0.1513
     28 H6         -4.4626    3.9672    0.0659 H         1 <0>         0.1061
     29 H7         -3.6309    2.6794   -0.8387 H         1 <0>         0.0604
     30 H8         -3.6135    2.6706    0.9412 H         1 <0>         0.0604
     31 H9          3.3046   -0.4615   -0.0318 H         1 <0>         0.1690
     32 H10         0.3458   -2.5269   -0.0140 H         1 <0>         0.4079
     33 H11         3.1909   -2.1872    0.5496 H         1 <0>         0.0899
     34 H12         3.0826   -1.8813   -1.9087 H         1 <0>         0.0712
     35 H13         3.9026   -3.4046   -1.4900 H         1 <0>         0.0796
     36 H14         2.2729   -3.7470   -3.3272 H         1 <0>         0.0663
     37 H15         0.9699   -3.1228   -2.2876 H         1 <0>         0.0730
     38 H16         2.6886   -5.5775   -1.7070 H         1 <0>         0.0570
     39 H17         1.1119   -5.9081    0.1781 H         1 <0>         0.0764
     40 H18         0.2919   -4.3848   -0.2407 H         1 <0>         0.0693
     41 H19         3.2247   -4.6666    0.5570 H         1 <0>         0.0863
     42 H20         1.9216   -4.0424    1.5965 H         1 <0>         0.0805
     43 H21         1.0230   -5.8965   -3.3891 H         1 <0>         0.3796
@<TRIPOS>BOND
     1    1    2 1
     2    1   23 1
     3    1   24 1
     4    1   25 1
     5    2    3 1
     6    3    8 ar
     7    3    4 ar
     8    4    5 ar
     9    4   26 1
    10    5   14 ar
    11    5    6 ar
    12    6    7 ar
    13    6   11 ar
    14    7    8 ar
    15    7   27 1
    16    8    9 1
    17    9   10 1
    18   10   28 1
    19   10   29 1
    20   10   30 1
    21   11   12 ar
    22   12   13 ar
    23   12   15 1
    24   13   14 ar
    25   13   31 1
    26   15   16 1
    27   15   32 1
    28   16   21 1
    29   16   17 1
    30   16   33 1
    31   17   18 1
    32   17   34 1
    33   17   35 1
    34   18   19 1
    35   18   36 1
    36   18   37 1
    37   19   20 1
    38   19   22 1
    39   19   38 1
    40   20   21 1
    41   20   39 1
    42   20   40 1
    43   21   41 1
    44   21   42 1
    45   22   43 1
@<TRIPOS>MOLECULE
ZINC13812765
   54    58     0     0     0
SMALL
USER_CHARGES
6-(2,6-dichlorophenyl)-8-methyl-2-[(4-morpholinophenyl)amino]pyrido[6,5-d]pyrimidin-7-one
@<TRIPOS>ATOM
      1 C1          0.0687    1.0901    0.1116 C.3       1 <0>         0.0701
      2 N1         -0.4256    1.5832    1.3995 N.am      1 <0>        -0.5063
      3 C2         -0.5381    2.9341    1.6116 C.ar      1 <0>         0.4672
      4 C3         -1.0181    3.4257    2.8449 C.ar      1 <0>        -0.2783
      5 C4         -1.3766    2.5289    3.8770 C.2       1 <0>         0.0316
      6 C5         -1.2558    1.1827    3.6582 C.2       1 <0>        -0.1650
      7 C6         -0.7600    0.7060    2.3653 C.2       1 <0>         0.5578
      8 O1         -0.6498   -0.4900    2.1622 O.2       1 <0>        -0.5029
      9 C7         -1.6228    0.2170    4.7202 C.ar      1 <0>        -0.0099
     10 C8         -0.6646   -0.2107    5.6401 C.ar      1 <0>        -0.0065
     11 C9         -1.0148   -1.1067    6.6311 C.ar      1 <0>        -0.1065
     12 C10        -2.3092   -1.5888    6.7060 C.ar      1 <0>        -0.0874
     13 C11        -3.2624   -1.1733    5.7937 C.ar      1 <0>        -0.1064
     14 C12        -2.9268   -0.2732    4.8013 C.ar      1 <0>        -0.0065
     15 Cl1        -4.1243    0.2466    3.6571 Cl        1 <0>        -0.0502
     16 Cl2         0.9621    0.3876    5.5434 Cl        1 <0>        -0.0503
     17 C13        -1.1231    4.8139    3.0190 C.ar      1 <0>         0.2640
     18 N2         -0.7738    5.6040    2.0212 N.ar      1 <0>        -0.5685
     19 C14        -0.3309    5.1056    0.8720 C.ar      1 <0>         0.6086
     20 N3         -0.2147    3.8034    0.6608 N.ar      1 <0>        -0.5957
     21 N4          0.0216    5.9777   -0.1395 N.pl3     1 <0>        -0.6241
     22 C15        -0.1990    7.3525    0.0126 C.ar      1 <0>         0.1313
     23 C16        -1.3055    7.8041    0.7199 C.ar      1 <0>        -0.0798
     24 C17        -1.5204    9.1593    0.8740 C.ar      1 <0>        -0.1488
     25 C18        -0.6355   10.0708    0.3129 C.ar      1 <0>         0.0971
     26 C19         0.4681    9.6192   -0.3990 C.ar      1 <0>        -0.1172
     27 C20         0.6855    8.2640   -0.5489 C.ar      1 <0>        -0.1155
     28 N5         -0.8562   11.4443    0.4644 N.pl3     1 <0>        -0.4872
     29 C21         0.3065   12.0999    1.0805 C.3       1 <0>         0.0198
     30 C22         0.0470   13.6060    1.1727 C.3       1 <0>         0.0611
     31 O2         -1.1567   13.8329    1.9108 O.3       1 <0>        -0.3827
     32 C23        -2.3093   13.2091    1.3385 C.3       1 <0>         0.0615
     33 C24        -2.0737   11.6990    1.2481 C.3       1 <0>         0.0123
     34 H1          0.0953    0.0006    0.1257 H         1 <0>         0.1006
     35 H2          1.0730    1.4758   -0.0638 H         1 <0>         0.0800
     36 H3         -0.5943    1.4272   -0.6852 H         1 <0>         0.0803
     37 H4         -1.7407    2.8999    4.8237 H         1 <0>         0.1502
     38 H5         -0.2753   -1.4351    7.3464 H         1 <0>         0.1437
     39 H6         -2.5767   -2.2930    7.4799 H         1 <0>         0.1454
     40 H7         -4.2711   -1.5537    5.8574 H         1 <0>         0.1437
     41 H8         -1.4818    5.2273    3.9501 H         1 <0>         0.1873
     42 H9          0.4219    5.6381   -0.9552 H         1 <0>         0.4261
     43 H10        -1.9958    7.0952    1.1528 H         1 <0>         0.1359
     44 H11        -2.3786    9.5104    1.4276 H         1 <0>         0.1305
     45 H12         1.1560   10.3280   -0.8357 H         1 <0>         0.1300
     46 H13         1.5438    7.9128   -1.1025 H         1 <0>         0.1287
     47 H14         0.4646   11.6960    2.0805 H         1 <0>         0.0544
     48 H15         1.1916   11.9198    0.4704 H         1 <0>         0.0931
     49 H16        -0.0578   14.0192    0.1695 H         1 <0>         0.0625
     50 H17         0.8818   14.0894    1.6801 H         1 <0>         0.1034
     51 H18        -2.4827   13.6108    0.3402 H         1 <0>         0.0622
     52 H19        -3.1791   13.4048    1.9657 H         1 <0>         0.1035
     53 H20        -2.9261   11.2262    0.7602 H         1 <0>         0.0942
     54 H21        -1.9540   11.2880    2.2505 H         1 <0>         0.0573
@<TRIPOS>BOND
     1    1    2 1
     2    1   34 1
     3    1   35 1
     4    1   36 1
     5    2    7 am
     6    2    3 1
     7    3   20 ar
     8    3    4 ar
     9    4    5 1
    10    4   17 ar
    11    5    6 2
    12    5   37 1
    13    6    7 1
    14    6    9 1
    15    7    8 2
    16    9   14 ar
    17    9   10 ar
    18   10   11 ar
    19   10   16 1
    20   11   12 ar
    21   11   38 1
    22   12   13 ar
    23   12   39 1
    24   13   14 ar
    25   13   40 1
    26   14   15 1
    27   17   18 ar
    28   17   41 1
    29   18   19 ar
    30   19   20 ar
    31   19   21 1
    32   21   22 1
    33   21   42 1
    34   22   27 ar
    35   22   23 ar
    36   23   24 ar
    37   23   43 1
    38   24   25 ar
    39   24   44 1
    40   25   26 ar
    41   25   28 1
    42   26   27 ar
    43   26   45 1
    44   27   46 1
    45   28   33 1
    46   28   29 1
    47   29   30 1
    48   29   47 1
    49   29   48 1
    50   30   31 1
    51   30   49 1
    52   30   50 1
    53   31   32 1
    54   32   33 1
    55   32   51 1
    56   32   52 1
    57   33   53 1
    58   33   54 1
@<TRIPOS>MOLECULE
ZINC13677843
   40    43     0     0     0
SMALL
USER_CHARGES

@<TRIPOS>ATOM
      1 C1         -0.4972    1.2152   -0.2273 C.3       1 <0>         0.0236
      2 O1          0.2492    0.0508    0.1321 O.3       1 <0>        -0.3016
      3 C2          1.0792   -0.4664   -0.8127 C.ar      1 <0>         0.1188
      4 C3          1.1765    0.1382   -2.0569 C.ar      1 <0>        -0.1587
      5 C4          2.0179   -0.3853   -3.0165 C.ar      1 <0>        -0.0646
      6 C5          2.7744   -1.5219   -2.7446 C.ar      1 <0>        -0.0211
      7 C6          2.6764   -2.1301   -1.4915 C.ar      1 <0>        -0.1369
      8 C7          1.8363   -1.6002   -0.5298 C.ar      1 <0>         0.0987
      9 O2          1.7453   -2.1901    0.6922 O.3       1 <0>        -0.3036
     10 C8          2.5502   -3.3498    0.9142 C.3       1 <0>         0.0239
     11 C9          3.5874   -1.8732   -3.9364 C.2       1 <0>         0.1308
     12 C10         3.3328   -0.9438   -4.9607 C.2       1 <0>        -0.3055
     13 C11         4.0858   -1.2858   -6.0373 C.2       1 <0>         0.3755
     14 N1          4.7955   -2.3970   -5.7063 N.pl3     1 <0>        -0.4880
     15 H1          5.4199   -2.8666   -6.2811 H         1 <0>         0.4434
     16 N2          4.4675   -2.7446   -4.3901 N.2       1 <0>        -0.2659
     17 N3          4.1239   -0.6194   -7.2594 N.pl3     1 <0>        -0.6554
     18 C12         4.8518   -1.1551   -8.3248 C.ar      1 <0>         0.1980
     19 C13         4.9430   -2.5328   -8.4827 C.ar      1 <0>        -0.1958
     20 C14         5.6626   -3.0602   -9.5366 C.ar      1 <0>        -0.0481
     21 C15         6.2933   -2.2197  -10.4353 C.ar      1 <0>        -0.1801
     22 C16         6.2052   -0.8460  -10.2819 C.ar      1 <0>         0.1402
     23 C17         5.4809   -0.3118   -9.2312 C.ar      1 <0>        -0.1933
     24 F1          6.8226   -0.0273  -11.1616 F         1 <0>        -0.1319
     25 C18         2.3257    0.0459   -4.4300 C.3       1 <0>         0.0158
     26 H2          0.1893    2.0210   -0.4870 H         1 <0>         0.0572
     27 H3         -1.1328    0.9893   -1.0835 H         1 <0>         0.0572
     28 H4         -1.1174    1.5233    0.6144 H         1 <0>         0.1025
     29 H5          0.5923    1.0200   -2.2751 H         1 <0>         0.1425
     30 H6          3.2595   -3.0123   -1.2723 H         1 <0>         0.1407
     31 H7          2.2797   -4.1229    0.1950 H         1 <0>         0.0564
     32 H8          3.6019   -3.0912    0.7915 H         1 <0>         0.0565
     33 H9          2.3827   -3.7200    1.9257 H         1 <0>         0.1025
     34 H10         3.6450    0.2167   -7.3711 H         1 <0>         0.4302
     35 H11         4.4515   -3.1906   -7.7812 H         1 <0>         0.1322
     36 H12         5.7332   -4.1310   -9.6589 H         1 <0>         0.1413
     37 H13         6.8560   -2.6351  -11.2582 H         1 <0>         0.1408
     38 H14         5.4082    0.7593   -9.1138 H         1 <0>         0.1425
     39 H15         1.4198    0.0201   -5.0355 H         1 <0>         0.0899
     40 H16         2.7500    1.0499   -4.4317 H         1 <0>         0.0894
@<TRIPOS>BOND
     1    1    2 1
     2    1   26 1
     3    1   27 1
     4    1   28 1
     5    2    3 1
     6    3    8 ar
     7    3    4 ar
     8    4    5 ar
     9    4   29 1
    10    5   25 1
    11    5    6 ar
    12    6    7 ar
    13    6   11 1
    14    7    8 ar
    15    7   30 1
    16    8    9 1
    17    9   10 1
    18   10   31 1
    19   10   32 1
    20   10   33 1
    21   11   16 2
    22   11   12 1
    23   12   13 2
    24   12   25 1
    25   13   14 1
    26   13   17 1
    27   14   15 1
    28   14   16 1
    29   17   18 1
    30   17   34 1
    31   18   23 ar
    32   18   19 ar
    33   19   20 ar
    34   19   35 1
    35   20   21 ar
    36   20   36 1
    37   21   22 ar
    38   21   37 1
    39   22   23 ar
    40   22   24 1
    41   23   38 1
    42   25   39 1
    43   25   40 1
@<TRIPOS>MOLECULE
ZINC03966243
   84    88     0     0     0
SMALL
USER_CHARGES
N-(4-isopropoxyphenyl)-4-[6-methoxy-7-[3-(1-piperidyl)propoxy]quinazolin-4-yl]-piperazine-1-carboxamide
@<TRIPOS>ATOM
      1 C1          6.7701    4.5264   -1.2575 C.3       1 <0>        -0.1499
      2 C2          6.4967    3.0958   -0.7889 C.3       1 <0>         0.0769
      3 C3          7.4744    2.7298    0.3295 C.3       1 <0>        -0.1825
      4 O1          5.1571    3.0025   -0.3001 O.3       1 <0>        -0.3102
      5 C4          4.5717    1.7757   -0.3338 C.ar      1 <0>         0.1230
      6 C5          5.3083    0.6665   -0.7228 C.ar      1 <0>        -0.1923
      7 C6          4.7144   -0.5798   -0.7568 C.ar      1 <0>        -0.0743
      8 C7          3.3799   -0.7224   -0.4016 C.ar      1 <0>         0.1159
      9 C8          2.6432    0.3881   -0.0124 C.ar      1 <0>        -0.1027
     10 C9          3.2383    1.6338    0.0213 C.ar      1 <0>        -0.1355
     11 N1          2.7765   -1.9869   -0.4364 N.am      1 <0>        -0.6831
     12 C10         3.4836   -3.0808   -0.0903 C.2       1 <0>         0.7095
     13 O2          4.6669   -2.9820    0.1717 O.2       1 <0>        -0.5659
     14 N2          2.8793   -4.2842   -0.0346 N.am      1 <0>        -0.6302
     15 C11         1.4784   -4.4454   -0.4527 C.3       1 <0>         0.1163
     16 C12         1.4049   -5.6100   -1.4530 C.3       1 <0>         0.0464
     17 N3          2.0146   -6.8039   -0.8522 N.pl3     1 <0>        -0.4805
     18 C13         3.4424   -6.5929   -0.5788 C.3       1 <0>         0.0482
     19 C14         3.6012   -5.4698    0.4515 C.3       1 <0>         0.1328
     20 C15         1.8226   -7.9122   -1.6510 C.ar      1 <0>         0.3962
     21 C16         0.6195   -8.6545   -1.5866 C.ar      1 <0>        -0.1386
     22 C17        -0.4268   -8.2967   -0.7272 C.ar      1 <0>        -0.1287
     23 C18        -1.5707   -9.0425   -0.7073 C.ar      1 <0>         0.1093
     24 C19        -1.7117  -10.1606   -1.5416 C.ar      1 <0>         0.1588
     25 C20        -0.6998  -10.5302   -2.3993 C.ar      1 <0>        -0.1794
     26 C21         0.4818   -9.7794   -2.4366 C.ar      1 <0>         0.1794
     27 N4          1.4973  -10.0975   -3.2547 N.ar      1 <0>        -0.5194
     28 C22         2.5920   -9.3751   -3.2679 C.ar      1 <0>         0.3256
     29 N5          2.7631   -8.3137   -2.4959 N.ar      1 <0>        -0.5577
     30 O3         -2.8592  -10.8868   -1.5038 O.3       1 <0>        -0.2941
     31 C23        -2.9427  -12.0141   -2.3780 C.3       1 <0>         0.0564
     32 C24        -4.2971  -12.7020   -2.1952 C.3       1 <0>        -0.1506
     33 C25        -4.3865  -13.9090   -3.1312 C.3       1 <0>        -0.0020
     34 C26        -5.8040  -15.1525   -1.6130 C.3       1 <0>        -0.0079
     35 C27        -7.2186  -15.7022   -1.4158 C.3       1 <0>        -0.1471
     36 C28        -7.5007  -16.7656   -2.4807 C.3       1 <0>        -0.1398
     37 C29        -7.3247  -16.1452   -3.8695 C.3       1 <0>        -0.1477
     38 C30        -5.9070  -15.5827   -3.9956 C.3       1 <0>        -0.0015
     39 O4         -2.5839   -8.6973    0.1313 O.3       1 <0>        -0.3038
     40 C31        -2.3802   -7.5484    0.9564 C.3       1 <0>         0.0216
     41 H1          6.6397    5.2137   -0.4216 H         1 <0>         0.0680
     42 H2          7.7918    4.5976   -1.6304 H         1 <0>         0.0781
     43 H3          6.0735    4.7871   -2.0543 H         1 <0>         0.0652
     44 H4          6.6271    2.4085   -1.6248 H         1 <0>         0.0735
     45 H5          7.2796    1.7107    0.6634 H         1 <0>         0.0633
     46 H6          8.4962    2.8010   -0.0433 H         1 <0>         0.0733
     47 H7          7.3440    3.4171    1.1654 H         1 <0>         0.0686
     48 H8          6.3476    0.7769   -0.9947 H         1 <0>         0.1332
     49 H9          5.2879   -1.4432   -1.0601 H         1 <0>         0.1408
     50 H10         1.6050    0.2778    0.2637 H         1 <0>         0.1308
     51 H11         2.6653    2.4978    0.3240 H         1 <0>         0.1354
     52 H12         1.8499   -2.0748   -0.7096 H         1 <0>         0.4030
     53 H13         0.8598   -4.6663    0.4171 H         1 <0>         0.0856
     54 H14         1.1308   -3.5290   -0.9296 H         1 <0>         0.0889
     55 H15         1.9431   -5.3458   -2.3633 H         1 <0>         0.0616
     56 H16         0.3620   -5.8162   -1.6938 H         1 <0>         0.0941
     57 H17         3.9521   -6.3150   -1.5013 H         1 <0>         0.0689
     58 H18         3.8770   -7.5117   -0.1852 H         1 <0>         0.0954
     59 H19         4.6578   -5.2309    0.5728 H         1 <0>         0.1082
     60 H20         3.1850   -5.7851    1.4083 H         1 <0>         0.0782
     61 H21        -0.3280   -7.4373   -0.0806 H         1 <0>         0.1573
     62 H22        -0.8167  -11.3925   -3.0389 H         1 <0>         0.1519
     63 H23         3.3895   -9.6593   -3.9384 H         1 <0>         0.1992
     64 H24        -2.8407  -11.6812   -3.4109 H         1 <0>         0.0778
     65 H25        -2.1435  -12.7168   -2.1421 H         1 <0>         0.0777
     66 H26        -4.3991  -13.0349   -1.1623 H         1 <0>         0.1002
     67 H27        -5.0963  -11.9993   -2.4311 H         1 <0>         0.1003
     68 H28        -4.2845  -13.5761   -4.1641 H         1 <0>         0.1340
     69 H29        -3.5873  -14.6117   -2.8953 H         1 <0>         0.1355
     70 H30        -5.0816  -15.9614   -1.5040 H         1 <0>         0.1310
     71 H31        -5.6051  -14.3849   -0.8651 H         1 <0>         0.1299
     72 H32        -7.9407  -14.8913   -1.5110 H         1 <0>         0.0877
     73 H33        -7.3012  -16.1486   -0.4248 H         1 <0>         0.1122
     74 H34        -8.5225  -17.1289   -2.3709 H         1 <0>         0.0942
     75 H35        -6.8042  -17.5956   -2.3615 H         1 <0>         0.0818
     76 H36        -8.0484  -15.3413   -4.0033 H         1 <0>         0.0877
     77 H37        -7.4825  -16.9083   -4.6316 H         1 <0>         0.1125
     78 H38        -5.7830  -15.1275   -4.9782 H         1 <0>         0.1289
     79 H39        -5.1842  -16.3896   -3.8752 H         1 <0>         0.1307
     80 H40        -3.2625   -7.3845    1.5752 H         1 <0>         0.1075
     81 H41        -1.5126   -7.7098    1.5962 H         1 <0>         0.0622
     82 H42        -2.2103   -6.6748    0.3272 H         1 <0>         0.0599
     83 N6         -5.7075  -14.5479   -2.9586 N.4       1 <0>        -0.3926
     84 H43        -6.4386  -13.8336   -3.0559 H         1 <0>         0.4277
@<TRIPOS>BOND
     1    1    2 1
     2    1   41 1
     3    1   42 1
     4    1   43 1
     5    2    3 1
     6    2    4 1
     7    2   44 1
     8    3   45 1
     9    3   46 1
    10    3   47 1
    11    4    5 1
    12    5   10 ar
    13    5    6 ar
    14    6    7 ar
    15    6   48 1
    16    7    8 ar
    17    7   49 1
    18    8    9 ar
    19    8   11 1
    20    9   10 ar
    21    9   50 1
    22   10   51 1
    23   11   12 am
    24   11   52 1
    25   12   13 2
    26   12   14 am
    27   14   19 1
    28   14   15 1
    29   15   16 1
    30   15   53 1
    31   15   54 1
    32   16   17 1
    33   16   55 1
    34   16   56 1
    35   17   18 1
    36   17   20 1
    37   18   19 1
    38   18   57 1
    39   18   58 1
    40   19   59 1
    41   19   60 1
    42   20   29 ar
    43   20   21 ar
    44   21   26 ar
    45   21   22 ar
    46   22   23 ar
    47   22   61 1
    48   23   24 ar
    49   23   39 1
    50   24   25 ar
    51   24   30 1
    52   25   26 ar
    53   25   62 1
    54   26   27 ar
    55   27   28 ar
    56   28   29 ar
    57   28   63 1
    58   30   31 1
    59   31   32 1
    60   31   64 1
    61   31   65 1
    62   32   33 1
    63   32   66 1
    64   32   67 1
    65   33   68 1
    66   33   69 1
    67   33   83 1
    68   34   35 1
    69   34   70 1
    70   34   71 1
    71   34   83 1
    72   35   36 1
    73   35   72 1
    74   35   73 1
    75   36   37 1
    76   36   74 1
    77   36   75 1
    78   37   38 1
    79   37   76 1
    80   37   77 1
    81   38   78 1
    82   38   79 1
    83   38   83 1
    84   39   40 1
    85   40   80 1
    86   40   81 1
    87   40   82 1
    88   83   84 1
@<TRIPOS>MOLECULE
ZINC01493878
   48    50     0     0     0
SMALL
USER_CHARGES

@<TRIPOS>ATOM
      1 C1         -1.0955   -5.0083   -6.9234 C.3       1 <0>         0.0847
      2 N1         -1.5520   -4.3038   -5.7228 N.am      1 <0>        -0.7137
      3 C2         -1.8827   -5.0004   -4.6175 C.2       1 <0>         0.5696
      4 O1         -1.8023   -6.2129   -4.6168 O.2       1 <0>        -0.5284
      5 C3         -2.3445   -4.2878   -3.4031 C.ar      1 <0>         0.1129
      6 C4         -2.6788   -5.0128   -2.2640 C.ar      1 <0>        -0.1883
      7 C5         -3.1110   -4.3279   -1.1310 C.ar      1 <0>         0.1595
      8 C6         -3.1903   -2.9389   -1.1877 C.ar      1 <0>        -0.1766
      9 C7         -2.8404   -2.2885   -2.3571 C.ar      1 <0>         0.1349
     10 N2         -2.4302   -2.9626   -3.4105 N.ar      1 <0>        -0.4815
     11 O2         -3.4471   -4.9979    0.0005 O.3       1 <0>        -0.2437
     12 C8         -3.4462   -6.3570   -0.0383 C.ar      1 <0>         0.0568
     13 C9         -2.2447   -7.0505   -0.0178 C.ar      1 <0>        -0.1074
     14 C10        -2.2431   -8.4307   -0.0577 C.ar      1 <0>        -0.1009
     15 C11        -3.4442   -9.1246   -0.1179 C.ar      1 <0>         0.1671
     16 C12        -4.6464   -8.4301   -0.1379 C.ar      1 <0>        -0.1272
     17 C13        -4.6469   -7.0500   -0.0928 C.ar      1 <0>        -0.0940
     18 N3         -3.4432  -10.5252   -0.1588 N.am      1 <0>        -0.6776
     19 C14        -2.5108  -11.2187    0.5239 C.2       1 <0>         0.7077
     20 O3         -1.6217  -10.6297    1.1080 O.2       1 <0>        -0.5493
     21 N4         -2.5639  -12.5649    0.5593 N.am      1 <0>        -0.6795
     22 C15        -1.6655  -13.2800    1.3600 C.ar      1 <0>         0.1700
     23 C16        -1.2529  -12.7583    2.5792 C.ar      1 <0>        -0.0742
     24 C17        -0.3670  -13.4659    3.3674 C.ar      1 <0>        -0.0871
     25 C18         0.1097  -14.6941    2.9434 C.ar      1 <0>        -0.0077
     26 C19        -0.2993  -15.2159    1.7290 C.ar      1 <0>        -0.1564
     27 C20        -1.1898  -14.5147    0.9394 C.ar      1 <0>        -0.0879
     28 C21         0.2222  -16.5533    1.2702 C.3       1 <0>         0.5112
     29 F1         -0.3299  -16.8663    0.0234 F         1 <0>        -0.1743
     30 F2          1.6160  -16.4983    1.1626 F         1 <0>        -0.1671
     31 F3         -0.1354  -17.5367    2.1987 F         1 <0>        -0.1677
     32 Cl1         1.2234  -15.5812    3.9366 Cl        1 <0>        -0.0394
     33 H1         -0.8760   -4.2843   -7.7081 H         1 <0>         0.0803
     34 H2         -0.1948   -5.5764   -6.6909 H         1 <0>         0.0631
     35 H3         -1.8761   -5.6883   -7.2645 H         1 <0>         0.0629
     36 H4         -1.6162   -3.3359   -5.7233 H         1 <0>         0.4141
     37 H5         -2.6047   -6.0902   -2.2584 H         1 <0>         0.1546
     38 H6         -3.5217   -2.3755   -0.3280 H         1 <0>         0.1523
     39 H7         -2.9005   -1.2112   -2.4052 H         1 <0>         0.1747
     40 H8         -1.3104   -6.5106    0.0290 H         1 <0>         0.1364
     41 H9         -1.3078   -8.9704   -0.0424 H         1 <0>         0.1514
     42 H10        -5.5809   -8.9693   -0.1851 H         1 <0>         0.1386
     43 H11        -5.5820   -6.5098   -0.1039 H         1 <0>         0.1400
     44 H12        -4.1137  -10.9957   -0.6785 H         1 <0>         0.4131
     45 H13        -3.2246  -13.0383    0.0299 H         1 <0>         0.4146
     46 H14        -1.6244  -11.7997    2.9103 H         1 <0>         0.1546
     47 H15        -0.0456  -13.0604    4.3154 H         1 <0>         0.1524
     48 H16        -1.5123  -14.9245   -0.0064 H         1 <0>         0.1525
@<TRIPOS>BOND
     1    1    2 1
     2    1   33 1
     3    1   34 1
     4    1   35 1
     5    2    3 am
     6    2   36 1
     7    3    4 2
     8    3    5 1
     9    5   10 ar
    10    5    6 ar
    11    6    7 ar
    12    6   37 1
    13    7    8 ar
    14    7   11 1
    15    8    9 ar
    16    8   38 1
    17    9   10 ar
    18    9   39 1
    19   11   12 1
    20   12   17 ar
    21   12   13 ar
    22   13   14 ar
    23   13   40 1
    24   14   15 ar
    25   14   41 1
    26   15   16 ar
    27   15   18 1
    28   16   17 ar
    29   16   42 1
    30   17   43 1
    31   18   19 am
    32   18   44 1
    33   19   20 2
    34   19   21 am
    35   21   22 1
    36   21   45 1
    37   22   27 ar
    38   22   23 ar
    39   23   24 ar
    40   23   46 1
    41   24   25 ar
    42   24   47 1
    43   25   26 ar
    44   25   32 1
    45   26   27 ar
    46   26   28 1
    47   27   48 1
    48   28   29 1
    49   28   30 1
    50   28   31 1
@<TRIPOS>MOLECULE
ZINC21982951
   60    63     0     0     0
SMALL
USER_CHARGES

@<TRIPOS>ATOM
      1 C1         -2.0700    1.6928    0.2333 C.3       1 <0>        -0.1170
      2 C2         -1.6482    0.2604    0.0301 C.ar      1 <0>        -0.0813
      3 C3         -1.8479   -0.3525   -1.1919 C.ar      1 <0>        -0.1034
      4 C4         -1.4615   -1.6665   -1.3798 C.ar      1 <0>        -0.0990
      5 C5         -0.8738   -2.3725   -0.3459 C.ar      1 <0>        -0.1046
      6 C6         -0.6714   -1.7660    0.8791 C.ar      1 <0>        -0.0220
      7 C7         -1.0534   -0.4428    1.0688 C.ar      1 <0>         0.1347
      8 N1         -0.8441    0.1769    2.3055 N.am      1 <0>        -0.6659
      9 C8         -1.2819   -0.4110    3.4365 C.2       1 <0>         0.6018
     10 O1         -1.7689   -1.5261    3.3939 O.2       1 <0>        -0.4722
     11 C9         -1.1720    0.2905    4.7149 C.2       1 <0>        -0.2635
     12 C10        -1.5472   -0.1201    5.9866 C.2       1 <0>         0.1512
     13 N2         -1.3262    0.7270    6.9599 N.2       1 <0>        -0.5510
     14 C11        -0.7756    1.9070    6.7361 C.2       1 <0>         0.2513
     15 S1         -0.5107    1.9100    5.0742 S.3       1 <0>         0.2445
     16 N3         -0.4817    2.8997    7.6498 N.pl3     1 <0>        -0.5870
     17 C12        -0.6908    2.6801    9.0050 C.ar      1 <0>         0.4543
     18 C13        -1.0534    1.4192    9.4679 C.ar      1 <0>        -0.2926
     19 C14        -1.2512    1.2508   10.8352 C.ar      1 <0>         0.4935
     20 N4         -1.0875    2.2952   11.6453 N.ar      1 <0>        -0.5328
     21 C15        -0.7435    3.4737   11.1677 C.ar      1 <0>         0.4541
     22 N5         -0.5417    3.6719    9.8809 N.ar      1 <0>        -0.5672
     23 C16        -0.5694    4.6273   12.1217 C.3       1 <0>        -0.1251
     24 N6         -1.6138    0.0143   11.3464 N.pl3     1 <0>        -0.5370
     25 C17        -2.0559   -0.1253   12.7422 C.3       1 <0>         0.1090
     26 C18        -3.3866   -0.8852   12.7576 C.3       1 <0>         0.0383
     27 N7         -3.2335   -2.1493   12.0251 N.3       1 <0>        -0.5289
     28 C19        -2.9165   -1.9105   10.6107 C.3       1 <0>         0.0343
     29 C20        -1.5725   -1.1917   10.5056 C.3       1 <0>         0.1057
     30 C21        -4.4334   -2.9856   12.1619 C.3       1 <0>         0.0545
     31 C22        -4.1483   -4.3816   11.6043 C.3       1 <0>         0.0776
     32 O2         -3.1500   -5.0191   12.4038 O.3       1 <0>        -0.5606
     33 Cl1         0.0658   -2.6526    2.1768 Cl        1 <0>        -0.0453
     34 H1         -1.2464    2.3553   -0.0328 H         1 <0>         0.0773
     35 H2         -2.9308    1.9112   -0.3987 H         1 <0>         0.0785
     36 H3         -2.3379    1.8478    1.2784 H         1 <0>         0.0640
     37 H4         -2.3069    0.1956   -2.0014 H         1 <0>         0.1372
     38 H5         -1.6193   -2.1430   -2.3361 H         1 <0>         0.1391
     39 H6         -0.5731   -3.3989   -0.4959 H         1 <0>         0.1403
     40 H7         -0.3838    1.0296    2.3489 H         1 <0>         0.4083
     41 H8         -1.9972   -1.0858    6.1634 H         1 <0>         0.2027
     42 H9         -0.1293    3.7505    7.3451 H         1 <0>         0.4460
     43 H10        -1.1784    0.5927    8.7841 H         1 <0>         0.2218
     44 H11         0.4644    4.6619   12.4652 H         1 <0>         0.1245
     45 H12        -0.8146    5.5596   11.6130 H         1 <0>         0.1071
     46 H13        -1.2322    4.4948   12.9768 H         1 <0>         0.1273
     47 H14        -1.3096   -0.6823   13.3087 H         1 <0>         0.0989
     48 H15        -2.1929    0.8619   13.1834 H         1 <0>         0.1094
     49 H16        -3.6740   -1.0944   13.7880 H         1 <0>         0.1036
     50 H17        -4.1569   -0.2794   12.2806 H         1 <0>         0.0428
     51 H18        -2.8631   -2.8634   10.0841 H         1 <0>         0.1043
     52 H19        -3.6935   -1.2904   10.1636 H         1 <0>         0.0450
     53 H20        -1.3900   -0.9091    9.4688 H         1 <0>         0.1029
     54 H21        -0.7788   -1.8532   10.8529 H         1 <0>         0.1042
     55 H22        -4.7041   -3.0633   13.2149 H         1 <0>         0.0912
     56 H23        -5.2561   -2.5340   11.6075 H         1 <0>         0.0533
     57 H24        -5.0627   -4.9745   11.6240 H         1 <0>         0.0547
     58 H25        -3.7921   -4.2970   10.5776 H         1 <0>         0.0454
     59 H26        -2.9188   -5.9101   12.1076 H         1 <0>         0.3805
     60 H27        -0.2852    4.5531    9.5669 H         1 <0>         0.4414
@<TRIPOS>BOND
     1    1    2 1
     2    1   34 1
     3    1   35 1
     4    1   36 1
     5    2    7 ar
     6    2    3 ar
     7    3    4 ar
     8    3   37 1
     9    4    5 ar
    10    4   38 1
    11    5    6 ar
    12    5   39 1
    13    6    7 ar
    14    6   33 1
    15    7    8 1
    16    8    9 am
    17    8   40 1
    18    9   10 2
    19    9   11 1
    20   11   15 1
    21   11   12 2
    22   12   13 1
    23   12   41 1
    24   13   14 2
    25   14   15 1
    26   14   16 1
    27   16   17 1
    28   16   42 1
    29   17   22 ar
    30   17   18 ar
    31   18   19 ar
    32   18   43 1
    33   19   20 ar
    34   19   24 1
    35   20   21 ar
    36   21   22 ar
    37   21   23 1
    38   22   60 1
    39   23   44 1
    40   23   45 1
    41   23   46 1
    42   24   29 1
    43   24   25 1
    44   25   26 1
    45   25   47 1
    46   25   48 1
    47   26   27 1
    48   26   49 1
    49   26   50 1
    50   27   28 1
    51   27   30 1
    52   28   29 1
    53   28   51 1
    54   28   52 1
    55   29   53 1
    56   29   54 1
    57   30   31 1
    58   30   55 1
    59   30   56 1
    60   31   32 1
    61   31   57 1
    62   31   58 1
    63   32   59 1
@<TRIPOS>MOLECULE
ZINC21982951
   60    63     0     0     0
SMALL
USER_CHARGES

@<TRIPOS>ATOM
      1 C1          3.2739    6.6585    1.8418 C.3       1 <0>        -0.1168
      2 C2          2.5810    7.9910    1.9663 C.ar      1 <0>        -0.0823
      3 C3          2.8983    9.0189    1.0995 C.ar      1 <0>        -0.1038
      4 C4          2.2635   10.2419    1.2126 C.ar      1 <0>        -0.1008
      5 C5          1.3088   10.4411    2.1933 C.ar      1 <0>        -0.1049
      6 C6          0.9869    9.4175    3.0639 C.ar      1 <0>        -0.0226
      7 C7          1.6192    8.1849    2.9486 C.ar      1 <0>         0.1373
      8 N1          1.2913    7.1440    3.8238 N.am      1 <0>        -0.6678
      9 C8          1.3128    7.3511    5.1554 C.2       1 <0>         0.6036
     10 O1          1.5184    8.4680    5.5945 O.2       1 <0>        -0.4759
     11 C9          1.0891    6.2346    6.0728 C.2       1 <0>        -0.2694
     12 C10         1.0619    6.2190    7.4604 C.2       1 <0>         0.1522
     13 N2          0.8357    5.0596    8.0247 N.2       1 <0>        -0.5060
     14 C11         0.6446    3.9678    7.3056 C.2       1 <0>         0.2464
     15 S1          0.7674    4.5141    5.7185 S.3       1 <0>         0.2029
     16 N3          0.3973    2.6842    7.7505 N.pl3     1 <0>        -0.5650
     17 C12         0.2197    2.4414    9.1063 C.ar      1 <0>         0.4999
     18 C13        -0.1342    1.1736    9.5555 C.ar      1 <0>        -0.3181
     19 C14        -0.3003    0.9817   10.9244 C.ar      1 <0>         0.4940
     20 N4         -0.1157    2.0114   11.7481 N.ar      1 <0>        -0.5712
     21 C15         0.2193    3.1978   11.2829 C.ar      1 <0>         0.4509
     22 N5          0.3911    3.4178    9.9956 N.ar      1 <0>        -0.4879
     23 C16         0.4179    4.3344   12.2523 C.3       1 <0>        -0.1253
     24 N6         -0.6531   -0.2629   11.4224 N.pl3     1 <0>        -0.5744
     25 C17        -0.9639   -0.4449   12.8484 C.3       1 <0>         0.1013
     26 C18        -2.3114   -1.1652   12.9649 C.3       1 <0>         0.0387
     27 N7         -2.2712   -2.4031   12.1749 N.3       1 <0>        -0.5277
     28 C19        -2.0835   -2.1176   10.7462 C.3       1 <0>         0.0305
     29 C20        -0.7325   -1.4351   10.5377 C.3       1 <0>         0.1149
     30 C21        -3.4796   -3.2085   12.3965 C.3       1 <0>         0.0543
     31 C22        -3.2958   -4.5889   11.7629 C.3       1 <0>         0.0774
     32 O2         -2.2472   -5.2869   12.4378 O.3       1 <0>        -0.5615
     33 Cl1        -0.2110    9.6681    4.2952 Cl        1 <0>        -0.0453
     34 H1          2.7121    6.0191    1.1609 H         1 <0>         0.0767
     35 H2          4.2810    6.8077    1.4524 H         1 <0>         0.0779
     36 H3          3.3298    6.1850    2.8220 H         1 <0>         0.0648
     37 H4          3.6435    8.8670    0.3327 H         1 <0>         0.1365
     38 H5          2.5139   11.0437    0.5337 H         1 <0>         0.1383
     39 H6          0.8148   11.3976    2.2790 H         1 <0>         0.1396
     40 H7          1.0484    6.2731    3.4723 H         1 <0>         0.4083
     41 H8          1.2191    7.1147    8.0430 H         1 <0>         0.1979
     42 H9          0.3477    1.9521    7.1161 H         1 <0>         0.4525
     43 H10        -0.2767    0.3593    8.8606 H         1 <0>         0.1835
     44 H11         1.4596    4.3615   12.5720 H         1 <0>         0.1250
     45 H12         0.1626    5.2758   11.7656 H         1 <0>         0.1301
     46 H13        -0.2249    4.1881   13.1203 H         1 <0>         0.1049
     47 H14        -0.1857   -1.0458   13.3190 H         1 <0>         0.1119
     48 H15        -1.0251    0.5276   13.3369 H         1 <0>         0.0843
     49 H16        -2.5057   -1.4068   14.0099 H         1 <0>         0.1076
     50 H17        -3.1034   -0.5184   12.5874 H         1 <0>         0.0465
     51 H18        -2.1124   -3.0499   10.1822 H         1 <0>         0.1076
     52 H19        -2.8786   -1.4576   10.3996 H         1 <0>         0.0467
     53 H20        -0.6409   -1.1170    9.4992 H         1 <0>         0.1034
     54 H21         0.0684   -2.1330   10.7819 H         1 <0>         0.1075
     55 H22        -3.6507   -3.3200   13.4672 H         1 <0>         0.0925
     56 H23        -4.3362   -2.7111   11.9416 H         1 <0>         0.0553
     57 H24        -4.2233   -5.1548   11.8494 H         1 <0>         0.0565
     58 H25        -3.0370   -4.4741   10.7103 H         1 <0>         0.0456
     59 H26        -2.0752   -6.1719   12.0881 H         1 <0>         0.3821
     60 H27        -0.2297    1.8867   12.7033 H         1 <0>         0.4392
@<TRIPOS>BOND
     1    1    2 1
     2    1   34 1
     3    1   35 1
     4    1   36 1
     5    2    7 ar
     6    2    3 ar
     7    3    4 ar
     8    3   37 1
     9    4    5 ar
    10    4   38 1
    11    5    6 ar
    12    5   39 1
    13    6    7 ar
    14    6   33 1
    15    7    8 1
    16    8    9 am
    17    8   40 1
    18    9   10 2
    19    9   11 1
    20   11   15 1
    21   11   12 2
    22   12   13 1
    23   12   41 1
    24   13   14 2
    25   14   15 1
    26   14   16 1
    27   16   17 1
    28   16   42 1
    29   17   18 ar
    30   17   22 ar
    31   18   43 1
    32   18   19 ar
    33   19   24 1
    34   19   20 ar
    35   20   60 1
    36   20   21 ar
    37   21   23 1
    38   21   22 ar
    39   23   44 1
    40   23   45 1
    41   23   46 1
    42   24   29 1
    43   24   25 1
    44   25   26 1
    45   25   47 1
    46   25   48 1
    47   26   27 1
    48   26   49 1
    49   26   50 1
    50   27   28 1
    51   27   30 1
    52   28   29 1
    53   28   51 1
    54   28   52 1
    55   29   53 1
    56   29   54 1
    57   30   31 1
    58   30   55 1
    59   30   56 1
    60   31   32 1
    61   31   57 1
    62   31   58 1
    63   32   59 1
@<TRIPOS>MOLECULE
ZINC21982951
   59    62     0     0     0
SMALL
USER_CHARGES

@<TRIPOS>ATOM
      1 C1          3.4106    6.6420    1.8847 C.3       1 <0>        -0.1165
      2 C2          2.6976    7.9659    1.9845 C.ar      1 <0>        -0.0852
      3 C3          3.0204    8.9921    1.1176 C.ar      1 <0>        -0.1055
      4 C4          2.3672   10.2073    1.2080 C.ar      1 <0>        -0.1070
      5 C5          1.3885   10.4004    2.1660 C.ar      1 <0>        -0.1064
      6 C6          1.0609    9.3785    3.0365 C.ar      1 <0>        -0.0243
      7 C7          1.7118    8.1536    2.9438 C.ar      1 <0>         0.1460
      8 N1          1.3783    7.1144    3.8189 N.am      1 <0>        -0.6734
      9 C8          1.3676    7.3308    5.1492 C.2       1 <0>         0.6131
     10 O1          1.5489    8.4533    5.5848 O.2       1 <0>        -0.4899
     11 C9          1.1384    6.2176    6.0693 C.2       1 <0>        -0.3092
     12 C10         1.0807    6.2111    7.4561 C.2       1 <0>         0.1722
     13 N2          0.8573    5.0526    8.0233 N.2       1 <0>        -0.5180
     14 C11         0.6966    3.9535    7.3079 C.2       1 <0>         0.3121
     15 S1          0.8472    4.4907    5.7202 S.3       1 <0>         0.1340
     16 N3          0.4564    2.6698    7.7563 N.pl3     1 <0>        -0.5904
     17 C12         0.2490    2.4343    9.1091 C.ar      1 <0>         0.4412
     18 C13        -0.1036    1.1661    9.5586 C.ar      1 <0>        -0.3412
     19 C14        -0.3003    0.9817   10.9244 C.ar      1 <0>         0.4686
     20 N4         -0.1450    2.0186   11.7452 N.ar      1 <0>        -0.5923
     21 C15         0.1898    3.2050   11.2799 C.ar      1 <0>         0.3946
     22 N5          0.3901    3.4182    9.9956 N.ar      1 <0>        -0.5459
     23 C16         0.3546    4.3498   12.2460 C.3       1 <0>        -0.0834
     24 N6         -0.6531   -0.2629   11.4224 N.pl3     1 <0>        -0.5966
     25 C17        -1.0693   -0.4249   12.8237 C.3       1 <0>         0.1300
     26 C18        -2.3993   -1.1856   12.8517 C.3       1 <0>         0.0401
     27 N7         -2.2595   -2.4378   12.0965 N.3       1 <0>        -0.5276
     28 C19        -1.9688   -2.1765   10.6804 C.3       1 <0>         0.0363
     29 C20        -0.6270   -1.4554   10.5619 C.3       1 <0>         0.1269
     30 C21        -3.4565   -3.2768   12.2420 C.3       1 <0>         0.0537
     31 C22        -3.1814   -4.6636   11.6572 C.3       1 <0>         0.0792
     32 O2         -2.1684   -5.3132   12.4279 O.3       1 <0>        -0.5589
     33 Cl1        -0.1672    9.6214    4.2392 Cl        1 <0>        -0.0433
     34 H1          2.8725    5.9906    1.1961 H         1 <0>         0.0754
     35 H2          4.4240    6.8020    1.5166 H         1 <0>         0.0754
     36 H3          3.4510    6.1760    2.8692 H         1 <0>         0.0676
     37 H4          3.7844    8.8450    0.3685 H         1 <0>         0.1337
     38 H5          2.6220   11.0077    0.5292 H         1 <0>         0.1350
     39 H6          0.8801   11.3508    2.2339 H         1 <0>         0.1371
     40 H7          1.1547    6.2381    3.4683 H         1 <0>         0.4085
     41 H8          1.2132    7.1127    8.0357 H         1 <0>         0.1884
     42 H9          0.4325    1.9325    7.1264 H         1 <0>         0.4387
     43 H10        -0.2220    0.3459    8.8660 H         1 <0>         0.1413
     44 H11         1.3882    4.3890   12.5900 H         1 <0>         0.0870
     45 H12         0.1021    5.2855   11.7470 H         1 <0>         0.0890
     46 H13        -0.3072    4.2031   13.0995 H         1 <0>         0.0846
     47 H14        -0.3126   -0.9904   13.3674 H         1 <0>         0.0744
     48 H15        -1.1984    0.5551   13.2831 H         1 <0>         0.1008
     49 H16        -2.6676   -1.4113   13.8837 H         1 <0>         0.0903
     50 H17        -3.1785   -0.5727   12.3986 H         1 <0>         0.0372
     51 H18        -1.9249   -3.1208   10.1378 H         1 <0>         0.0905
     52 H19        -2.7540   -1.5497   10.2576 H         1 <0>         0.0380
     53 H20        -0.4638   -1.1563    9.5265 H         1 <0>         0.0877
     54 H21         0.1731   -2.1219   10.8840 H         1 <0>         0.0802
     55 H22        -3.7077   -3.3713   13.2985 H         1 <0>         0.0861
     56 H23        -4.2894   -2.8169   11.7102 H         1 <0>         0.0487
     57 H24        -4.0952   -5.2572   11.6843 H         1 <0>         0.0498
     58 H25        -2.8443   -4.5626   10.6256 H         1 <0>         0.0451
     59 H26        -1.9426   -6.1994   12.1134 H         1 <0>         0.3762
@<TRIPOS>BOND
     1    1    2 1
     2    1   34 1
     3    1   35 1
     4    1   36 1
     5    2    7 ar
     6    2    3 ar
     7    3    4 ar
     8    3   37 1
     9    4    5 ar
    10    4   38 1
    11    5    6 ar
    12    5   39 1
    13    6    7 ar
    14    6   33 1
    15    7    8 1
    16    8    9 am
    17    8   40 1
    18    9   10 2
    19    9   11 1
    20   11   15 1
    21   11   12 2
    22   12   13 1
    23   12   41 1
    24   13   14 2
    25   14   15 1
    26   14   16 1
    27   16   17 1
    28   16   42 1
    29   17   18 ar
    30   17   22 ar
    31   18   43 1
    32   18   19 ar
    33   19   24 1
    34   19   20 ar
    35   20   21 ar
    36   21   23 1
    37   21   22 ar
    38   23   44 1
    39   23   45 1
    40   23   46 1
    41   24   29 1
    42   24   25 1
    43   25   26 1
    44   25   47 1
    45   25   48 1
    46   26   27 1
    47   26   49 1
    48   26   50 1
    49   27   28 1
    50   27   30 1
    51   28   29 1
    52   28   51 1
    53   28   52 1
    54   29   53 1
    55   29   54 1
    56   30   31 1
    57   30   55 1
    58   30   56 1
    59   31   32 1
    60   31   57 1
    61   31   58 1
    62   32   59 1
@<TRIPOS>MOLECULE
ZINC21982951
   61    64     0     0     0
SMALL
USER_CHARGES

@<TRIPOS>ATOM
      1 C1          3.2770    6.6581    1.8427 C.3       1 <0>        -0.1166
      2 C2          2.5837    7.9904    1.9667 C.ar      1 <0>        -0.0814
      3 C3          2.9012    9.0183    1.0999 C.ar      1 <0>        -0.1028
      4 C4          2.2660   10.2411    1.2125 C.ar      1 <0>        -0.0975
      5 C5          1.3108   10.4402    2.1928 C.ar      1 <0>        -0.1039
      6 C6          0.9888    9.4167    3.0634 C.ar      1 <0>        -0.0218
      7 C7          1.6215    8.1842    2.9485 C.ar      1 <0>         0.1327
      8 N1          1.2933    7.1433    3.8237 N.am      1 <0>        -0.6648
      9 C8          1.3141    7.3507    5.1552 C.2       1 <0>         0.5983
     10 O1          1.5193    8.4677    5.5943 O.2       1 <0>        -0.4690
     11 C9          1.0903    6.2342    6.0727 C.2       1 <0>        -0.2500
     12 C10         1.0624    6.2188    7.4604 C.2       1 <0>         0.1439
     13 N2          0.8362    5.0594    8.0246 N.2       1 <0>        -0.4984
     14 C11         0.6458    3.9675    7.3056 C.2       1 <0>         0.2172
     15 S1          0.7692    4.5136    5.7185 S.3       1 <0>         0.2242
     16 N3          0.3986    2.6839    7.7506 N.pl3     1 <0>        -0.5513
     17 C12         0.2203    2.4413    9.1063 C.ar      1 <0>         0.5098
     18 C13        -0.1335    1.1734    9.5556 C.ar      1 <0>        -0.3097
     19 C14        -0.3003    0.9817   10.9244 C.ar      1 <0>         0.4927
     20 N4         -0.1163    2.0116   11.7481 N.ar      1 <0>        -0.5695
     21 C15         0.2187    3.1980   11.2828 C.ar      1 <0>         0.4589
     22 N5          0.3911    3.4178    9.9956 N.ar      1 <0>        -0.4762
     23 C16         0.4165    4.3348   12.2521 C.3       1 <0>        -0.1303
     24 N6         -0.6531   -0.2629   11.4224 N.pl3     1 <0>        -0.6123
     25 C17        -0.9643   -0.4465   12.8484 C.3       1 <0>         0.0782
     26 C18        -2.3027   -1.1838   12.9625 C.3       1 <0>        -0.0204
     27 N7         -2.2406   -2.4311   12.1903 N.4       1 <0>        -0.3852
     28 C19        -2.0770   -2.1279   10.7629 C.3       1 <0>        -0.0304
     29 C20        -0.7330   -1.4363   10.5388 C.3       1 <0>         0.0932
     30 C21        -3.4827   -3.1900   12.3886 C.3       1 <0>        -0.0061
     31 C22        -3.3702   -4.5448   11.6865 C.3       1 <0>         0.0434
     32 O2         -2.3479   -5.3224   12.3128 O.3       1 <0>        -0.5819
     33 Cl1        -0.2098    9.6671    4.2940 Cl        1 <0>        -0.0466
     34 H1          2.7157    6.0184    1.1617 H         1 <0>         0.0770
     35 H2          4.2843    6.8074    1.4538 H         1 <0>         0.0791
     36 H3          3.3325    6.1847    2.8230 H         1 <0>         0.0631
     37 H4          3.6468    8.8665    0.3335 H         1 <0>         0.1380
     38 H5          2.5166   11.0428    0.5336 H         1 <0>         0.1401
     39 H6          0.8165   11.3966    2.2780 H         1 <0>         0.1410
     40 H7          1.0508    6.2723    3.4722 H         1 <0>         0.4077
     41 H8          1.2191    7.1146    8.0429 H         1 <0>         0.2016
     42 H9          0.3494    1.9517    7.1163 H         1 <0>         0.4545
     43 H10        -0.2756    0.3590    8.8607 H         1 <0>         0.1860
     44 H11         1.4581    4.3621   12.5724 H         1 <0>         0.1309
     45 H12         0.1613    5.2760   11.7653 H         1 <0>         0.1358
     46 H13        -0.2267    4.1885   13.1199 H         1 <0>         0.1083
     47 H14        -0.1795   -1.0367   13.3215 H         1 <0>         0.1249
     48 H15        -1.0392    0.5259   13.3352 H         1 <0>         0.1232
     49 H16        -2.5028   -1.4138   14.0090 H         1 <0>         0.1602
     50 H17        -3.0999   -0.5526   12.5701 H         1 <0>         0.1410
     51 H18        -2.1110   -3.0537   10.1885 H         1 <0>         0.1585
     52 H19        -2.8811   -1.4682   10.4370 H         1 <0>         0.1418
     53 H20        -0.6550   -1.1179    9.4992 H         1 <0>         0.1416
     54 H21         0.0756   -2.1281   10.7747 H         1 <0>         0.1211
     55 H22        -3.6469   -3.3459   13.4548 H         1 <0>         0.1465
     56 H23        -4.3202   -2.6321   11.9697 H         1 <0>         0.1464
     57 H24        -4.3221   -5.0710   11.7578 H         1 <0>         0.1026
     58 H25        -3.1180   -4.3904   10.6374 H         1 <0>         0.0719
     59 H26        -2.2211   -6.1961   11.9183 H         1 <0>         0.4154
     60 H27        -0.2308    1.8869   12.7032 H         1 <0>         0.4393
     61 H28        -1.4578   -2.9831   12.5075 H         1 <0>         0.4359
@<TRIPOS>BOND
     1    1    2 1
     2    1   34 1
     3    1   35 1
     4    1   36 1
     5    2    7 ar
     6    2    3 ar
     7    3    4 ar
     8    3   37 1
     9    4    5 ar
    10    4   38 1
    11    5    6 ar
    12    5   39 1
    13    6    7 ar
    14    6   33 1
    15    7    8 1
    16    8    9 am
    17    8   40 1
    18    9   10 2
    19    9   11 1
    20   11   15 1
    21   11   12 2
    22   12   13 1
    23   12   41 1
    24   13   14 2
    25   14   15 1
    26   14   16 1
    27   16   17 1
    28   16   42 1
    29   17   18 ar
    30   17   22 ar
    31   18   43 1
    32   18   19 ar
    33   19   24 1
    34   19   20 ar
    35   20   60 1
    36   20   21 ar
    37   21   23 1
    38   21   22 ar
    39   23   44 1
    40   23   45 1
    41   23   46 1
    42   24   29 1
    43   24   25 1
    44   25   26 1
    45   25   47 1
    46   25   48 1
    47   26   27 1
    48   26   49 1
    49   26   50 1
    50   27   28 1
    51   27   30 1
    52   27   61 1
    53   28   29 1
    54   28   51 1
    55   28   52 1
    56   29   53 1
    57   29   54 1
    58   30   31 1
    59   30   55 1
    60   30   56 1
    61   31   32 1
    62   31   57 1
    63   31   58 1
    64   32   59 1
@<TRIPOS>MOLECULE
ZINC03814434
   62    69     0     0     0
SMALL
USER_CHARGES

@<TRIPOS>ATOM
      1 C1         -0.1295    1.5952   -0.2973 C.3       1 <0>        -0.1687
      2 C2         -0.0862    0.0696   -0.1900 C.3       1 <0>         0.3342
      3 C3          0.5692   -0.4501   -1.4637 C.3       1 <0>         0.0405
      4 H1          1.4796    0.1159   -1.6612 H         1 <0>         0.1372
      5 C4          0.9167   -1.9328   -1.2889 C.3       1 <0>        -0.0061
      6 H2          1.3963   -2.3075   -2.1932 H         1 <0>         0.1555
      7 C5          1.8785   -2.0596   -0.1021 C.3       1 <0>        -0.1827
      8 C6          1.2061   -1.5198    1.1541 C.3       1 <0>         0.2999
      9 H3          1.9797   -1.4243    1.9161 H         1 <0>         0.1550
     10 O1          0.6555   -0.2442    0.9666 O.3       1 <0>        -0.3234
     11 N1          0.2189   -2.4746    1.6600 N.pl3     1 <0>        -0.5366
     12 C7          0.4705   -3.5508    2.4739 C.ar      1 <0>         0.1469
     13 C8          1.6649   -4.0152    3.0240 C.ar      1 <0>        -0.1522
     14 C9          1.5948   -5.1456    3.8201 C.ar      1 <0>        -0.0582
     15 C10         0.4006   -5.7997    4.0696 C.ar      1 <0>        -0.1457
     16 C11        -0.7984   -5.3597    3.5358 C.ar      1 <0>        -0.0280
     17 C12        -0.7487   -4.2198    2.7307 C.ar      1 <0>        -0.1131
     18 C13        -1.7893   -3.4830    2.0197 C.ar      1 <0>         0.0276
     19 C14        -1.1442   -2.4197    1.3841 C.ar      1 <0>         0.0376
     20 C15        -1.8806   -1.5095    0.6175 C.ar      1 <0>         0.0894
     21 N2         -1.4718   -0.3951   -0.1095 N.pl3     1 <0>        -0.5183
     22 C16        -2.5611    0.1913   -0.7090 C.ar      1 <0>         0.1618
     23 C17        -2.6521    1.3277   -1.5118 C.ar      1 <0>        -0.1305
     24 C18        -3.9109    1.6745   -1.9733 C.ar      1 <0>        -0.0737
     25 C19        -5.0393    0.9368   -1.6616 C.ar      1 <0>        -0.1358
     26 C20        -4.9745   -0.1955   -0.8662 C.ar      1 <0>        -0.0503
     27 C21        -3.7147   -0.5596   -0.3919 C.ar      1 <0>        -0.1042
     28 C22        -3.2693   -1.6660    0.4845 C.ar      1 <0>        -0.0360
     29 C23        -3.9084   -2.7313    1.1102 C.ar      1 <0>        -0.0288
     30 C24        -3.1873   -3.6421    1.8754 C.ar      1 <0>        -0.1255
     31 C25        -4.1221   -4.6480    2.4030 C.2       1 <0>         0.5632
     32 O2         -3.8062   -5.5851    3.1110 O.2       1 <0>        -0.5106
     33 N3         -5.3744   -4.3851    1.9926 N.am      1 <0>        -0.7162
     34 C26        -5.3495   -3.1771    1.1601 C.3       1 <0>         0.1358
     35 N4         -0.3067   -2.7008   -1.0216 N.4       1 <0>        -0.5252
     36 C27         0.0145   -4.1336   -0.9773 C.3       1 <0>        -0.0497
     37 O3         -0.3340   -0.2979   -2.5607 O.3       1 <0>        -0.3614
     38 C28         0.3101   -0.0933   -3.8198 C.3       1 <0>         0.0162
     39 H4          0.8261    2.0094    0.0240 H         1 <0>         0.0984
     40 H5         -0.3202    1.8814   -1.3317 H         1 <0>         0.1036
     41 H6         -0.9255    1.9818    0.3392 H         1 <0>         0.0921
     42 H7          2.1370   -3.1081    0.0458 H         1 <0>         0.1233
     43 H8          2.7835   -1.4869   -0.3048 H         1 <0>         0.1455
     44 H9          2.6036   -3.5149    2.8368 H         1 <0>         0.1365
     45 H10         2.5026   -5.5304    4.2610 H         1 <0>         0.1359
     46 H11         0.4045   -6.6780    4.6980 H         1 <0>         0.1352
     47 H12        -1.7278   -5.8736    3.7323 H         1 <0>         0.1600
     48 H13        -1.7792    1.9122   -1.7624 H         1 <0>         0.1440
     49 H14        -4.0153    2.5500   -2.5970 H         1 <0>         0.1336
     50 H15        -5.9967    1.2527   -2.0488 H         1 <0>         0.1332
     51 H16        -5.8575   -0.7687   -0.6249 H         1 <0>         0.1415
     52 H17        -6.1628   -4.9065    2.2103 H         1 <0>         0.4348
     53 H18        -5.9671   -2.3994    1.6094 H         1 <0>         0.1115
     54 H19        -5.7060   -3.4063    0.1559 H         1 <0>         0.1103
     55 H20        -0.6958   -2.4158   -0.1353 H         1 <0>         0.4186
     56 H21         0.4349   -4.4415   -1.9347 H         1 <0>         0.1256
     57 H22         0.7403   -4.3189   -0.1854 H         1 <0>         0.1191
     58 H23        -0.8932   -4.7035   -0.7789 H         1 <0>         0.1256
     59 H24         0.9168    0.8112   -3.7748 H         1 <0>         0.0633
     60 H25         0.9482   -0.9479   -4.0446 H         1 <0>         0.0514
     61 H26        -0.4433    0.0130   -4.6003 H         1 <0>         0.1100
     62 H27        -0.9785   -2.5293   -1.7546 H         1 <0>         0.4274
@<TRIPOS>BOND
     1    1    2 1
     2    1   39 1
     3    1   40 1
     4    1   41 1
     5    2   10 1
     6    2   21 1
     7    2    3 1
     8    3    4 1
     9    3    5 1
    10    3   37 1
    11    5    6 1
    12    5    7 1
    13    5   35 1
    14    7    8 1
    15    7   42 1
    16    7   43 1
    17    8    9 1
    18    8   10 1
    19    8   11 1
    20   11   19 1
    21   11   12 1
    22   12   17 ar
    23   12   13 ar
    24   13   14 ar
    25   13   44 1
    26   14   15 ar
    27   14   45 1
    28   15   16 ar
    29   15   46 1
    30   16   17 ar
    31   16   47 1
    32   17   18 1
    33   18   30 ar
    34   18   19 ar
    35   19   20 ar
    36   20   28 ar
    37   20   21 1
    38   21   22 1
    39   22   27 ar
    40   22   23 ar
    41   23   24 ar
    42   23   48 1
    43   24   25 ar
    44   24   49 1
    45   25   26 ar
    46   25   50 1
    47   26   27 ar
    48   26   51 1
    49   27   28 1
    50   28   29 ar
    51   29   34 1
    52   29   30 ar
    53   30   31 1
    54   31   32 2
    55   31   33 am
    56   33   34 1
    57   33   52 1
    58   34   53 1
    59   34   54 1
    60   35   36 1
    61   35   55 1
    62   35   62 1
    63   36   56 1
    64   36   57 1
    65   36   58 1
    66   37   38 1
    67   38   59 1
    68   38   60 1
    69   38   61 1
@<TRIPOS>MOLECULE
ZINC14852066
   48    49     0     0     0
SMALL
USER_CHARGES

@<TRIPOS>ATOM
      1 C1         -0.0187    1.5258    0.0104 C.3       1 <0>        -0.1902
      2 C2          0.0021   -0.0041    0.0020 C.3       1 <0>         0.1099
      3 H1         -1.0213   -0.3792    0.0098 H         1 <0>         0.1225
      4 C3          0.7117   -0.4941   -1.2603 C.3       1 <0>        -0.1315
      5 C4          1.3803    0.6570   -1.9583 C.2       1 <0>        -0.0692
      6 C5          2.7017    0.8181   -1.8493 C.2       1 <0>        -0.2242
      7 C6          3.3680    1.9252   -2.5435 C.2       1 <0>         0.3696
      8 O1          2.7115    2.7060   -3.2003 O.2       1 <0>        -0.4479
      9 C7          4.8559    2.0998   -2.4470 C.3       1 <0>         0.0704
     10 H2          5.3262    1.1283   -2.2950 H         1 <0>         0.0907
     11 C8          5.1895    3.0179   -1.2680 C.3       1 <0>         0.1256
     12 H3          5.7479    3.8823   -1.6273 H         1 <0>         0.0798
     13 C9          6.0360    2.2514   -0.2480 C.3       1 <0>        -0.1248
     14 C10         5.2825    2.1507    1.0538 C.2       1 <0>        -0.1283
     15 C11         4.6042    1.0526    1.3362 C.2       1 <0>        -0.1087
     16 C12         3.8388    0.8902    2.5804 C.ar      1 <0>         0.0721
     17 C13         4.3861    1.3164    3.7898 C.ar      1 <0>        -0.1728
     18 C14         3.6817    1.1455    4.9738 C.ar      1 <0>         0.1859
     19 C15         2.4255    0.5534    4.9682 C.ar      1 <0>        -0.2571
     20 C16         1.8630    0.1324    3.7761 C.ar      1 <0>         0.2113
     21 C17         2.5606    0.2946    2.5690 C.ar      1 <0>        -0.2000
     22 C18         1.9781   -0.1421    1.2956 C.2       1 <0>         0.5268
     23 O2          2.6973   -0.2041    0.3174 O.2       1 <0>        -0.4835
     24 O3          0.6878   -0.4748    1.1642 O.3       1 <0>        -0.3491
     25 O4          0.6328   -0.4392    3.7740 O.3       1 <0>        -0.4807
     26 O5          4.2252    1.5601    6.1463 O.3       1 <0>        -0.3078
     27 C19         3.4497    1.3557    7.3291 C.3       1 <0>         0.0221
     28 O6          3.9788    3.4568   -0.6486 O.3       1 <0>        -0.5534
     29 O7          5.3461    2.6819   -3.6565 O.3       1 <0>        -0.5470
     30 H4          1.0039    1.9031    0.0027 H         1 <0>         0.0708
     31 H5         -0.5459    1.8868   -0.8726 H         1 <0>         0.0797
     32 H6         -0.5289    1.8773    0.9072 H         1 <0>         0.0648
     33 H7          1.4619   -1.2365   -0.9879 H         1 <0>         0.1008
     34 H8         -0.0172   -0.9492   -1.9309 H         1 <0>         0.0831
     35 H9          0.7985    1.3591   -2.5388 H         1 <0>         0.1164
     36 H10         3.2734    0.1369   -1.2412 H         1 <0>         0.1643
     37 H11         6.2432    1.2504   -0.6265 H         1 <0>         0.0830
     38 H12         6.9752    2.7800   -0.0845 H         1 <0>         0.0857
     39 H13         5.2989    2.9862    1.7379 H         1 <0>         0.1128
     40 H14         4.6552    0.2260    0.6308 H         1 <0>         0.1420
     41 H15         5.3612    1.7805    3.8056 H         1 <0>         0.1441
     42 H16         1.8873    0.4210    5.8951 H         1 <0>         0.1447
     43 H17        -0.0933    0.1904    3.6668 H         1 <0>         0.4007
     44 H18         2.5035    1.8894    7.2399 H         1 <0>         0.0607
     45 H19         3.2556    0.2907    7.4566 H         1 <0>         0.0615
     46 H20         3.9986    1.7309    8.1928 H         1 <0>         0.1065
     47 H21         4.1144    4.0435    0.1081 H         1 <0>         0.3819
     48 H22         5.1714    2.1527   -4.4467 H         1 <0>         0.3861
@<TRIPOS>BOND
     1    1    2 1
     2    1   30 1
     3    1   31 1
     4    1   32 1
     5    2    3 1
     6    2   24 1
     7    2    4 1
     8    4    5 1
     9    4   33 1
    10    4   34 1
    11    5    6 2
    12    5   35 1
    13    6    7 1
    14    6   36 1
    15    7    8 2
    16    7    9 1
    17    9   10 1
    18    9   11 1
    19    9   29 1
    20   11   12 1
    21   11   13 1
    22   11   28 1
    23   13   14 1
    24   13   37 1
    25   13   38 1
    26   14   15 2
    27   14   39 1
    28   15   16 1
    29   15   40 1
    30   16   21 ar
    31   16   17 ar
    32   17   18 ar
    33   17   41 1
    34   18   19 ar
    35   18   26 1
    36   19   20 ar
    37   19   42 1
    38   20   21 ar
    39   20   25 1
    40   21   22 1
    41   22   23 2
    42   22   24 1
    43   25   43 1
    44   26   27 1
    45   27   44 1
    46   27   45 1
    47   27   46 1
    48   28   47 1
    49   29   48 1
@<TRIPOS>MOLECULE
ZINC14852066
   48    49     0     0     0
SMALL
USER_CHARGES

@<TRIPOS>ATOM
      1 C1         -0.0187    1.5258    0.0104 C.3       1 <0>        -0.1782
      2 C2          0.0021   -0.0041    0.0020 C.3       1 <0>         0.1059
      3 H1         -1.0202   -0.3821    0.0097 H         1 <0>         0.1065
      4 C3          0.7214   -0.4993   -1.2571 C.3       1 <0>        -0.2337
      5 C4          0.9926    0.6676   -2.1719 C.2       1 <0>        -0.0239
      6 C5          2.2327    0.8804   -2.6274 C.2       1 <0>        -0.2524
      7 C6          3.3216   -0.0106   -2.2391 C.2       1 <0>         0.3565
      8 O1          3.0972   -0.9579   -1.5151 O.2       1 <0>        -0.3921
      9 C7          4.7243    0.2403   -2.7329 C.3       1 <0>         0.0775
     10 H2          4.6903    0.5739   -3.7700 H         1 <0>         0.0902
     11 C8          5.5353   -1.0528   -2.6394 C.3       1 <0>         0.1183
     12 H3          4.8562   -1.9036   -2.5842 H         1 <0>         0.0767
     13 C9          6.4150   -1.0217   -1.3875 C.3       1 <0>        -0.1211
     14 C10         5.7492   -1.8245   -0.2972 C.2       1 <0>        -0.1407
     15 C11         4.7118   -1.3199    0.3472 C.2       1 <0>        -0.1201
     16 C12         4.0408   -2.0709    1.4214 C.ar      1 <0>         0.0738
     17 C13         4.7005   -3.0796    2.1095 C.ar      1 <0>        -0.1758
     18 C14         4.0463   -3.7677    3.1229 C.ar      1 <0>         0.1867
     19 C15         2.7421   -3.4458    3.4552 C.ar      1 <0>        -0.2633
     20 C16         2.0660   -2.4427    2.7907 C.ar      1 <0>         0.2133
     21 C17         2.7063   -1.7502    1.7571 C.ar      1 <0>        -0.2009
     22 C18         2.0150   -0.7034    1.0028 C.2       1 <0>         0.5163
     23 O2          2.6441   -0.0218    0.2169 O.2       1 <0>        -0.4694
     24 O3          0.6975   -0.4800    1.1622 O.3       1 <0>        -0.3396
     25 O4          0.7918   -2.1312    3.1363 O.3       1 <0>        -0.4793
     26 O5          4.6885   -4.7601    3.7898 O.3       1 <0>        -0.3082
     27 C19         3.9578   -5.4273    4.8208 C.3       1 <0>         0.0226
     28 O6          6.3629   -1.1796   -3.7975 O.3       1 <0>        -0.5677
     29 O7          5.3395    1.2482   -1.9281 O.3       1 <0>        -0.5329
     30 H4          1.0039    1.9031    0.0027 H         1 <0>         0.0702
     31 H5         -0.5459    1.8868   -0.8726 H         1 <0>         0.0718
     32 H6         -0.5289    1.8773    0.9072 H         1 <0>         0.0632
     33 H7          1.6646   -0.9678   -0.9763 H         1 <0>         0.1854
     34 H8          0.0935   -1.2264   -1.7721 H         1 <0>         0.0805
     35 H9          0.1918    1.3244   -2.4742 H         1 <0>         0.1212
     36 H10         2.4263    1.7062   -3.2931 H         1 <0>         0.1283
     37 H11         7.3892   -1.4544   -1.6156 H         1 <0>         0.0742
     38 H12         6.5412    0.0090   -1.0560 H         1 <0>         0.1072
     39 H13         6.1067   -2.8144   -0.0623 H         1 <0>         0.1057
     40 H14         4.3547   -0.3298    0.0969 H         1 <0>         0.1711
     41 H15         5.7205   -3.3292    1.8570 H         1 <0>         0.1430
     42 H16         2.2456   -3.9881    4.2463 H         1 <0>         0.1411
     43 H17         0.7249   -1.4505    3.8198 H         1 <0>         0.3997
     44 H18         3.6630   -4.7055    5.5826 H         1 <0>         0.0602
     45 H19         3.0675   -5.8894    4.3943 H         1 <0>         0.0606
     46 H20         4.5854   -6.1958    5.2719 H         1 <0>         0.1057
     47 H21         6.9070   -1.9789   -3.8064 H         1 <0>         0.3845
     48 H22         4.8770    2.0973   -1.9394 H         1 <0>         0.3814
@<TRIPOS>BOND
     1    1    2 1
     2    1   30 1
     3    1   31 1
     4    1   32 1
     5    2    3 1
     6    2   24 1
     7    2    4 1
     8    4    5 1
     9    4   33 1
    10    4   34 1
    11    5    6 2
    12    5   35 1
    13    6    7 1
    14    6   36 1
    15    7    8 2
    16    7    9 1
    17    9   10 1
    18    9   11 1
    19    9   29 1
    20   11   12 1
    21   11   13 1
    22   11   28 1
    23   13   14 1
    24   13   37 1
    25   13   38 1
    26   14   15 2
    27   14   39 1
    28   15   16 1
    29   15   40 1
    30   16   21 ar
    31   16   17 ar
    32   17   18 ar
    33   17   41 1
    34   18   19 ar
    35   18   26 1
    36   19   20 ar
    37   19   42 1
    38   20   21 ar
    39   20   25 1
    40   21   22 1
    41   22   23 2
    42   22   24 1
    43   25   43 1
    44   26   27 1
    45   27   44 1
    46   27   45 1
    47   27   46 1
    48   28   47 1
    49   29   48 1
@<TRIPOS>MOLECULE
ZINC66080466
   42    43     0     0     0
SMALL
USER_CHARGES

@<TRIPOS>ATOM
      1 C1         -0.3101    1.5787   -1.0405 C.3       1 <0>        -0.1668
      2 C2         -0.3320    0.0570   -1.1974 C.3       1 <0>         0.1311
      3 N1         -1.5362   -0.4823   -0.5606 N.am      1 <0>        -0.7393
      4 C3         -1.7687   -1.8098   -0.5740 C.2       1 <0>         0.7058
      5 O1         -0.9789   -2.5599   -1.1145 O.2       1 <0>        -0.5690
      6 N2         -2.8765   -2.3058    0.0118 N.am      1 <0>        -0.6835
      7 C4         -3.1662   -3.6741   -0.0823 C.ar      1 <0>         0.1845
      8 C5         -2.1350   -4.6035   -0.0898 C.ar      1 <0>        -0.0954
      9 C6         -2.4208   -5.9513   -0.1820 C.ar      1 <0>        -0.0793
     10 C7         -3.7385   -6.3775   -0.2673 C.ar      1 <0>         0.0822
     11 C8         -4.7700   -5.4501   -0.2604 C.ar      1 <0>        -0.0847
     12 C9         -4.4858   -4.1012   -0.1624 C.ar      1 <0>        -0.0559
     13 Cl1        -5.7767   -2.9406   -0.1465 Cl        1 <0>        -0.0562
     14 O2         -4.0188   -7.7048   -0.3580 O.3       1 <0>        -0.2053
     15 C10        -3.9030   -8.4569    0.7618 C.ar      1 <0>         0.4177
     16 C11        -4.2732   -9.8122    0.7537 C.ar      1 <0>        -0.2481
     17 C12        -4.1301  -10.5425    1.9485 C.ar      1 <0>         0.4947
     18 N3         -3.6545   -9.9229    3.0250 N.ar      1 <0>        -0.5919
     19 C13        -3.3207   -8.6491    2.9830 C.ar      1 <0>         0.3938
     20 N4         -3.4323   -7.9276    1.8856 N.ar      1 <0>        -0.6014
     21 N5         -4.4780  -11.8787    2.0022 N.pl3     1 <0>        -0.8212
     22 C14        -4.7952  -10.4490   -0.4668 C.2       1 <0>         0.1542
     23 N6         -4.8272   -9.7871   -1.5796 N.2       1 <0>        -0.3129
     24 O3         -5.3292  -10.3995   -2.7535 O.3       1 <0>        -0.2467
     25 C15        -5.3053   -9.5545   -3.9057 C.3       1 <0>         0.0475
     26 H1          0.5858    1.9800   -1.5143 H         1 <0>         0.0781
     27 H2         -1.1939    2.0056   -1.5146 H         1 <0>         0.0627
     28 H3         -0.3066    1.8348    0.0190 H         1 <0>         0.0628
     29 H4         -0.3356   -0.1991   -2.2568 H         1 <0>         0.0697
     30 H5          0.5518   -0.3699   -0.7233 H         1 <0>         0.0700
     31 H6         -2.1662    0.1161   -0.1294 H         1 <0>         0.3993
     32 H7         -3.4733   -1.7161    0.4985 H         1 <0>         0.4102
     33 H8         -1.1091   -4.2723   -0.0238 H         1 <0>         0.1584
     34 H9         -1.6183   -6.6740   -0.1882 H         1 <0>         0.1369
     35 H10        -5.7954   -5.7824   -0.3274 H         1 <0>         0.1437
     36 H11        -2.9380   -8.1809    3.8779 H         1 <0>         0.2061
     37 H12        -4.7550  -12.3405    1.1954 H         1 <0>         0.4144
     38 H13        -4.4452  -12.3549    2.8466 H         1 <0>         0.4161
     39 H14        -5.1515  -11.4680   -0.4342 H         1 <0>         0.1202
     40 H15        -4.2787   -9.2532   -4.1140 H         1 <0>         0.0507
     41 H16        -5.7057  -10.0967   -4.7623 H         1 <0>         0.0961
     42 H17        -5.9132   -8.6691   -3.7196 H         1 <0>         0.0507
@<TRIPOS>BOND
     1    1    2 1
     2    1   26 1
     3    1   27 1
     4    1   28 1
     5    2    3 1
     6    2   29 1
     7    2   30 1
     8    3    4 am
     9    3   31 1
    10    4    5 2
    11    4    6 am
    12    6    7 1
    13    6   32 1
    14    7   12 ar
    15    7    8 ar
    16    8    9 ar
    17    8   33 1
    18    9   10 ar
    19    9   34 1
    20   10   11 ar
    21   10   14 1
    22   11   12 ar
    23   11   35 1
    24   12   13 1
    25   14   15 1
    26   15   20 ar
    27   15   16 ar
    28   16   17 ar
    29   16   22 1
    30   17   18 ar
    31   17   21 1
    32   18   19 ar
    33   19   20 ar
    34   19   36 1
    35   21   37 1
    36   21   38 1
    37   22   23 2
    38   22   39 1
    39   23   24 1
    40   24   25 1
    41   25   40 1
    42   25   41 1
    43   25   42 1
@<TRIPOS>MOLECULE
ZINC22063639
   51    54     0     0     0
SMALL
USER_CHARGES
4-(chloromethyl)-N-[4-methyl-3-[[4-(3-pyridyl)pyrimidin-2-yl]amino]phenyl]benzamide
@<TRIPOS>ATOM
      1 C1          4.4030    4.1054    0.0288 C.3       1 <0>        -0.1127
      2 C2          3.0731    3.3967    0.0222 C.ar      1 <0>        -0.1382
      3 C3          3.0202    2.0304   -0.1769 C.ar      1 <0>        -0.0756
      4 C4          1.8036    1.3761   -0.1776 C.ar      1 <0>        -0.1472
      5 C5          0.6275    2.0924    0.0098 C.ar      1 <0>         0.1689
      6 C6          0.6771    3.4644    0.2096 C.ar      1 <0>        -0.1571
      7 C7          1.9015    4.1179    0.2158 C.ar      1 <0>         0.1918
      8 N1          1.9558    5.5005    0.4163 N.pl3     1 <0>        -0.6429
      9 C8          0.8615    6.2896    0.1016 C.ar      1 <0>         0.5681
     10 N2         -0.1777    5.7384   -0.5091 N.ar      1 <0>        -0.5557
     11 C9         -1.2418    6.4584   -0.8265 C.ar      1 <0>         0.1929
     12 C10        -1.2649    7.8063   -0.5140 C.ar      1 <0>        -0.2734
     13 C11        -0.1550    8.3594    0.1298 C.ar      1 <0>         0.2659
     14 N3          0.8784    7.5733    0.4233 N.ar      1 <0>        -0.5603
     15 C12        -0.1313    9.7987    0.4864 C.ar      1 <0>        -0.1156
     16 C13         0.9790   10.3529    1.1306 C.ar      1 <0>        -0.0278
     17 C14         0.9518   11.7012    1.4420 C.ar      1 <0>        -0.1783
     18 C15        -0.1623   12.4502    1.1091 C.ar      1 <0>         0.1162
     19 N4         -1.1953   11.8994    0.5013 N.ar      1 <0>        -0.4848
     20 C16        -1.2128   10.6220    0.1798 C.ar      1 <0>         0.1327
     21 N5         -0.6041    1.4301    0.0028 N.am      1 <0>        -0.6756
     22 C17        -0.7538    0.2931   -0.7053 C.2       1 <0>         0.5603
     23 O1          0.1506   -0.1059   -1.4128 O.2       1 <0>        -0.5143
     24 C18        -2.0177   -0.4688   -0.6215 C.ar      1 <0>        -0.1253
     25 C19        -3.0561   -0.0165    0.1945 C.ar      1 <0>        -0.0852
     26 C20        -4.2350   -0.7295    0.2641 C.ar      1 <0>        -0.1056
     27 C21        -4.3852   -1.8966   -0.4637 C.ar      1 <0>        -0.0800
     28 C22        -3.3580   -2.3532   -1.2704 C.ar      1 <0>        -0.1051
     29 C23        -2.1760   -1.6467   -1.3535 C.ar      1 <0>        -0.0569
     30 C24        -5.6736   -2.6736   -0.3779 C.3       1 <0>        -0.0021
     31 Cl1        -5.5614   -3.8775    0.9596 Cl        1 <0>        -0.1679
     32 H1          5.2084    3.3752   -0.1390 H         1 <0>         0.0713
     33 H2          4.5512    4.5978    1.0012 H         1 <0>         0.0649
     34 H3          4.4201    4.8605   -0.7710 H         1 <0>         0.0662
     35 H4          3.9323    1.4721   -0.3272 H         1 <0>         0.1286
     36 H5          1.7660    0.3073   -0.3283 H         1 <0>         0.1394
     37 H6         -0.2351    4.0227    0.3602 H         1 <0>         0.1508
     38 H7          2.8674    5.9618    0.8239 H         1 <0>         0.4492
     39 H8         -2.0829    5.9991   -1.3244 H         1 <0>         0.1732
     40 H9         -2.1207    8.4165   -0.7621 H         1 <0>         0.1493
     41 H10         1.8358    9.7443    1.3792 H         1 <0>         0.1467
     42 H11         1.7917   12.1635    1.9392 H         1 <0>         0.1423
     43 H12        -0.1867   13.5027    1.3503 H         1 <0>         0.1618
     44 H13        -2.0752   10.2082   -0.3217 H         1 <0>         0.1623
     45 H14        -1.4507    1.8371    0.5752 H         1 <0>         0.4308
     46 H15        -2.9383    0.8918    0.7669 H         1 <0>         0.1291
     47 H16        -5.0410   -0.3782    0.8913 H         1 <0>         0.1338
     48 H17        -3.4819   -3.2646   -1.8365 H         1 <0>         0.1349
     49 H18        -1.3751   -2.0041   -1.9838 H         1 <0>         0.1413
     50 H19        -6.5061   -1.9824   -0.1802 H         1 <0>         0.1072
     51 H20        -5.8499   -3.1974   -1.3290 H         1 <0>         0.1075
@<TRIPOS>BOND
     1    1    2 1
     2    1   32 1
     3    1   33 1
     4    1   34 1
     5    2    7 ar
     6    2    3 ar
     7    3    4 ar
     8    3   35 1
     9    4    5 ar
    10    4   36 1
    11    5    6 ar
    12    5   21 1
    13    6    7 ar
    14    6   37 1
    15    7    8 1
    16    8    9 1
    17    8   38 1
    18    9   14 ar
    19    9   10 ar
    20   10   11 ar
    21   11   12 ar
    22   11   39 1
    23   12   13 ar
    24   12   40 1
    25   13   14 ar
    26   13   15 1
    27   15   20 ar
    28   15   16 ar
    29   16   17 ar
    30   16   41 1
    31   17   18 ar
    32   17   42 1
    33   18   19 ar
    34   18   43 1
    35   19   20 ar
    36   20   44 1
    37   21   22 am
    38   21   45 1
    39   22   23 2
    40   22   24 1
    41   24   29 ar
    42   24   25 ar
    43   25   26 ar
    44   25   46 1
    45   26   27 ar
    46   26   47 1
    47   27   28 ar
    48   27   30 1
    49   28   29 ar
    50   28   48 1
    51   29   49 1
    52   30   31 1
    53   30   50 1
    54   30   51 1
@<TRIPOS>MOLECULE
ZINC01490414
   52    55     0     0     0
SMALL
USER_CHARGES

@<TRIPOS>ATOM
      1 C1         -0.6644    0.1999    2.1288 C.3       1 <0>         0.0227
      2 O1         -0.2490   -0.4837    0.9447 O.3       1 <0>        -0.3014
      3 C2         -1.1008   -0.4563   -0.1150 C.ar      1 <0>         0.1144
      4 C3         -2.2870    0.2111   -0.0113 C.ar      1 <0>        -0.1551
      5 C4         -3.1654    0.2398   -1.1048 C.ar      1 <0>        -0.1058
      6 C5         -4.4014    0.9209   -1.0345 C.ar      1 <0>         0.1817
      7 C6         -5.2152    0.9056   -2.1537 C.ar      1 <0>        -0.2659
      8 C7         -4.8020    0.2326   -3.2965 C.ar      1 <0>         0.1644
      9 N1         -3.6520   -0.3973   -3.3510 N.ar      1 <0>        -0.4922
     10 C8         -2.8156   -0.4230   -2.3065 C.ar      1 <0>         0.1715
     11 C9         -1.5880   -1.1016   -2.3822 C.ar      1 <0>        -0.1796
     12 C10        -0.7492   -1.1089   -1.3052 C.ar      1 <0>         0.1517
     13 O2          0.4396   -1.7622   -1.3857 O.3       1 <0>        -0.2996
     14 C11         0.7423   -2.4082   -2.6238 C.3       1 <0>         0.0208
     15 O3         -4.7788    1.5691    0.0950 O.3       1 <0>        -0.2423
     16 C12        -5.9332    2.2865    0.0637 C.ar      1 <0>         0.0933
     17 C13        -7.1567    1.6337    0.1091 C.ar      1 <0>        -0.1160
     18 C14        -8.3303    2.3611    0.0779 C.ar      1 <0>        -0.0775
     19 C15        -8.2868    3.7461    0.0011 C.ar      1 <0>         0.1383
     20 C16        -7.0610    4.4008   -0.0445 C.ar      1 <0>         0.0922
     21 C17        -5.8871    3.6713   -0.0078 C.ar      1 <0>        -0.1324
     22 F1         -7.0171    5.7490   -0.1193 F         1 <0>        -0.1274
     23 N2         -9.4784    4.4849   -0.0311 N.am      1 <0>        -0.6761
     24 C18       -10.5534    4.0603    0.6621 C.2       1 <0>         0.7120
     25 O4        -10.5151    2.9983    1.2531 O.2       1 <0>        -0.5493
     26 N3        -11.6709    4.8128    0.7002 N.am      1 <0>        -0.6751
     27 C19       -12.7444    4.4326    1.5175 C.ar      1 <0>         0.1221
     28 C20       -12.5052    3.8002    2.7295 C.ar      1 <0>        -0.0630
     29 C21       -13.5643    3.4266    3.5341 C.ar      1 <0>        -0.1392
     30 C22       -14.8647    3.6822    3.1328 C.ar      1 <0>         0.1191
     31 C23       -15.1074    4.3124    1.9242 C.ar      1 <0>        -0.1703
     32 C24       -14.0502    4.6935    1.1180 C.ar      1 <0>         0.1058
     33 F2        -14.2863    5.3139   -0.0587 F         1 <0>        -0.1272
     34 F3        -15.8983    3.3156    3.9218 F         1 <0>        -0.1280
     35 H1          0.1046    0.0999    2.8948 H         1 <0>         0.1051
     36 H2         -0.8183    1.2553    1.9040 H         1 <0>         0.0581
     37 H3         -1.5965   -0.2342    2.4909 H         1 <0>         0.0585
     38 H4         -2.5481    0.7142    0.9080 H         1 <0>         0.1494
     39 H5         -6.1676    1.4145   -2.1385 H         1 <0>         0.1425
     40 H6         -5.4452    0.2272   -4.1641 H         1 <0>         0.1633
     41 H7         -1.3066   -1.6122   -3.2913 H         1 <0>         0.1544
     42 H8         -0.0191   -3.1581   -2.8381 H         1 <0>         0.0610
     43 H9          0.7596   -1.6689   -3.4246 H         1 <0>         0.0608
     44 H10         1.7174   -2.8902   -2.5533 H         1 <0>         0.1059
     45 H11        -7.1913    0.5559    0.1685 H         1 <0>         0.1459
     46 H12        -9.2822    1.8520    0.1129 H         1 <0>         0.1632
     47 H13        -4.9344    4.1791   -0.0390 H         1 <0>         0.1526
     48 H14        -9.5289    5.3014   -0.5523 H         1 <0>         0.4156
     49 H15       -11.7323    5.6175    0.1620 H         1 <0>         0.4151
     50 H16       -11.4914    3.6000    3.0434 H         1 <0>         0.1568
     51 H17       -13.3777    2.9342    4.4770 H         1 <0>         0.1498
     52 H18       -16.1224    4.5102    1.6127 H         1 <0>         0.1554
@<TRIPOS>BOND
     1    1    2 1
     2    1   35 1
     3    1   36 1
     4    1   37 1
     5    2    3 1
     6    3   12 ar
     7    3    4 ar
     8    4    5 ar
     9    4   38 1
    10    5   10 ar
    11    5    6 ar
    12    6    7 ar
    13    6   15 1
    14    7    8 ar
    15    7   39 1
    16    8    9 ar
    17    8   40 1
    18    9   10 ar
    19   10   11 ar
    20   11   12 ar
    21   11   41 1
    22   12   13 1
    23   13   14 1
    24   14   42 1
    25   14   43 1
    26   14   44 1
    27   15   16 1
    28   16   21 ar
    29   16   17 ar
    30   17   18 ar
    31   17   45 1
    32   18   19 ar
    33   18   46 1
    34   19   20 ar
    35   19   23 1
    36   20   21 ar
    37   20   22 1
    38   21   47 1
    39   23   24 am
    40   23   48 1
    41   24   25 2
    42   24   26 am
    43   26   27 1
    44   26   49 1
    45   27   32 ar
    46   27   28 ar
    47   28   29 ar
    48   28   50 1
    49   29   30 ar
    50   29   51 1
    51   30   31 ar
    52   30   34 1
    53   31   32 ar
    54   31   52 1
    55   32   33 1
@<TRIPOS>MOLECULE
ZINC34842284
   60    64     0     0     0
SMALL
USER_CHARGES

@<TRIPOS>ATOM
      1 C1         -0.0178    1.4608    0.0101 C.3       1 <0>         0.0965
      2 N1          0.0021   -0.0041    0.0020 N.pl3     1 <0>        -0.3671
      3 C2          0.0078   -0.7883   -1.0945 C.2       1 <0>         0.0815
      4 C3          0.0278   -2.0866   -0.6734 C.2       1 <0>        -0.2075
      5 C4          0.0343   -2.0758    0.7354 C.2       1 <0>         0.0682
      6 N2          0.0245   -0.8308    1.1317 N.2       1 <0>        -0.2890
      7 C5          0.0397   -3.2901   -1.5414 C.ar      1 <0>        -0.0366
      8 C6          0.0543   -4.5644   -0.9807 C.ar      1 <0>        -0.0385
      9 C7          0.0802   -5.6649   -1.8426 C.ar      1 <0>        -0.1799
     10 C8          0.1229   -5.4562   -3.2387 C.ar      1 <0>         0.1790
     11 C9          0.2532   -6.5705   -4.1609 C.2       1 <0>        -0.0928
     12 C10        -0.3414   -7.7510   -4.0859 C.2       1 <0>        -0.0827
     13 C11        -1.2649   -8.2108   -3.0641 C.ar      1 <0>        -0.0205
     14 C12        -2.3865   -8.9737   -3.4314 C.ar      1 <0>        -0.0788
     15 C13        -3.2359   -9.4502   -2.4792 C.ar      1 <0>        -0.1379
     16 C14        -3.0081   -9.1944   -1.1257 C.ar      1 <0>         0.1494
     17 C15        -1.9219   -8.4304   -0.7344 C.ar      1 <0>        -0.0939
     18 C16        -1.0553   -7.9152   -1.6995 C.ar      1 <0>        -0.1193
     19 C17         0.0500   -7.0298   -1.2992 C.2       1 <0>         0.4578
     20 O1          0.9175   -7.4185   -0.5376 O.2       1 <0>        -0.4210
     21 N3         -3.8773   -9.7097   -0.1653 N.pl3     1 <0>        -1.0655
     22 S1         -4.3812  -11.2840   -0.2641 S.o2      1 <0>         2.7793
     23 O2         -5.2247  -11.5116    0.8566 O.2       1 <0>        -0.9610
     24 O3         -4.8189  -11.4872   -1.6007 O.2       1 <0>        -0.9643
     25 N4         -3.0455  -12.2399   -0.0531 N.pl3     1 <0>        -0.9947
     26 C18        -2.6613  -12.6751    1.2920 C.3       1 <0>         0.0938
     27 C19        -2.2480  -12.6502   -1.2115 C.3       1 <0>         0.1210
     28 C20        -1.0763  -11.6831   -1.3923 C.3       1 <0>         0.0178
     29 H1         -1.4536  -10.6631   -1.4645 H         1 <0>         0.0816
     30 C21        -0.3126  -12.0380   -2.6715 C.3       1 <0>         0.0320
     31 O4          0.8442  -11.2023   -2.7746 O.3       1 <0>        -0.3693
     32 C22         1.7288  -11.3082   -1.6551 C.3       1 <0>         0.0253
     33 C23         0.9651  -10.9534   -0.3760 C.3       1 <0>         0.0211
     34 O5         -0.1924  -11.7879   -0.2721 O.3       1 <0>        -0.3671
     35 N5          0.0651   -4.2087   -3.7198 N.ar      1 <0>        -0.4628
     36 C24         0.0305   -3.1599   -2.9350 C.ar      1 <0>         0.1258
     37 H2          1.0048    1.8381    0.0023 H         1 <0>         0.0802
     38 H3         -0.5450    1.8219   -0.8730 H         1 <0>         0.0921
     39 H4         -0.5280    1.8123    0.9069 H         1 <0>         0.0936
     40 H5         -0.0021   -0.4506   -2.1203 H         1 <0>         0.1820
     41 H6          0.0494   -2.9451    1.3761 H         1 <0>         0.1866
     42 H7          0.0463   -4.6991    0.0909 H         1 <0>         0.1426
     43 H8          0.9100   -6.4187   -5.0047 H         1 <0>         0.1374
     44 H9         -0.1138   -8.4521   -4.8752 H         1 <0>         0.1386
     45 H10        -2.5760   -9.1830   -4.4738 H         1 <0>         0.1447
     46 H11        -4.0961  -10.0325   -2.7747 H         1 <0>         0.1659
     47 H12        -1.7458   -8.2343    0.3129 H         1 <0>         0.1371
     48 H13        -4.1869   -9.1460    0.5609 H         1 <0>         0.4277
     49 H14        -3.1500  -13.6222    1.5208 H         1 <0>         0.0607
     50 H15        -1.5799  -12.8040    1.3372 H         1 <0>         0.0884
     51 H16        -2.9683  -11.9229    2.0187 H         1 <0>         0.0679
     52 H17        -1.8656  -13.6582   -1.0506 H         1 <0>         0.0981
     53 H18        -2.8717  -12.6365   -2.1052 H         1 <0>         0.1107
     54 H19        -0.0048  -13.0830   -2.6340 H         1 <0>         0.0632
     55 H20        -0.9562  -11.8775   -3.5364 H         1 <0>         0.1055
     56 H21         2.1052  -12.3286   -1.5835 H         1 <0>         0.0597
     57 H22         2.5636  -10.6192   -1.7840 H         1 <0>         0.1035
     58 H23         1.6087  -11.1138    0.4889 H         1 <0>         0.1029
     59 H24         0.6574   -9.9084   -0.4134 H         1 <0>         0.0696
     60 H25        -0.0017   -2.1732   -3.3730 H         1 <0>         0.1615
@<TRIPOS>BOND
     1    1    2 1
     2    1   37 1
     3    1   38 1
     4    1   39 1
     5    2    6 1
     6    2    3 1
     7    3    4 2
     8    3   40 1
     9    4    5 1
    10    4    7 1
    11    5    6 2
    12    5   41 1
    13    7   36 ar
    14    7    8 ar
    15    8    9 ar
    16    8   42 1
    17    9   19 1
    18    9   10 ar
    19   10   11 1
    20   10   35 ar
    21   11   12 2
    22   11   43 1
    23   12   13 1
    24   12   44 1
    25   13   18 ar
    26   13   14 ar
    27   14   15 ar
    28   14   45 1
    29   15   16 ar
    30   15   46 1
    31   16   17 ar
    32   16   21 1
    33   17   18 ar
    34   17   47 1
    35   18   19 1
    36   19   20 2
    37   21   22 1
    38   21   48 1
    39   22   23 2
    40   22   24 2
    41   22   25 1
    42   25   26 1
    43   25   27 1
    44   26   49 1
    45   26   50 1
    46   26   51 1
    47   27   28 1
    48   27   52 1
    49   27   53 1
    50   28   29 1
    51   28   34 1
    52   28   30 1
    53   30   31 1
    54   30   54 1
    55   30   55 1
    56   31   32 1
    57   32   33 1
    58   32   56 1
    59   32   57 1
    60   33   34 1
    61   33   58 1
    62   33   59 1
    63   35   36 ar
    64   36   60 1
@<TRIPOS>MOLECULE
ZINC34842284
   59    63     0     0     0
SMALL
USER_CHARGES

@<TRIPOS>ATOM
      1 C1         -0.0178    1.4608    0.0101 C.3       1 <0>         0.1007
      2 N1          0.0021   -0.0041    0.0020 N.pl3     1 <0>        -0.3736
      3 C2          0.0078   -0.7883   -1.0945 C.2       1 <0>         0.0703
      4 C3          0.0278   -2.0866   -0.6734 C.2       1 <0>        -0.1902
      5 C4          0.0343   -2.0758    0.7354 C.2       1 <0>         0.0673
      6 N2          0.0245   -0.8308    1.1317 N.2       1 <0>        -0.2943
      7 C5          0.0397   -3.2901   -1.5414 C.ar      1 <0>        -0.0608
      8 C6          0.0543   -4.5644   -0.9807 C.ar      1 <0>        -0.0333
      9 C7          0.0802   -5.6649   -1.8426 C.ar      1 <0>        -0.1792
     10 C8          0.1229   -5.4562   -3.2387 C.ar      1 <0>         0.2045
     11 C9          0.2532   -6.5705   -4.1609 C.2       1 <0>        -0.1592
     12 C10        -0.3414   -7.7510   -4.0859 C.2       1 <0>        -0.0231
     13 C11        -1.2649   -8.2108   -3.0641 C.ar      1 <0>        -0.1647
     14 C12        -2.3865   -8.9737   -3.4314 C.ar      1 <0>        -0.0353
     15 C13        -3.2359   -9.4502   -2.4792 C.ar      1 <0>        -0.2465
     16 C14        -3.0081   -9.1944   -1.1257 C.ar      1 <0>         0.3005
     17 C15        -1.9219   -8.4304   -0.7344 C.ar      1 <0>        -0.1500
     18 C16        -1.0553   -7.9152   -1.6995 C.ar      1 <0>        -0.0837
     19 C17         0.0500   -7.0298   -1.2992 C.2       1 <0>         0.4609
     20 O1          0.9175   -7.4185   -0.5376 O.2       1 <0>        -0.4397
     21 N3         -3.8773   -9.7097   -0.1653 N.2       1 <0>        -1.0971
     22 S1         -5.1776  -10.6235   -0.6305 S.o2      1 <0>         2.7153
     23 O2         -6.0456   -9.7582   -1.3496 O.2       1 <0>        -1.0429
     24 O3         -4.6537  -11.8178   -1.1947 O.2       1 <0>        -1.0457
     25 N4         -5.9839  -11.0648    0.7470 N.pl3     1 <0>        -0.9885
     26 C18        -7.0496  -10.2109    1.2774 C.3       1 <0>         0.1091
     27 C19        -5.6314  -12.3092    1.4352 C.3       1 <0>         0.1365
     28 C20        -4.6323  -12.0078    2.5540 C.3       1 <0>         0.0329
     29 H1         -3.7717  -11.4810    2.1417 H         1 <0>         0.0873
     30 C21        -4.1704  -13.3198    3.1948 C.3       1 <0>         0.0320
     31 O4         -3.3244  -13.0250    4.3103 O.3       1 <0>        -0.3784
     32 C22        -3.9524  -12.2119    5.3061 C.3       1 <0>         0.0246
     33 C23        -4.4143  -10.8999    4.6653 C.3       1 <0>         0.0237
     34 O5         -5.2598  -11.1934    3.5490 O.3       1 <0>        -0.3667
     35 N5          0.0651   -4.2087   -3.7198 N.ar      1 <0>        -0.4751
     36 C24         0.0305   -3.1599   -2.9350 C.ar      1 <0>         0.1218
     37 H2          1.0048    1.8381    0.0023 H         1 <0>         0.0758
     38 H3         -0.5450    1.8219   -0.8730 H         1 <0>         0.0888
     39 H4         -0.5280    1.8123    0.9069 H         1 <0>         0.0902
     40 H5         -0.0021   -0.4506   -2.1203 H         1 <0>         0.1795
     41 H6          0.0494   -2.9451    1.3761 H         1 <0>         0.1876
     42 H7          0.0463   -4.6991    0.0909 H         1 <0>         0.1396
     43 H8          0.9100   -6.4187   -5.0047 H         1 <0>         0.1239
     44 H9         -0.1138   -8.4521   -4.8752 H         1 <0>         0.1183
     45 H10        -2.5760   -9.1830   -4.4738 H         1 <0>         0.1151
     46 H11        -4.0961  -10.0325   -2.7747 H         1 <0>         0.1021
     47 H12        -1.7458   -8.2343    0.3129 H         1 <0>         0.1215
     48 H13        -8.0037  -10.5080    0.8422 H         1 <0>         0.0404
     49 H14        -7.0955  -10.3181    2.3611 H         1 <0>         0.0728
     50 H15        -6.8424   -9.1713    1.0236 H         1 <0>         0.0649
     51 H16        -6.5299  -12.7559    1.8610 H         1 <0>         0.0781
     52 H17        -5.1826  -13.0029    0.7243 H         1 <0>         0.1032
     53 H18        -5.0384  -13.8845    3.5350 H         1 <0>         0.0590
     54 H19        -3.6164  -13.9075    2.4628 H         1 <0>         0.1068
     55 H20        -4.8131  -12.7393    5.7173 H         1 <0>         0.0563
     56 H21        -3.2406  -11.9973    6.1031 H         1 <0>         0.1003
     57 H22        -4.9682  -10.3122    5.3973 H         1 <0>         0.0994
     58 H23        -3.5462  -10.3353    4.3251 H         1 <0>         0.0629
     59 H24        -0.0017   -2.1732   -3.3730 H         1 <0>         0.1540
@<TRIPOS>BOND
     1    1    2 1
     2    1   37 1
     3    1   38 1
     4    1   39 1
     5    2    6 1
     6    2    3 1
     7    3    4 2
     8    3   40 1
     9    4    5 1
    10    4    7 1
    11    5    6 2
    12    5   41 1
    13    7   36 ar
    14    7    8 ar
    15    8    9 ar
    16    8   42 1
    17    9   19 1
    18    9   10 ar
    19   10   11 1
    20   10   35 ar
    21   11   12 2
    22   11   43 1
    23   12   13 1
    24   12   44 1
    25   13   18 ar
    26   13   14 ar
    27   14   15 ar
    28   14   45 1
    29   15   16 ar
    30   15   46 1
    31   16   17 ar
    32   16   21 1
    33   17   18 ar
    34   17   47 1
    35   18   19 1
    36   19   20 2
    37   21   22 1
    38   22   23 2
    39   22   24 2
    40   22   25 1
    41   25   26 1
    42   25   27 1
    43   26   48 1
    44   26   49 1
    45   26   50 1
    46   27   28 1
    47   27   51 1
    48   27   52 1
    49   28   29 1
    50   28   34 1
    51   28   30 1
    52   30   31 1
    53   30   53 1
    54   30   54 1
    55   31   32 1
    56   32   33 1
    57   32   55 1
    58   32   56 1
    59   33   34 1
    60   33   57 1
    61   33   58 1
    62   35   36 ar
    63   36   59 1
@<TRIPOS>MOLECULE
ZINC72105034
   70    73     0     0     0
SMALL
USER_CHARGES

@<TRIPOS>ATOM
      1 C1         -3.0465   -3.1127   14.8741 C.3       1 <0>        -0.1892
      2 C2         -3.2466   -2.2549   13.6230 C.3       1 <0>        -0.0108
      3 N1         -4.1264   -2.9600   12.6814 N.4       1 <0>        -0.3829
      4 C3         -3.4647   -4.1874   12.2214 C.3       1 <0>        -0.0274
      5 C4         -4.4254   -4.9810   11.3297 C.3       1 <0>         0.1010
      6 N2         -4.8919   -4.1005   10.2474 N.pl3     1 <0>        -0.6456
      7 C5         -5.4217   -2.7770   10.6103 C.3       1 <0>         0.1015
      8 C6         -4.4140   -2.0875   11.5359 C.3       1 <0>        -0.0220
      9 C7         -4.8337   -4.5106    8.9106 C.ar      1 <0>         0.1766
     10 C8         -4.2262   -5.7148    8.5795 C.ar      1 <0>        -0.1629
     11 C9         -4.1692   -6.1195    7.2606 C.ar      1 <0>        -0.0646
     12 C10        -4.7193   -5.3226    6.2653 C.ar      1 <0>         0.1310
     13 C11        -5.3268   -4.1185    6.5964 C.ar      1 <0>        -0.1041
     14 C12        -5.3885   -3.7162    7.9158 C.ar      1 <0>        -0.1629
     15 N3         -4.6611   -5.7330    4.9274 N.pl3     1 <0>        -0.6533
     16 C13        -4.7431   -7.0808    4.6114 C.ar      1 <0>         0.4484
     17 C14        -4.5642   -7.5111    3.2990 C.ar      1 <0>        -0.3232
     18 C15        -4.6563   -8.8727    3.0342 C.ar      1 <0>         0.4562
     19 N4         -4.9104   -9.7105    4.0371 N.ar      1 <0>        -0.5358
     20 C16        -5.0737   -9.2649    5.2660 C.ar      1 <0>         0.3663
     21 N5         -4.9887   -7.9832    5.5591 N.ar      1 <0>        -0.5884
     22 N6         -4.4859   -9.3527    1.7400 N.am      1 <0>        -0.5513
     23 C17        -4.0993   -8.4367    0.6640 C.3       1 <0>         0.0633
     24 C18        -4.6764  -10.6605    1.4758 C.2       1 <0>         0.6965
     25 O1         -4.9972  -11.4206    2.3688 O.2       1 <0>        -0.4771
     26 N7         -4.5113  -11.1256    0.2217 N.am      1 <0>        -0.6806
     27 C19        -4.5933  -12.5005   -0.0317 C.ar      1 <0>         0.2488
     28 C20        -3.5635  -13.1459   -0.7035 C.ar      1 <0>        -0.1156
     29 C21        -3.6457  -14.5077   -0.9540 C.ar      1 <0>         0.1985
     30 C22        -4.7561  -15.2246   -0.5342 C.ar      1 <0>        -0.2856
     31 C23        -5.7851  -14.5810    0.1368 C.ar      1 <0>         0.1981
     32 C24        -5.7020  -13.2205    0.3937 C.ar      1 <0>        -0.0913
     33 Cl1        -6.9867  -12.4166    1.2405 Cl        1 <0>        -0.0174
     34 O2         -6.8731  -15.2849    0.5478 O.3       1 <0>        -0.2934
     35 C25        -6.8895  -16.6834    0.2548 C.3       1 <0>         0.0217
     36 O3         -2.6377  -15.1397   -1.6116 O.3       1 <0>        -0.2949
     37 C26        -2.7887  -16.5430   -1.8355 C.3       1 <0>         0.0219
     38 Cl2        -2.1738  -12.2486   -1.2302 Cl        1 <0>        -0.0383
     39 H1         -2.3937   -2.5895   15.5727 H         1 <0>         0.1068
     40 H2         -4.0114   -3.2967   15.3466 H         1 <0>         0.0809
     41 H3         -2.5919   -4.0630   14.5941 H         1 <0>         0.0805
     42 H4         -3.7012   -1.3046   13.9030 H         1 <0>         0.1310
     43 H5         -2.2817   -2.0709   13.1505 H         1 <0>         0.1281
     44 H6         -2.5717   -3.9277   11.6528 H         1 <0>         0.1321
     45 H7         -3.1838   -4.7935   13.0827 H         1 <0>         0.1410
     46 H8         -3.9058   -5.8399   10.9049 H         1 <0>         0.1268
     47 H9         -5.2773   -5.3195   11.9194 H         1 <0>         0.0863
     48 H10        -5.5608   -2.1788    9.7098 H         1 <0>         0.1256
     49 H11        -6.3742   -2.8930   11.1273 H         1 <0>         0.0858
     50 H12        -4.8326   -1.1462   11.8921 H         1 <0>         0.1394
     51 H13        -3.4923   -1.8913   10.9881 H         1 <0>         0.1318
     52 H14        -3.7980   -6.3344    9.3535 H         1 <0>         0.1245
     53 H15        -3.6964   -7.0558    7.0031 H         1 <0>         0.1406
     54 H16        -5.7546   -3.4987    5.8223 H         1 <0>         0.1287
     55 H17        -5.8648   -2.7819    8.1738 H         1 <0>         0.1249
     56 H18        -4.5634   -5.0745    4.2219 H         1 <0>         0.4207
     57 H19        -4.3595   -6.8053    2.5076 H         1 <0>         0.1461
     58 H20        -5.2787   -9.9712    6.0569 H         1 <0>         0.2006
     59 H21        -3.0123   -8.3941    0.5961 H         1 <0>         0.0784
     60 H22        -4.5087   -8.7932   -0.2812 H         1 <0>         0.0834
     61 H23        -4.4893   -7.4413    0.8765 H         1 <0>         0.0916
     62 H24        -4.3356  -10.5081   -0.5055 H         1 <0>         0.4126
     63 H25        -4.8197  -16.2847   -0.7302 H         1 <0>         0.1546
     64 H26        -7.8108  -17.1238    0.6364 H         1 <0>         0.1096
     65 H27        -6.8368  -16.8293   -0.8241 H         1 <0>         0.0610
     66 H28        -6.0336  -17.1640    0.7287 H         1 <0>         0.0609
     67 H29        -3.6841  -16.7217   -2.4308 H         1 <0>         0.0613
     68 H30        -1.9165  -16.9218   -2.3683 H         1 <0>         0.1099
     69 H31        -2.8806  -17.0558   -0.8781 H         1 <0>         0.0610
     70 H32        -4.9899   -3.1998   13.1451 H         1 <0>         0.4221
@<TRIPOS>BOND
     1    1    2 1
     2    1   39 1
     3    1   40 1
     4    1   41 1
     5    2    3 1
     6    2   42 1
     7    2   43 1
     8    3    8 1
     9    3    4 1
    10    3   70 1
    11    4    5 1
    12    4   44 1
    13    4   45 1
    14    5    6 1
    15    5   46 1
    16    5   47 1
    17    6    7 1
    18    6    9 1
    19    7    8 1
    20    7   48 1
    21    7   49 1
    22    8   50 1
    23    8   51 1
    24    9   14 ar
    25    9   10 ar
    26   10   11 ar
    27   10   52 1
    28   11   12 ar
    29   11   53 1
    30   12   13 ar
    31   12   15 1
    32   13   14 ar
    33   13   54 1
    34   14   55 1
    35   15   16 1
    36   15   56 1
    37   16   21 ar
    38   16   17 ar
    39   17   18 ar
    40   17   57 1
    41   18   19 ar
    42   18   22 1
    43   19   20 ar
    44   20   21 ar
    45   20   58 1
    46   22   23 1
    47   22   24 am
    48   23   59 1
    49   23   60 1
    50   23   61 1
    51   24   25 2
    52   24   26 am
    53   26   27 1
    54   26   62 1
    55   27   32 ar
    56   27   28 ar
    57   28   29 ar
    58   28   38 1
    59   29   30 ar
    60   29   36 1
    61   30   31 ar
    62   30   63 1
    63   31   32 ar
    64   31   34 1
    65   32   33 1
    66   34   35 1
    67   35   64 1
    68   35   65 1
    69   35   66 1
    70   36   37 1
    71   37   67 1
    72   37   68 1
    73   37   69 1
@<TRIPOS>MOLECULE
ZINC72105034
   69    72     0     0     0
SMALL
USER_CHARGES

@<TRIPOS>ATOM
      1 C1         -3.4378   -3.9375   14.6684 C.3       1 <0>        -0.1502
      2 C2         -3.5006   -3.0159   13.4488 C.3       1 <0>         0.0503
      3 N1         -4.3406   -3.6313   12.4127 N.3       1 <0>        -0.5378
      4 C3         -3.7251   -4.8621   11.8984 C.3       1 <0>         0.0363
      5 C4         -4.7086   -5.5666   10.9578 C.3       1 <0>         0.1266
      6 N2         -5.1378   -4.6085    9.9278 N.pl3     1 <0>        -0.6321
      7 C5         -5.6391   -3.2963   10.3636 C.3       1 <0>         0.1276
      8 C6         -4.6190   -2.6811   11.3275 C.3       1 <0>         0.0396
      9 C7         -5.0714   -4.9369    8.5689 C.ar      1 <0>         0.2080
     10 C8         -4.4894   -6.1336    8.1714 C.ar      1 <0>        -0.1806
     11 C9         -4.4244   -6.4578    6.8309 C.ar      1 <0>        -0.0579
     12 C10        -4.9408   -5.5873    5.8801 C.ar      1 <0>         0.0956
     13 C11        -5.5227   -4.3907    6.2776 C.ar      1 <0>        -0.0967
     14 C12        -5.5926   -4.0689    7.6185 C.ar      1 <0>        -0.1814
     15 N3         -4.8743   -5.9160    4.5202 N.pl3     1 <0>        -0.6480
     16 C13        -4.9857   -7.2392    4.1204 C.ar      1 <0>         0.4532
     17 C14        -4.7996   -7.5924    2.7862 C.ar      1 <0>        -0.3285
     18 C15        -4.9221   -8.9324    2.4366 C.ar      1 <0>         0.4515
     19 N4         -5.2108   -9.8235    3.3827 N.ar      1 <0>        -0.5423
     20 C16        -5.3796   -9.4503    4.6347 C.ar      1 <0>         0.3655
     21 N5         -5.2667   -8.1917    5.0075 N.ar      1 <0>        -0.5828
     22 N6         -4.7461   -9.3361    1.1173 N.am      1 <0>        -0.5515
     23 C17        -4.3221   -8.3659    0.1048 C.3       1 <0>         0.0649
     24 C18        -4.9656  -10.6198    0.7705 C.2       1 <0>         0.6963
     25 O1         -5.3174  -11.4249    1.6108 O.2       1 <0>        -0.4774
     26 N7         -4.7950  -11.0110   -0.5080 N.am      1 <0>        -0.6824
     27 C19        -4.9079  -12.3651   -0.8468 C.ar      1 <0>         0.2515
     28 C20        -3.8855  -12.9943   -1.5448 C.ar      1 <0>        -0.1156
     29 C21        -3.9983  -14.3355   -1.8800 C.ar      1 <0>         0.1969
     30 C22        -5.1319  -15.0480   -1.5188 C.ar      1 <0>        -0.2867
     31 C23        -6.1535  -14.4206   -0.8218 C.ar      1 <0>         0.1972
     32 C24        -6.0399  -13.0811   -0.4802 C.ar      1 <0>        -0.0912
     33 Cl1        -7.3156  -12.2980    0.3991 Cl        1 <0>        -0.0151
     34 O2         -7.2642  -15.1202   -0.4683 O.3       1 <0>        -0.2933
     35 C25        -7.3116  -16.4972   -0.8473 C.3       1 <0>         0.0224
     36 O3         -2.9975  -14.9516   -2.5633 O.3       1 <0>        -0.2955
     37 C26        -3.1804  -16.3341   -2.8753 C.3       1 <0>         0.0225
     38 Cl2        -2.4668  -12.1023   -1.9981 Cl        1 <0>        -0.0388
     39 H1         -2.8146   -3.4808   15.4373 H         1 <0>         0.0601
     40 H2         -4.4435   -4.0912   15.0599 H         1 <0>         0.0642
     41 H3         -3.0108   -4.8971   14.3771 H         1 <0>         0.0548
     42 H4         -3.9276   -2.0563   13.7401 H         1 <0>         0.0754
     43 H5         -2.4950   -2.8622   13.0574 H         1 <0>         0.0324
     44 H6         -2.8150   -4.6131   11.3528 H         1 <0>         0.0373
     45 H7         -3.4816   -5.5223   12.7308 H         1 <0>         0.0881
     46 H8         -4.2176   -6.4171   10.4850 H         1 <0>         0.0867
     47 H9         -5.5752   -5.9086   11.5236 H         1 <0>         0.0692
     48 H10        -5.7633   -2.6458    9.4978 H         1 <0>         0.0853
     49 H11        -6.5952   -3.4200   10.8723 H         1 <0>         0.0688
     50 H12        -5.0237   -1.7596   11.7460 H         1 <0>         0.0847
     51 H13        -3.6964   -2.4625   10.7899 H         1 <0>         0.0375
     52 H14        -4.0875   -6.8104    8.9108 H         1 <0>         0.1239
     53 H15        -3.9715   -7.3882    6.5217 H         1 <0>         0.1333
     54 H16        -5.9244   -3.7138    5.5381 H         1 <0>         0.1213
     55 H17        -6.0491   -3.1403    7.9278 H         1 <0>         0.1240
     56 H18        -4.7504   -5.2181    3.8580 H         1 <0>         0.4169
     57 H19        -4.5666   -6.8448    2.0425 H         1 <0>         0.1434
     58 H20        -5.6130  -10.1984    5.3779 H         1 <0>         0.1992
     59 H21        -3.2335   -8.3472    0.0528 H         1 <0>         0.0766
     60 H22        -4.7274   -8.6529   -0.8655 H         1 <0>         0.0808
     61 H23        -4.6901   -7.3757    0.3737 H         1 <0>         0.0918
     62 H24        -4.5941  -10.3546   -1.1933 H         1 <0>         0.4120
     63 H25        -5.2193  -16.0921   -1.7808 H         1 <0>         0.1535
     64 H26        -7.2478  -16.5777   -1.9325 H         1 <0>         0.0599
     65 H27        -6.4745  -17.0279   -0.3938 H         1 <0>         0.0605
     66 H28        -8.2486  -16.9363   -0.5049 H         1 <0>         0.1088
     67 H29        -3.2981  -16.9023   -1.9526 H         1 <0>         0.0606
     68 H30        -4.0718  -16.4527   -3.4913 H         1 <0>         0.0604
     69 H31        -2.3108  -16.7017   -3.4200 H         1 <0>         0.1087
@<TRIPOS>BOND
     1    1    2 1
     2    1   39 1
     3    1   40 1
     4    1   41 1
     5    2    3 1
     6    2   42 1
     7    2   43 1
     8    3    8 1
     9    3    4 1
    10    4    5 1
    11    4   44 1
    12    4   45 1
    13    5    6 1
    14    5   46 1
    15    5   47 1
    16    6    7 1
    17    6    9 1
    18    7    8 1
    19    7   48 1
    20    7   49 1
    21    8   50 1
    22    8   51 1
    23    9   14 ar
    24    9   10 ar
    25   10   11 ar
    26   10   52 1
    27   11   12 ar
    28   11   53 1
    29   12   13 ar
    30   12   15 1
    31   13   14 ar
    32   13   54 1
    33   14   55 1
    34   15   16 1
    35   15   56 1
    36   16   21 ar
    37   16   17 ar
    38   17   18 ar
    39   17   57 1
    40   18   19 ar
    41   18   22 1
    42   19   20 ar
    43   20   21 ar
    44   20   58 1
    45   22   23 1
    46   22   24 am
    47   23   59 1
    48   23   60 1
    49   23   61 1
    50   24   25 2
    51   24   26 am
    52   26   27 1
    53   26   62 1
    54   27   32 ar
    55   27   28 ar
    56   28   29 ar
    57   28   38 1
    58   29   30 ar
    59   29   36 1
    60   30   31 ar
    61   30   63 1
    62   31   32 ar
    63   31   34 1
    64   32   33 1
    65   34   35 1
    66   35   64 1
    67   35   65 1
    68   35   66 1
    69   36   37 1
    70   37   67 1
    71   37   68 1
    72   37   69 1
@<TRIPOS>MOLECULE
ZINC03938688
   39    41     0     0     0
SMALL
USER_CHARGES

@<TRIPOS>ATOM
      1 C1         -0.0095    1.3826    0.0704 C.ar      1 <0>        -0.0343
      2 C2          0.5587    1.0580   -1.1482 C.ar      1 <0>        -0.1609
      3 C3          1.7655    0.3862   -1.1955 C.ar      1 <0>         0.1753
      4 C4          2.4129    0.0342   -0.0053 C.ar      1 <0>        -0.1954
      5 C5          1.8304    0.3669    1.2233 C.ar      1 <0>         0.1741
      6 C6          0.6231    1.0388    1.2514 C.ar      1 <0>        -0.1610
      7 F1          2.4463    0.0317    2.3781 F         1 <0>        -0.1212
      8 C7          3.6999   -0.6827   -0.0456 C.2       1 <0>         0.6210
      9 O1          4.7383   -0.0615   -0.1600 O.2       1 <0>        -0.4669
     10 N1          3.7255   -2.0272    0.0446 N.am      1 <0>        -0.3962
     11 C8          4.8314   -2.8210    0.1249 C.2       1 <0>         0.5948
     12 N2          4.4249   -4.0694    0.1979 N.2       1 <0>        -0.5873
     13 C9          3.0869   -4.1118    0.1675 C.2       1 <0>         0.5191
     14 N3          2.6183   -2.8904    0.0808 N.2       1 <0>        -0.3480
     15 N4          2.3148   -5.2702    0.2247 N.pl3     1 <0>        -0.6226
     16 C10         2.9267   -6.5079    0.4407 C.ar      1 <0>         0.2365
     17 C11         4.1432   -6.5760    1.1080 C.ar      1 <0>        -0.1584
     18 C12         4.7450   -7.8008    1.3202 C.ar      1 <0>         0.0098
     19 C13         4.1379   -8.9586    0.8692 C.ar      1 <0>        -0.7033
     20 C14         2.9269   -8.8944    0.2046 C.ar      1 <0>         0.0112
     21 C15         2.3170   -7.6734   -0.0063 C.ar      1 <0>        -0.1777
     22 S1          4.9094  -10.5191    1.1415 S.o2      1 <0>         2.7034
     23 O2          4.4084  -11.3993    0.1448 O.2       1 <0>        -0.9656
     24 O3          6.2977  -10.2630    1.3036 O.2       1 <0>        -0.9650
     25 N5          4.3605  -11.0895    2.5960 N.pl3     1 <0>        -1.2510
     26 N6          6.1422   -2.3912    0.1281 N.pl3     1 <0>        -0.7911
     27 F2          2.3185    0.0697   -2.3868 F         1 <0>        -0.1201
     28 H1         -0.9506    1.9116    0.0998 H         1 <0>         0.1546
     29 H2          0.0576    1.3300   -2.0654 H         1 <0>         0.1549
     30 H3          0.1721    1.2963    2.1984 H         1 <0>         0.1546
     31 H4          1.3525   -5.2176    0.1147 H         1 <0>         0.4325
     32 H5          4.6180   -5.6722    1.4601 H         1 <0>         0.1556
     33 H6          5.6909   -7.8544    1.8385 H         1 <0>         0.1456
     34 H7          2.4556   -9.8005   -0.1466 H         1 <0>         0.1475
     35 H8          1.3691   -7.6243   -0.5215 H         1 <0>         0.1387
     36 H9          3.7284  -10.5673    3.1145 H         1 <0>         0.4165
     37 H10         4.6709  -11.9458    2.9296 H         1 <0>         0.4206
     38 H11         6.3422   -1.4439    0.0694 H         1 <0>         0.4292
     39 H12         6.8640   -3.0364    0.1890 H         1 <0>         0.4303
@<TRIPOS>BOND
     1    1    6 ar
     2    1    2 ar
     3    1   28 1
     4    2    3 ar
     5    2   29 1
     6    3    4 ar
     7    3   27 1
     8    4    5 ar
     9    4    8 1
    10    5    6 ar
    11    5    7 1
    12    6   30 1
    13    8    9 2
    14    8   10 am
    15   10   14 1
    16   10   11 1
    17   11   12 2
    18   11   26 1
    19   12   13 1
    20   13   14 2
    21   13   15 1
    22   15   16 1
    23   15   31 1
    24   16   21 ar
    25   16   17 ar
    26   17   18 ar
    27   17   32 1
    28   18   19 ar
    29   18   33 1
    30   19   20 ar
    31   19   22 1
    32   20   21 ar
    33   20   34 1
    34   21   35 1
    35   22   23 2
    36   22   24 2
    37   22   25 1
    38   25   36 1
    39   25   37 1
    40   26   38 1
    41   26   39 1
@<TRIPOS>MOLECULE
ZINC12504479
   39    42     0     0     0
SMALL
USER_CHARGES
tert-butyl-fluoro-BLAHone
@<TRIPOS>ATOM
      1 C1          0.0306    7.5665   -1.3573 C.3       1 <0>        -0.1435
      2 C2         -0.0131    6.9316    0.0341 C.3       1 <0>         0.0141
      3 C3         -1.4663    6.6486    0.4201 C.3       1 <0>        -0.1303
      4 C4          0.6075    7.8907    1.0520 C.3       1 <0>        -0.1484
      5 C5          0.7640    5.6405    0.0218 C.2       1 <0>         0.2640
      6 N1          2.1200    5.5432    0.0086 N.pl3     1 <0>        -0.5660
      7 H1          2.7692    6.3038    0.0059 H         1 <0>         0.4300
      8 C6          2.4322    4.2055   -0.0004 C.ar      1 <0>         0.0707
      9 C7          3.6945    3.4726   -0.0160 C.ar      1 <0>        -0.0387
     10 C8          4.9179    4.1553   -0.0241 C.ar      1 <0>        -0.0830
     11 C9          6.0889    3.4567   -0.0382 C.ar      1 <0>        -0.1479
     12 C10         6.0877    2.0644   -0.0451 C.ar      1 <0>         0.1067
     13 C11         4.9015    1.3651   -0.0371 C.ar      1 <0>        -0.1434
     14 C12         3.6874    2.0596   -0.0226 C.ar      1 <0>         0.0348
     15 C13         2.4115    1.3424   -0.0138 C.ar      1 <0>        -0.1820
     16 C14         1.2049    2.0599    0.0016 C.ar      1 <0>         0.1180
     17 C15         1.2195    3.5214    0.0080 C.ar      1 <0>         0.0317
     18 N2          0.2386    4.4495    0.0214 N.2       1 <0>        -0.4565
     19 C16        -0.0162    1.3425    0.0094 C.2       1 <0>        -0.2034
     20 C17         0.0021   -0.0041    0.0020 C.2       1 <0>         0.1350
     21 N3          1.1742   -0.7011   -0.0125 N.am      1 <0>        -0.6142
     22 H2          1.1491   -1.6708   -0.0168 H         1 <0>         0.4195
     23 C18         2.3662   -0.0731   -0.0205 C.2       1 <0>         0.5428
     24 O1          3.3998   -0.7196   -0.0338 O.2       1 <0>        -0.5363
     25 F1          7.2604    1.3938   -0.0600 F         1 <0>        -0.1343
     26 H3         -0.4115    6.8833   -2.0824 H         1 <0>         0.0650
     27 H4         -0.5315    8.5004   -1.3483 H         1 <0>         0.0730
     28 H5          1.0659    7.7682   -1.6323 H         1 <0>         0.0547
     29 H6         -1.4974    6.1963    1.4114 H         1 <0>         0.0620
     30 H7         -2.0283    7.5824    0.4291 H         1 <0>         0.0642
     31 H8         -1.9084    5.9653   -0.3050 H         1 <0>         0.0701
     32 H9          1.6428    8.0923    0.7770 H         1 <0>         0.0535
     33 H10         0.0454    8.8245    1.0609 H         1 <0>         0.0757
     34 H11         0.5764    7.4384    2.0432 H         1 <0>         0.0638
     35 H12         4.9335    5.2351   -0.0195 H         1 <0>         0.1298
     36 H13         7.0282    3.9897   -0.0443 H         1 <0>         0.1393
     37 H14         4.9085    0.2852   -0.0418 H         1 <0>         0.1812
     38 H15        -0.9571    1.8725    0.0168 H         1 <0>         0.1577
     39 H16        -0.9330   -0.5444    0.0080 H         1 <0>         0.1706
@<TRIPOS>BOND
     1    1    2 1
     2    1   26 1
     3    1   27 1
     4    1   28 1
     5    2    3 1
     6    2    4 1
     7    2    5 1
     8    3   29 1
     9    3   30 1
    10    3   31 1
    11    4   32 1
    12    4   33 1
    13    4   34 1
    14    5   18 2
    15    5    6 1
    16    6    7 1
    17    6    8 1
    18    8   17 ar
    19    8    9 ar
    20    9   14 ar
    21    9   10 ar
    22   10   11 ar
    23   10   35 1
    24   11   12 ar
    25   11   36 1
    26   12   13 ar
    27   12   25 1
    28   13   14 ar
    29   13   37 1
    30   14   15 ar
    31   15   23 1
    32   15   16 ar
    33   16   17 ar
    34   16   19 1
    35   17   18 1
    36   19   20 2
    37   19   38 1
    38   20   21 1
    39   20   39 1
    40   21   22 1
    41   21   23 am
    42   23   24 2
@<TRIPOS>MOLECULE
ZINC16697102
   68    71     0     0     0
SMALL
USER_CHARGES

@<TRIPOS>ATOM
      1 C1          0.1414    1.0953    0.0252 C.3       1 <0>        -0.1879
      2 C2          0.0344   -0.4077    0.2904 C.3       1 <0>        -0.0179
      3 N1         -1.3805   -0.7845    0.4095 N.4       1 <0>        -0.3831
      4 C3         -1.4799   -2.1986    0.7946 C.3       1 <0>        -0.0114
      5 C4         -0.8914   -2.3887    2.1940 C.3       1 <0>        -0.1507
      6 C5         -0.9950   -3.8615    2.5951 C.3       1 <0>         0.0609
      7 O1         -0.4452   -4.0391    3.9021 O.3       1 <0>        -0.3065
      8 C6         -0.4595   -5.2979    4.4111 C.ar      1 <0>         0.1651
      9 C7         -0.9928   -6.3439    3.6526 C.ar      1 <0>        -0.2107
     10 C8         -1.0196   -7.6158    4.1389 C.ar      1 <0>        -0.0238
     11 C9         -0.5074   -7.8823    5.4144 C.ar      1 <0>        -0.2178
     12 C10         0.0354   -6.8287    6.1913 C.ar      1 <0>         0.2289
     13 C11         0.0571   -5.5307    5.6679 C.ar      1 <0>        -0.1455
     14 N2          0.5204   -7.1100    7.4103 N.ar      1 <0>        -0.5500
     15 C12         0.4909   -8.3384    7.8707 C.ar      1 <0>         0.3626
     16 N3         -0.0056   -9.3531    7.1820 N.ar      1 <0>        -0.5775
     17 C13        -0.5106   -9.1853    5.9662 C.ar      1 <0>         0.4884
     18 N4         -1.0254  -10.2523    5.2597 N.pl3     1 <0>        -0.5978
     19 C14        -1.0192  -11.5341    5.8239 C.2       1 <0>         0.2990
     20 C15        -0.5280  -11.8736    7.0950 C.2       1 <0>        -0.2355
     21 C16        -0.7031  -13.2037    7.2657 C.2       1 <0>         0.1068
     22 N5         -1.2824  -13.6919    6.1487 N.pl3     1 <0>        -0.4559
     23 H1         -1.5251  -14.6176    5.9907 H         1 <0>         0.4419
     24 N6         -1.4765  -12.6271    5.2595 N.2       1 <0>        -0.3116
     25 C17        -0.3191  -13.9996    8.4864 C.3       1 <0>        -0.0770
     26 C18        -1.4265  -13.9219    9.5056 C.2       1 <0>         0.5143
     27 O2         -2.4289  -13.2831    9.2644 O.2       1 <0>        -0.5002
     28 N7         -1.3030  -14.5622   10.6851 N.am      1 <0>        -0.6720
     29 C19        -2.2828  -14.4064   11.6717 C.ar      1 <0>         0.1711
     30 C20        -1.9219  -14.3818   13.0129 C.ar      1 <0>        -0.1532
     31 C21        -2.8902  -14.2274   13.9854 C.ar      1 <0>        -0.0700
     32 C22        -4.2191  -14.0976   13.6262 C.ar      1 <0>        -0.1667
     33 C23        -4.5833  -14.1215   12.2902 C.ar      1 <0>         0.1178
     34 C24        -3.6165  -14.2702   11.3118 C.ar      1 <0>        -0.1591
     35 F1         -5.8825  -13.9949   11.9421 F         1 <0>        -0.1354
     36 C25        -2.0519   -0.5800   -0.8810 C.3       1 <0>        -0.0098
     37 C26        -3.5535   -0.8247   -0.7191 C.3       1 <0>         0.0446
     38 O3         -4.1050    0.1610    0.1562 O.3       1 <0>        -0.5793
     39 H2          1.1903    1.3917    0.0323 H         1 <0>         0.1072
     40 H3         -0.2944    1.3246   -0.9472 H         1 <0>         0.0804
     41 H4         -0.3955    1.6404    0.8016 H         1 <0>         0.0817
     42 H5          0.4880   -0.9556   -0.5355 H         1 <0>         0.1307
     43 H6          0.5544   -0.6511    1.2170 H         1 <0>         0.1338
     44 H7         -2.5269   -2.5019    0.7965 H         1 <0>         0.1336
     45 H8         -0.9261   -2.8092    0.0814 H         1 <0>         0.1348
     46 H9          0.1556   -2.0854    2.1921 H         1 <0>         0.1011
     47 H10        -1.4452   -1.7781    2.9071 H         1 <0>         0.1012
     48 H11        -2.0419   -4.1648    2.5970 H         1 <0>         0.0752
     49 H12        -0.4411   -4.4721    1.8820 H         1 <0>         0.0757
     50 H13        -1.3888   -6.1408    2.6686 H         1 <0>         0.1349
     51 H14        -1.4346   -8.4154    3.5432 H         1 <0>         0.1334
     52 H15         0.4712   -4.7175    6.2456 H         1 <0>         0.1508
     53 H16         0.8901   -8.5298    8.8558 H         1 <0>         0.2027
     54 H17        -1.3916  -10.1149    4.3721 H         1 <0>         0.4252
     55 H18        -0.0885  -11.1933    7.8093 H         1 <0>         0.1852
     56 H19        -0.1563  -15.0401    8.2054 H         1 <0>         0.1142
     57 H20         0.5968  -13.5910    8.9133 H         1 <0>         0.1312
     58 H21        -0.5348  -15.1312   10.8499 H         1 <0>         0.4166
     59 H22        -0.8844  -14.4838   13.2950 H         1 <0>         0.1350
     60 H23        -2.6091  -14.2084   15.0280 H         1 <0>         0.1399
     61 H24        -4.9744  -13.9777   14.3888 H         1 <0>         0.1383
     62 H25        -3.8995  -14.2849   10.2696 H         1 <0>         0.1494
     63 H26        -1.8848    0.4425   -1.2196 H         1 <0>         0.1421
     64 H27        -1.6474   -1.2765   -1.6154 H         1 <0>         0.1431
     65 H28        -4.0394   -0.7588   -1.6926 H         1 <0>         0.0960
     66 H29        -3.7166   -1.8167   -0.2980 H         1 <0>         0.0707
     67 H30        -5.0389    0.0226    0.3657 H         1 <0>         0.4093
     68 H31        -1.8228   -0.2123    1.1131 H         1 <0>         0.4316
@<TRIPOS>BOND
     1    1    2 1
     2    1   39 1
     3    1   40 1
     4    1   41 1
     5    2    3 1
     6    2   42 1
     7    2   43 1
     8    3    4 1
     9    3   36 1
    10    3   68 1
    11    4    5 1
    12    4   44 1
    13    4   45 1
    14    5    6 1
    15    5   46 1
    16    5   47 1
    17    6    7 1
    18    6   48 1
    19    6   49 1
    20    7    8 1
    21    8   13 ar
    22    8    9 ar
    23    9   10 ar
    24    9   50 1
    25   10   11 ar
    26   10   51 1
    27   11   17 ar
    28   11   12 ar
    29   12   13 ar
    30   12   14 ar
    31   13   52 1
    32   14   15 ar
    33   15   16 ar
    34   15   53 1
    35   16   17 ar
    36   17   18 1
    37   18   19 1
    38   18   54 1
    39   19   24 2
    40   19   20 1
    41   20   21 2
    42   20   55 1
    43   21   22 1
    44   21   25 1
    45   22   23 1
    46   22   24 1
    47   25   26 1
    48   25   56 1
    49   25   57 1
    50   26   27 2
    51   26   28 am
    52   28   29 1
    53   28   58 1
    54   29   34 ar
    55   29   30 ar
    56   30   31 ar
    57   30   59 1
    58   31   32 ar
    59   31   60 1
    60   32   33 ar
    61   32   61 1
    62   33   34 ar
    63   33   35 1
    64   34   62 1
    65   36   37 1
    66   36   63 1
    67   36   64 1
    68   37   38 1
    69   37   65 1
    70   37   66 1
    71   38   67 1
@<TRIPOS>MOLECULE
ZINC16697102
   68    71     0     0     0
SMALL
USER_CHARGES

@<TRIPOS>ATOM
      1 C1          0.1009    1.0895    0.0671 C.3       1 <0>        -0.1880
      2 C2          0.0005   -0.4150    0.3267 C.3       1 <0>        -0.0178
      3 N1         -1.4127   -0.7982    0.4447 N.4       1 <0>        -0.3831
      4 C3         -1.5060   -2.2142    0.8244 C.3       1 <0>        -0.0114
      5 C4         -0.9163   -2.4070    2.2230 C.3       1 <0>        -0.1510
      6 C5         -1.0135   -3.8818    2.6185 C.3       1 <0>         0.0610
      7 O1         -0.4626   -4.0619    3.9247 O.3       1 <0>        -0.3058
      8 C6         -0.4714   -5.3227    4.4290 C.ar      1 <0>         0.1652
      9 C7         -1.0003   -6.3681    3.6667 C.ar      1 <0>        -0.2079
     10 C8         -1.0216   -7.6420    4.1481 C.ar      1 <0>        -0.0271
     11 C9         -0.5079   -7.9111    5.4225 C.ar      1 <0>        -0.2157
     12 C10         0.0306   -6.8581    6.2032 C.ar      1 <0>         0.2279
     13 C11         0.0466   -5.5580    5.6848 C.ar      1 <0>        -0.1434
     14 N2          0.5172   -7.1419    7.4211 N.ar      1 <0>        -0.5462
     15 C12         0.4930   -8.3722    7.8768 C.ar      1 <0>         0.3627
     16 N3          0.0007   -9.3864    7.1844 N.ar      1 <0>        -0.5729
     17 C13        -0.5054   -9.2161    5.9694 C.ar      1 <0>         0.4842
     18 N4         -1.0159  -10.2829    5.2588 N.pl3     1 <0>        -0.6133
     19 C14        -1.0041  -11.5601    5.8152 C.2       1 <0>         0.2975
     20 C15        -0.5278  -11.8985    7.0451 C.2       1 <0>        -0.2522
     21 C16        -0.7053  -13.2747    7.2096 C.2       1 <0>         0.0931
     22 N5         -1.2647  -13.7522    6.1276 N.2       1 <0>        -0.2441
     23 N6         -1.4709  -12.6946    5.2325 N.pl3     1 <0>        -0.4898
     24 H1         -1.8732  -12.7611    4.3523 H         1 <0>         0.4364
     25 C17        -0.3175  -14.0738    8.4270 C.3       1 <0>        -0.0571
     26 C18        -1.5188  -14.8275    8.9368 C.2       1 <0>         0.5153
     27 O2         -2.5849  -14.7257    8.3676 O.2       1 <0>        -0.4982
     28 N7         -1.4084  -15.6146   10.0253 N.am      1 <0>        -0.6749
     29 C19        -2.5443  -16.2321   10.5602 C.ar      1 <0>         0.1739
     30 C20        -2.6655  -16.3952   11.9344 C.ar      1 <0>        -0.1553
     31 C21        -3.7876  -17.0044   12.4607 C.ar      1 <0>        -0.0709
     32 C22        -4.7909  -17.4530   11.6216 C.ar      1 <0>        -0.1690
     33 C23        -4.6742  -17.2924   10.2511 C.ar      1 <0>         0.1173
     34 C24        -3.5547  -16.6775    9.7191 C.ar      1 <0>        -0.1594
     35 F1         -5.6558  -17.7320    9.4336 F         1 <0>        -0.1360
     36 C25        -2.0854   -0.5918   -0.8449 C.3       1 <0>        -0.0099
     37 C26        -3.5858   -0.8435   -0.6835 C.3       1 <0>         0.0446
     38 O3         -4.1414    0.1365    0.1957 O.3       1 <0>        -0.5792
     39 H2          1.1486    1.3904    0.0751 H         1 <0>         0.1074
     40 H3         -0.3361    1.3206   -0.9043 H         1 <0>         0.0805
     41 H4         -0.4380    1.6293    0.8457 H         1 <0>         0.0817
     42 H5          0.4562   -0.9578   -0.5014 H         1 <0>         0.1308
     43 H6          0.5217   -0.6596    1.2522 H         1 <0>         0.1337
     44 H7         -2.5517   -2.5220    0.8255 H         1 <0>         0.1335
     45 H8         -0.9498   -2.8197    0.1089 H         1 <0>         0.1347
     46 H9          0.1294   -2.0993    2.2220 H         1 <0>         0.1014
     47 H10        -1.4725   -1.8015    2.9385 H         1 <0>         0.1015
     48 H11        -2.0591   -4.1896    2.6196 H         1 <0>         0.0752
     49 H12        -0.4572   -4.4873    1.9030 H         1 <0>         0.0757
     50 H13        -1.3975   -6.1630    2.6836 H         1 <0>         0.1354
     51 H14        -1.4333   -8.4411    3.5496 H         1 <0>         0.1313
     52 H15         0.4574   -4.7453    6.2654 H         1 <0>         0.1520
     53 H16         0.8932   -8.5656    8.8611 H         1 <0>         0.2055
     54 H17        -1.3830  -10.1437    4.3718 H         1 <0>         0.4209
     55 H18        -0.0902  -11.2232    7.7655 H         1 <0>         0.1880
     56 H19         0.4693  -14.7803    8.1624 H         1 <0>         0.1181
     57 H20         0.0452  -13.4002    9.2034 H         1 <0>         0.1229
     58 H21        -0.5415  -15.7530   10.4378 H         1 <0>         0.4158
     59 H22        -1.8824  -16.0460   12.5909 H         1 <0>         0.1343
     60 H23        -3.8814  -17.1310   13.5291 H         1 <0>         0.1388
     61 H24        -5.6670  -17.9297   12.0358 H         1 <0>         0.1372
     62 H25        -3.4650  -16.5484    8.6506 H         1 <0>         0.1513
     63 H26        -1.9227    0.4328   -1.1796 H         1 <0>         0.1424
     64 H27        -1.6780   -1.2838   -1.5820 H         1 <0>         0.1432
     65 H28        -4.0723   -0.7760   -1.6566 H         1 <0>         0.0961
     66 H29        -3.7446   -1.8378   -0.2661 H         1 <0>         0.0704
     67 H30        -5.0746   -0.0067    0.4048 H         1 <0>         0.4093
     68 H31        -1.8573   -0.2307    1.1505 H         1 <0>         0.4316
@<TRIPOS>BOND
     1    1    2 1
     2    1   39 1
     3    1   40 1
     4    1   41 1
     5    2    3 1
     6    2   42 1
     7    2   43 1
     8    3    4 1
     9    3   36 1
    10    3   68 1
    11    4    5 1
    12    4   44 1
    13    4   45 1
    14    5    6 1
    15    5   46 1
    16    5   47 1
    17    6    7 1
    18    6   48 1
    19    6   49 1
    20    7    8 1
    21    8   13 ar
    22    8    9 ar
    23    9   10 ar
    24    9   50 1
    25   10   11 ar
    26   10   51 1
    27   11   17 ar
    28   11   12 ar
    29   12   13 ar
    30   12   14 ar
    31   13   52 1
    32   14   15 ar
    33   15   16 ar
    34   15   53 1
    35   16   17 ar
    36   17   18 1
    37   18   19 1
    38   18   54 1
    39   19   23 1
    40   19   20 2
    41   20   21 1
    42   20   55 1
    43   21   22 2
    44   21   25 1
    45   22   23 1
    46   23   24 1
    47   25   26 1
    48   25   56 1
    49   25   57 1
    50   26   27 2
    51   26   28 am
    52   28   29 1
    53   28   58 1
    54   29   34 ar
    55   29   30 ar
    56   30   31 ar
    57   30   59 1
    58   31   32 ar
    59   31   60 1
    60   32   33 ar
    61   32   61 1
    62   33   34 ar
    63   33   35 1
    64   34   62 1
    65   36   37 1
    66   36   63 1
    67   36   64 1
    68   37   38 1
    69   37   65 1
    70   37   66 1
    71   38   67 1
@<TRIPOS>MOLECULE
ZINC24811973
   71    76     0     0     0
SMALL
USER_CHARGES
N-(5-chloro-1,3-benzodioxol-4-yl)-7-[2-(4-methylpiperazin-1-yl)ethoxy]-5-tetrahydropyran-4-yloxy-quinazolin-4-amine
@<TRIPOS>ATOM
      1 C1          7.5655    6.2744    4.3229 C.3       1 <0>        -0.0453
      2 N1          6.9185    4.9776    4.0827 N.4       1 <0>        -0.4025
      3 C2          5.4989    5.0194    4.4603 C.3       1 <0>         0.0006
      4 C3          4.8821    3.6316    4.2705 C.3       1 <0>         0.0191
      5 N2          5.0395    3.2159    2.8697 N.3       1 <0>        -0.5340
      6 C4          6.4591    3.1741    2.4921 C.3       1 <0>         0.0256
      7 C5          7.0759    4.5619    2.6820 C.3       1 <0>         0.0003
      8 C6          4.3925    1.9191    2.6296 C.3       1 <0>         0.0546
      9 C7          2.8759    2.1102    2.5640 C.3       1 <0>         0.0573
     10 O1          2.5474    2.9314    1.4415 O.3       1 <0>        -0.2956
     11 C8          1.2320    3.2001    1.2382 C.ar      1 <0>         0.2139
     12 C9          0.2891    2.6820    2.1028 C.ar      1 <0>        -0.2556
     13 C10        -1.0666    2.9521    1.8929 C.ar      1 <0>         0.2617
     14 C11        -1.4550    3.7658    0.7994 C.ar      1 <0>        -0.2443
     15 C12        -0.4786    4.2833   -0.0680 C.ar      1 <0>         0.2316
     16 C13         0.8507    3.9969    0.1584 C.ar      1 <0>        -0.2679
     17 O2         -0.8412    5.0596   -1.1206 O.3       1 <0>        -0.3196
     18 C14         0.2045    5.5149   -1.9816 C.3       1 <0>         0.0868
     19 C15         0.8408    6.7773   -1.3918 C.3       1 <0>        -0.1819
     20 C16         1.9040    7.3033   -2.3597 C.3       1 <0>         0.0642
     21 O3          1.3058    7.5588   -3.6321 O.3       1 <0>        -0.3754
     22 C17         0.7375    6.4035   -4.2522 C.3       1 <0>         0.0639
     23 C18        -0.3741    5.8427   -3.3615 C.3       1 <0>        -0.1585
     24 C19        -2.8318    4.0257    0.6163 C.ar      1 <0>         0.5015
     25 N3         -3.6910    3.4986    1.4806 N.ar      1 <0>        -0.5890
     26 C20        -3.2828    2.7482    2.4909 C.ar      1 <0>         0.3723
     27 N4         -2.0187    2.4733    2.7099 N.ar      1 <0>        -0.5672
     28 N5         -3.2714    4.8066   -0.4322 N.pl3     1 <0>        -0.6413
     29 C21        -4.6269    5.1462   -0.5324 C.ar      1 <0>         0.1713
     30 C22        -5.5908    4.1480   -0.6043 C.ar      1 <0>        -0.0138
     31 C23        -6.9287    4.4835   -0.6963 C.ar      1 <0>        -0.0868
     32 C24        -7.3118    5.8118   -0.7302 C.ar      1 <0>        -0.0893
     33 C25        -6.3565    6.8144   -0.6652 C.ar      1 <0>         0.0501
     34 C26        -5.0093    6.4829   -0.5658 C.ar      1 <0>         0.0316
     35 O4         -4.2778    7.6354   -0.5173 O.3       1 <0>        -0.3024
     36 C27        -5.1574    8.6689   -0.9986 C.3       1 <0>         0.2077
     37 O5         -6.4715    8.1749   -0.6789 O.3       1 <0>        -0.2967
     38 Cl1        -5.1153    2.4788   -0.5700 Cl        1 <0>        -0.0325
     39 H1          7.4326    6.5608    5.3766 H         1 <0>         0.1247
     40 H2          7.1092    7.0374    3.6751 H         1 <0>         0.1198
     41 H3          8.6392    6.1959    4.0968 H         1 <0>         0.1251
     42 H4          5.4086    5.3208    5.5143 H         1 <0>         0.1365
     43 H5          4.9716    5.7461    3.8247 H         1 <0>         0.1349
     44 H6          5.3914    2.9111    4.9273 H         1 <0>         0.0633
     45 H7          3.8126    3.6677    4.5254 H         1 <0>         0.1226
     46 H8          6.9863    2.4474    3.1277 H         1 <0>         0.0617
     47 H9          6.5495    2.8728    1.4380 H         1 <0>         0.1248
     48 H10         6.5668    5.2834    2.0260 H         1 <0>         0.1350
     49 H11         8.1456    4.5267    2.4279 H         1 <0>         0.1366
     50 H12         4.7510    1.5012    1.6773 H         1 <0>         0.1011
     51 H13         4.6399    1.2285    3.4493 H         1 <0>         0.0750
     52 H14         2.3872    1.1305    2.4572 H         1 <0>         0.0821
     53 H15         2.5271    2.5951    3.4877 H         1 <0>         0.0690
     54 H16         0.5969    2.0668    2.9354 H         1 <0>         0.1422
     55 H17         1.6040    4.3933   -0.5062 H         1 <0>         0.1435
     56 H18         0.9260    4.6862   -2.0334 H         1 <0>         0.0874
     57 H19         0.0655    7.5433   -1.2427 H         1 <0>         0.0903
     58 H20         1.3079    6.5354   -0.4257 H         1 <0>         0.0834
     59 H21         2.3326    8.2352   -1.9624 H         1 <0>         0.1028
     60 H22         2.7001    6.5528   -2.4731 H         1 <0>         0.0539
     61 H23         0.3189    6.6811   -5.2308 H         1 <0>         0.1103
     62 H24         1.5176    5.6403   -4.3903 H         1 <0>         0.0577
     63 H25        -0.7839    4.9277   -3.8140 H         1 <0>         0.0906
     64 H26        -1.1747    6.5895   -3.2554 H         1 <0>         0.0897
     65 H27        -4.0231    2.3437    3.1652 H         1 <0>         0.1966
     66 H28        -2.5577    5.1627   -1.1897 H         1 <0>         0.4524
     67 H29        -7.6766    3.7060   -0.7472 H         1 <0>         0.1549
     68 H30        -8.3579    6.0688   -0.8071 H         1 <0>         0.1504
     69 H31        -4.9302    9.6134   -0.4826 H         1 <0>         0.1369
     70 H32        -5.0128    8.7986   -2.0813 H         1 <0>         0.0896
     71 H33         7.4170    4.2298    4.7170 H         1 <0>         0.4406
@<TRIPOS>BOND
     1    1    2 1
     2    1   39 1
     3    1   40 1
     4    1   41 1
     5    2    7 1
     6    2    3 1
     7    2   71 1
     8    3    4 1
     9    3   42 1
    10    3   43 1
    11    4    5 1
    12    4   44 1
    13    4   45 1
    14    5    6 1
    15    5    8 1
    16    6    7 1
    17    6   46 1
    18    6   47 1
    19    7   48 1
    20    7   49 1
    21    8    9 1
    22    8   50 1
    23    8   51 1
    24    9   10 1
    25    9   52 1
    26    9   53 1
    27   10   11 1
    28   11   16 ar
    29   11   12 ar
    30   12   13 ar
    31   12   54 1
    32   13   27 ar
    33   13   14 ar
    34   14   15 ar
    35   14   24 ar
    36   15   16 ar
    37   15   17 1
    38   16   55 1
    39   17   18 1
    40   18   23 1
    41   18   19 1
    42   18   56 1
    43   19   20 1
    44   19   57 1
    45   19   58 1
    46   20   21 1
    47   20   59 1
    48   20   60 1
    49   21   22 1
    50   22   23 1
    51   22   61 1
    52   22   62 1
    53   23   63 1
    54   23   64 1
    55   24   25 ar
    56   24   28 1
    57   25   26 ar
    58   26   27 ar
    59   26   65 1
    60   28   29 1
    61   28   66 1
    62   29   34 ar
    63   29   30 ar
    64   30   31 ar
    65   30   38 1
    66   31   32 ar
    67   31   67 1
    68   32   33 ar
    69   32   68 1
    70   33   37 1
    71   33   34 ar
    72   34   35 1
    73   35   36 1
    74   36   37 1
    75   36   69 1
    76   36   70 1
@<TRIPOS>MOLECULE
ZINC24811973
   71    76     0     0     0
SMALL
USER_CHARGES
N-(5-chloro-1,3-benzodioxol-4-yl)-7-[2-(4-methylpiperazin-1-yl)ethoxy]-5-tetrahydropyran-4-yloxy-quinazolin-4-amine
@<TRIPOS>ATOM
      1 C1          7.5655    6.2744    4.3229 C.3       1 <0>         0.0170
      2 N1          6.9185    4.9776    4.0827 N.3       1 <0>        -0.5430
      3 C2          5.4989    5.0194    4.4603 C.3       1 <0>         0.0239
      4 C3          4.8821    3.6316    4.2705 C.3       1 <0>        -0.0046
      5 N2          5.0395    3.2159    2.8697 N.4       1 <0>        -0.4045
      6 C4          6.4591    3.1741    2.4921 C.3       1 <0>         0.0008
      7 C5          7.0759    4.5619    2.6820 C.3       1 <0>         0.0231
      8 C6          4.3925    1.9191    2.6296 C.3       1 <0>         0.0022
      9 C7          2.8759    2.1102    2.5640 C.3       1 <0>         0.0216
     10 O1          2.5474    2.9314    1.4415 O.3       1 <0>        -0.3251
     11 C8          1.2320    3.2001    1.2382 C.ar      1 <0>         0.2059
     12 C9          0.2891    2.6820    2.1028 C.ar      1 <0>        -0.2460
     13 C10        -1.0666    2.9521    1.8929 C.ar      1 <0>         0.2625
     14 C11        -1.4550    3.7658    0.7994 C.ar      1 <0>        -0.2415
     15 C12        -0.4786    4.2833   -0.0680 C.ar      1 <0>         0.2396
     16 C13         0.8507    3.9969    0.1584 C.ar      1 <0>        -0.2718
     17 O2         -0.8412    5.0596   -1.1206 O.3       1 <0>        -0.3174
     18 C14         0.2045    5.5149   -1.9816 C.3       1 <0>         0.0868
     19 C15         0.8408    6.7773   -1.3918 C.3       1 <0>        -0.1825
     20 C16         1.9040    7.3033   -2.3597 C.3       1 <0>         0.0637
     21 O3          1.3058    7.5588   -3.6321 O.3       1 <0>        -0.3736
     22 C17         0.7375    6.4035   -4.2522 C.3       1 <0>         0.0637
     23 C18        -0.3741    5.8427   -3.3615 C.3       1 <0>        -0.1592
     24 C19        -2.8318    4.0257    0.6163 C.ar      1 <0>         0.5024
     25 N3         -3.6910    3.4986    1.4806 N.ar      1 <0>        -0.5847
     26 C20        -3.2828    2.7482    2.4909 C.ar      1 <0>         0.3779
     27 N4         -2.0187    2.4733    2.7099 N.ar      1 <0>        -0.5668
     28 N5         -3.2714    4.8066   -0.4322 N.pl3     1 <0>        -0.6379
     29 C21        -4.6269    5.1462   -0.5324 C.ar      1 <0>         0.1670
     30 C22        -5.5908    4.1480   -0.6043 C.ar      1 <0>        -0.0135
     31 C23        -6.9287    4.4835   -0.6963 C.ar      1 <0>        -0.0861
     32 C24        -7.3118    5.8118   -0.7302 C.ar      1 <0>        -0.0874
     33 C25        -6.3565    6.8144   -0.6652 C.ar      1 <0>         0.0512
     34 C26        -5.0093    6.4829   -0.5658 C.ar      1 <0>         0.0329
     35 O4         -4.2778    7.6354   -0.5173 O.3       1 <0>        -0.3029
     36 C27        -5.1574    8.6689   -0.9986 C.3       1 <0>         0.2078
     37 O5         -6.4715    8.1749   -0.6789 O.3       1 <0>        -0.2957
     38 Cl1        -5.1153    2.4788   -0.5700 Cl        1 <0>        -0.0332
     39 H1          7.4326    6.5608    5.3766 H         1 <0>         0.0847
     40 H2          7.1092    7.0374    3.6751 H         1 <0>         0.0397
     41 H3          8.6392    6.1959    4.0968 H         1 <0>         0.0853
     42 H4          5.4086    5.3208    5.5143 H         1 <0>         0.1247
     43 H5          4.9716    5.7461    3.8247 H         1 <0>         0.0605
     44 H6          5.3914    2.9111    4.9273 H         1 <0>         0.1387
     45 H7          3.8126    3.6677    4.5254 H         1 <0>         0.1343
     46 H8          6.9863    2.4474    3.1277 H         1 <0>         0.1371
     47 H9          6.5495    2.8728    1.4380 H         1 <0>         0.1373
     48 H10         6.5668    5.2834    2.0260 H         1 <0>         0.0606
     49 H11         8.1456    4.5267    2.4279 H         1 <0>         0.1249
     50 H12         4.7510    1.5012    1.6773 H         1 <0>         0.1442
     51 H13         4.6399    1.2285    3.4493 H         1 <0>         0.1512
     52 H14         2.3872    1.1305    2.4572 H         1 <0>         0.1174
     53 H15         2.5271    2.5951    3.4877 H         1 <0>         0.0921
     54 H16         0.5969    2.0668    2.9354 H         1 <0>         0.1449
     55 H17         1.6040    4.3933   -0.5062 H         1 <0>         0.1457
     56 H18         0.9260    4.6862   -2.0334 H         1 <0>         0.0870
     57 H19         0.0655    7.5433   -1.2427 H         1 <0>         0.0923
     58 H20         1.3079    6.5354   -0.4257 H         1 <0>         0.0820
     59 H21         2.3326    8.2352   -1.9624 H         1 <0>         0.1045
     60 H22         2.7001    6.5528   -2.4731 H         1 <0>         0.0533
     61 H23         0.3189    6.6811   -5.2308 H         1 <0>         0.1117
     62 H24         1.5176    5.6403   -4.3903 H         1 <0>         0.0578
     63 H25        -0.7839    4.9277   -3.8140 H         1 <0>         0.0914
     64 H26        -1.1747    6.5895   -3.2554 H         1 <0>         0.0911
     65 H27        -4.0231    2.3437    3.1652 H         1 <0>         0.1996
     66 H28        -2.5577    5.1627   -1.1897 H         1 <0>         0.4528
     67 H29        -7.6766    3.7060   -0.7472 H         1 <0>         0.1558
     68 H30        -8.3579    6.0688   -0.8071 H         1 <0>         0.1515
     69 H31        -4.9302    9.6134   -0.4826 H         1 <0>         0.1379
     70 H32        -5.0128    8.7986   -2.0813 H         1 <0>         0.0905
     71 H33         4.5411    3.9636    2.2353 H         1 <0>         0.4448
@<TRIPOS>BOND
     1    1    2 1
     2    1   39 1
     3    1   40 1
     4    1   41 1
     5    2    7 1
     6    2    3 1
     7    3    4 1
     8    3   42 1
     9    3   43 1
    10    4    5 1
    11    4   44 1
    12    4   45 1
    13    5    6 1
    14    5    8 1
    15    5   71 1
    16    6    7 1
    17    6   46 1
    18    6   47 1
    19    7   48 1
    20    7   49 1
    21    8    9 1
    22    8   50 1
    23    8   51 1
    24    9   10 1
    25    9   52 1
    26    9   53 1
    27   10   11 1
    28   11   16 ar
    29   11   12 ar
    30   12   13 ar
    31   12   54 1
    32   13   27 ar
    33   13   14 ar
    34   14   15 ar
    35   14   24 ar
    36   15   16 ar
    37   15   17 1
    38   16   55 1
    39   17   18 1
    40   18   23 1
    41   18   19 1
    42   18   56 1
    43   19   20 1
    44   19   57 1
    45   19   58 1
    46   20   21 1
    47   20   59 1
    48   20   60 1
    49   21   22 1
    50   22   23 1
    51   22   61 1
    52   22   62 1
    53   23   63 1
    54   23   64 1
    55   24   25 ar
    56   24   28 1
    57   25   26 ar
    58   26   27 ar
    59   26   65 1
    60   28   29 1
    61   28   66 1
    62   29   34 ar
    63   29   30 ar
    64   30   31 ar
    65   30   38 1
    66   31   32 ar
    67   31   67 1
    68   32   33 ar
    69   32   68 1
    70   33   37 1
    71   33   34 ar
    72   34   35 1
    73   35   36 1
    74   36   37 1
    75   36   69 1
    76   36   70 1
@<TRIPOS>MOLECULE
ZINC24811973
   70    75     0     0     0
SMALL
USER_CHARGES
N-(5-chloro-1,3-benzodioxol-4-yl)-7-[2-(4-methylpiperazin-1-yl)ethoxy]-5-tetrahydropyran-4-yloxy-quinazolin-4-amine
@<TRIPOS>ATOM
      1 C1          7.5655    6.2744    4.3229 C.3       1 <0>         0.0226
      2 N1          6.9185    4.9776    4.0827 N.3       1 <0>        -0.5457
      3 C2          5.4989    5.0194    4.4603 C.3       1 <0>         0.0556
      4 C3          4.8821    3.6316    4.2705 C.3       1 <0>         0.0522
      5 N2          5.0395    3.2159    2.8697 N.3       1 <0>        -0.5333
      6 C4          6.4591    3.1741    2.4921 C.3       1 <0>         0.0571
      7 C5          7.0759    4.5619    2.6820 C.3       1 <0>         0.0553
      8 C6          4.3925    1.9191    2.6296 C.3       1 <0>         0.0535
      9 C7          2.8759    2.1102    2.5640 C.3       1 <0>         0.0608
     10 O1          2.5474    2.9314    1.4415 O.3       1 <0>        -0.2892
     11 C8          1.2320    3.2001    1.2382 C.ar      1 <0>         0.2205
     12 C9          0.2891    2.6820    2.1028 C.ar      1 <0>        -0.2568
     13 C10        -1.0666    2.9521    1.8929 C.ar      1 <0>         0.2601
     14 C11        -1.4550    3.7658    0.7994 C.ar      1 <0>        -0.2438
     15 C12        -0.4786    4.2833   -0.0680 C.ar      1 <0>         0.2247
     16 C13         0.8507    3.9969    0.1584 C.ar      1 <0>        -0.2620
     17 O2         -0.8412    5.0596   -1.1206 O.3       1 <0>        -0.3213
     18 C14         0.2045    5.5149   -1.9816 C.3       1 <0>         0.0860
     19 C15         0.8408    6.7773   -1.3918 C.3       1 <0>        -0.1829
     20 C16         1.9040    7.3033   -2.3597 C.3       1 <0>         0.0632
     21 O3          1.3058    7.5588   -3.6321 O.3       1 <0>        -0.3771
     22 C17         0.7375    6.4035   -4.2522 C.3       1 <0>         0.0639
     23 C18        -0.3741    5.8427   -3.3615 C.3       1 <0>        -0.1562
     24 C19        -2.8318    4.0257    0.6163 C.ar      1 <0>         0.5004
     25 N3         -3.6910    3.4986    1.4806 N.ar      1 <0>        -0.5929
     26 C20        -3.2828    2.7482    2.4909 C.ar      1 <0>         0.3659
     27 N4         -2.0187    2.4733    2.7099 N.ar      1 <0>        -0.5638
     28 N5         -3.2714    4.8066   -0.4322 N.pl3     1 <0>        -0.6450
     29 C21        -4.6269    5.1462   -0.5324 C.ar      1 <0>         0.1769
     30 C22        -5.5908    4.1480   -0.6043 C.ar      1 <0>        -0.0142
     31 C23        -6.9287    4.4835   -0.6963 C.ar      1 <0>        -0.0884
     32 C24        -7.3118    5.8118   -0.7302 C.ar      1 <0>        -0.0924
     33 C25        -6.3565    6.8144   -0.6652 C.ar      1 <0>         0.0485
     34 C26        -5.0093    6.4829   -0.5658 C.ar      1 <0>         0.0310
     35 O4         -4.2778    7.6354   -0.5173 O.3       1 <0>        -0.3005
     36 C27        -5.1574    8.6689   -0.9986 C.3       1 <0>         0.2076
     37 O5         -6.4715    8.1749   -0.6789 O.3       1 <0>        -0.2984
     38 Cl1        -5.1153    2.4788   -0.5700 Cl        1 <0>        -0.0322
     39 H1          7.4326    6.5608    5.3766 H         1 <0>         0.0697
     40 H2          7.1092    7.0374    3.6751 H         1 <0>         0.0269
     41 H3          8.6392    6.1959    4.0968 H         1 <0>         0.0702
     42 H4          5.4086    5.3208    5.5143 H         1 <0>         0.0806
     43 H5          4.9716    5.7461    3.8247 H         1 <0>         0.0432
     44 H6          5.3914    2.9111    4.9273 H         1 <0>         0.0453
     45 H7          3.8126    3.6677    4.5254 H         1 <0>         0.0800
     46 H8          6.9863    2.4474    3.1277 H         1 <0>         0.0439
     47 H9          6.5495    2.8728    1.4380 H         1 <0>         0.0822
     48 H10         6.5668    5.2834    2.0260 H         1 <0>         0.0435
     49 H11         8.1456    4.5267    2.4279 H         1 <0>         0.0809
     50 H12         4.7510    1.5012    1.6773 H         1 <0>         0.0884
     51 H13         4.6399    1.2285    3.4493 H         1 <0>         0.0645
     52 H14         2.3872    1.1305    2.4572 H         1 <0>         0.0740
     53 H15         2.5271    2.5951    3.4877 H         1 <0>         0.0694
     54 H16         0.5969    2.0668    2.9354 H         1 <0>         0.1439
     55 H17         1.6040    4.3933   -0.5062 H         1 <0>         0.1444
     56 H18         0.9260    4.6862   -2.0334 H         1 <0>         0.0882
     57 H19         0.0655    7.5433   -1.2427 H         1 <0>         0.0888
     58 H20         1.3079    6.5354   -0.4257 H         1 <0>         0.0870
     59 H21         2.3326    8.2352   -1.9624 H         1 <0>         0.1042
     60 H22         2.7001    6.5528   -2.4731 H         1 <0>         0.0567
     61 H23         0.3189    6.6811   -5.2308 H         1 <0>         0.1074
     62 H24         1.5176    5.6403   -4.3903 H         1 <0>         0.0576
     63 H25        -0.7839    4.9277   -3.8140 H         1 <0>         0.0886
     64 H26        -1.1747    6.5895   -3.2554 H         1 <0>         0.0878
     65 H27        -4.0231    2.3437    3.1652 H         1 <0>         0.1941
     66 H28        -2.5577    5.1627   -1.1897 H         1 <0>         0.4526
     67 H29        -7.6766    3.7060   -0.7472 H         1 <0>         0.1532
     68 H30        -8.3579    6.0688   -0.8071 H         1 <0>         0.1483
     69 H31        -4.9302    9.6134   -0.4826 H         1 <0>         0.1363
     70 H32        -5.0128    8.7986   -2.0813 H         1 <0>         0.0886
@<TRIPOS>BOND
     1    1    2 1
     2    1   39 1
     3    1   40 1
     4    1   41 1
     5    2    7 1
     6    2    3 1
     7    3    4 1
     8    3   42 1
     9    3   43 1
    10    4    5 1
    11    4   44 1
    12    4   45 1
    13    5    6 1
    14    5    8 1
    15    6    7 1
    16    6   46 1
    17    6   47 1
    18    7   48 1
    19    7   49 1
    20    8    9 1
    21    8   50 1
    22    8   51 1
    23    9   10 1
    24    9   52 1
    25    9   53 1
    26   10   11 1
    27   11   16 ar
    28   11   12 ar
    29   12   13 ar
    30   12   54 1
    31   13   27 ar
    32   13   14 ar
    33   14   15 ar
    34   14   24 ar
    35   15   16 ar
    36   15   17 1
    37   16   55 1
    38   17   18 1
    39   18   23 1
    40   18   19 1
    41   18   56 1
    42   19   20 1
    43   19   57 1
    44   19   58 1
    45   20   21 1
    46   20   59 1
    47   20   60 1
    48   21   22 1
    49   22   23 1
    50   22   61 1
    51   22   62 1
    52   23   63 1
    53   23   64 1
    54   24   25 ar
    55   24   28 1
    56   25   26 ar
    57   26   27 ar
    58   26   65 1
    59   28   29 1
    60   28   66 1
    61   29   34 ar
    62   29   30 ar
    63   30   31 ar
    64   30   38 1
    65   31   32 ar
    66   31   67 1
    67   32   33 ar
    68   32   68 1
    69   33   37 1
    70   33   34 ar
    71   34   35 1
    72   35   36 1
    73   36   37 1
    74   36   69 1
    75   36   70 1
@<TRIPOS>MOLECULE
ZINC06718813
   46    49     0     0     0
SMALL
USER_CHARGES
3-[4-(3-amino-1H-indazol-4-yl)phenyl]-1-(2-fluoro-5-methyl-phenyl)urea
@<TRIPOS>ATOM
      1 C1          6.9492   -0.6708   -4.4566 C.3       1 <0>        -0.1151
      2 C2          7.3188   -0.0066   -3.1554 C.ar      1 <0>        -0.0747
      3 C3          8.6152   -0.0905   -2.6815 C.ar      1 <0>        -0.1060
      4 C4          8.9590    0.5169   -1.4879 C.ar      1 <0>        -0.1295
      5 C5          8.0061    1.2101   -0.7639 C.ar      1 <0>         0.0645
      6 C6          6.7020    1.2957   -1.2387 C.ar      1 <0>         0.1336
      7 C7          6.3607    0.6802   -2.4351 C.ar      1 <0>        -0.0953
      8 N1          5.7336    1.9963   -0.5085 N.am      1 <0>        -0.6783
      9 C8          4.4547    1.5712   -0.5040 C.2       1 <0>         0.7069
     10 O1          4.1265    0.6239   -1.1921 O.2       1 <0>        -0.5500
     11 N2          3.5395    2.1961    0.2631 N.am      1 <0>        -0.6801
     12 C9          2.2409    1.6865    0.3572 C.ar      1 <0>         0.1677
     13 C10         1.1632    2.5541    0.4899 C.ar      1 <0>        -0.1430
     14 C11        -0.1180    2.0545    0.5834 C.ar      1 <0>        -0.0892
     15 C12        -0.3326    0.6766    0.5442 C.ar      1 <0>        -0.0682
     16 C13         0.7509   -0.1919    0.4104 C.ar      1 <0>        -0.0779
     17 C14         2.0300    0.3132    0.3174 C.ar      1 <0>        -0.1142
     18 C15        -1.7083    0.1367    0.6449 C.ar      1 <0>         0.0376
     19 C16        -2.0347   -0.7648    1.6483 C.ar      1 <0>        -0.1557
     20 C17        -3.3230   -1.2675    1.7456 C.ar      1 <0>        -0.0592
     21 C18        -4.2968   -0.8911    0.8473 C.ar      1 <0>        -0.1529
     22 C19        -3.9969    0.0086   -0.1734 C.ar      1 <0>         0.1547
     23 C20        -2.6946    0.5292   -0.2801 C.ar      1 <0>        -0.1858
     24 C21        -2.7034    1.4283   -1.4324 C.2       1 <0>         0.3642
     25 N3         -3.9099    1.4169   -1.9352 N.2       1 <0>        -0.3205
     26 N4         -4.7292    0.5606   -1.1926 N.pl3     1 <0>        -0.5119
     27 H1         -5.6955    0.3797   -1.3759 H         1 <0>         0.4473
     28 N5         -1.6172    2.1667   -1.9108 N.pl3     1 <0>        -0.8360
     29 F1          8.3418    1.8036    0.4023 F         1 <0>        -0.1384
     30 H2          6.6188   -1.6912   -4.2627 H         1 <0>         0.0755
     31 H3          6.1436   -0.1125   -4.9335 H         1 <0>         0.0695
     32 H4          7.8178   -0.6890   -5.1149 H         1 <0>         0.0704
     33 H5          9.3607   -0.6319   -3.2448 H         1 <0>         0.1352
     34 H6          9.9724    0.4496   -1.1204 H         1 <0>         0.1410
     35 H7          5.3477    0.7413   -2.8045 H         1 <0>         0.1523
     36 H8          5.9835    2.7876   -0.0061 H         1 <0>         0.4118
     37 H9          3.7818    2.9993    0.7499 H         1 <0>         0.4106
     38 H10         1.3298    3.6208    0.5203 H         1 <0>         0.1310
     39 H11        -0.9554    2.7293    0.6824 H         1 <0>         0.1315
     40 H12         0.5876   -1.2590    0.3794 H         1 <0>         0.1314
     41 H13         2.8692   -0.3587    0.2138 H         1 <0>         0.1391
     42 H14        -1.2822   -1.0738    2.3586 H         1 <0>         0.1292
     43 H15        -3.5651   -1.9655    2.5334 H         1 <0>         0.1325
     44 H16        -5.2951   -1.2940    0.9345 H         1 <0>         0.1278
     45 H17        -0.7342    2.0309   -1.5329 H         1 <0>         0.4118
     46 H18        -1.7465    2.8151   -2.6206 H         1 <0>         0.4050
@<TRIPOS>BOND
     1    1    2 1
     2    1   30 1
     3    1   31 1
     4    1   32 1
     5    2    7 ar
     6    2    3 ar
     7    3    4 ar
     8    3   33 1
     9    4    5 ar
    10    4   34 1
    11    5    6 ar
    12    5   29 1
    13    6    7 ar
    14    6    8 1
    15    7   35 1
    16    8    9 am
    17    8   36 1
    18    9   10 2
    19    9   11 am
    20   11   12 1
    21   11   37 1
    22   12   17 ar
    23   12   13 ar
    24   13   14 ar
    25   13   38 1
    26   14   15 ar
    27   14   39 1
    28   15   16 ar
    29   15   18 1
    30   16   17 ar
    31   16   40 1
    32   17   41 1
    33   18   23 ar
    34   18   19 ar
    35   19   20 ar
    36   19   42 1
    37   20   21 ar
    38   20   43 1
    39   21   22 ar
    40   21   44 1
    41   22   26 1
    42   22   23 ar
    43   23   24 1
    44   24   25 2
    45   24   28 1
    46   25   26 1
    47   26   27 1
    48   28   45 1
    49   28   46 1
@<TRIPOS>MOLECULE
ZINC03834198
   55    58     0     0     0
SMALL
USER_CHARGES

@<TRIPOS>ATOM
      1 C1          2.2102    1.3214   -1.5438 C.3       1 <0>        -0.0473
      2 N1          2.0302   -0.1310   -1.4177 N.4       1 <0>        -0.3861
      3 C2          2.8485   -0.8135   -2.4272 C.3       1 <0>        -0.0039
      4 C3          2.6029   -2.3220   -2.3537 C.3       1 <0>        -0.1426
      5 C4          2.9828   -2.8281   -0.9591 C.3       1 <0>        -0.0980
      6 C5          2.1768   -2.0570    0.0901 C.3       1 <0>        -0.1436
      7 C6          2.4382   -0.5583   -0.0740 C.3       1 <0>        -0.0065
      8 C7          2.6653   -4.3210   -0.8526 C.3       1 <0>         0.0553
      9 O1          3.1265   -4.8175    0.4056 O.3       1 <0>        -0.2959
     10 C8          2.9210   -6.1358    0.6612 C.ar      1 <0>         0.1621
     11 C9          2.2972   -6.9233   -0.2811 C.ar      1 <0>        -0.1791
     12 C10         2.0867   -8.2816   -0.0149 C.ar      1 <0>         0.2018
     13 C11         2.5192   -8.8246    1.2204 C.ar      1 <0>        -0.1784
     14 C12         3.1508   -8.0026    2.1612 C.ar      1 <0>        -0.1424
     15 C13         3.3512   -6.6812    1.8787 C.ar      1 <0>         0.1099
     16 O2          3.9702   -5.8850    2.7909 O.3       1 <0>        -0.3030
     17 C14         4.3854   -6.4992    4.0125 C.3       1 <0>         0.0198
     18 C15         2.2930  -10.2009    1.4605 C.ar      1 <0>         0.4667
     19 N2          1.6881  -10.9114    0.5174 N.ar      1 <0>        -0.5768
     20 C16         1.3012  -10.3606   -0.6222 C.ar      1 <0>         0.3478
     21 N3          1.4842   -9.0917   -0.8996 N.ar      1 <0>        -0.5414
     22 N4          2.6915  -10.7885    2.6441 N.pl3     1 <0>        -0.6296
     23 C17         2.5831  -12.1741    2.8088 C.ar      1 <0>         0.1376
     24 C18         2.4560  -12.9987    1.6992 C.ar      1 <0>        -0.1039
     25 C19         2.3491  -14.3660    1.8644 C.ar      1 <0>        -0.0732
     26 C20         2.3685  -14.9152    3.1341 C.ar      1 <0>        -0.0857
     27 C21         2.4949  -14.0974    4.2430 C.ar      1 <0>        -0.1007
     28 C22         2.6081  -12.7284    4.0841 C.ar      1 <0>         0.0686
     29 F1          2.7372  -11.9301    5.1664 F         1 <0>        -0.1332
     30 Br1         2.2212  -16.7875    3.3546 Br        1 <0>        -0.0295
     31 H1          3.2589    1.5727   -1.3848 H         1 <0>         0.1219
     32 H2          1.9075    1.6398   -2.5414 H         1 <0>         0.1242
     33 H3          1.5979    1.8295   -0.7989 H         1 <0>         0.1242
     34 H4          2.5792   -0.4499   -3.4189 H         1 <0>         0.1343
     35 H5          3.9024   -0.6078   -2.2397 H         1 <0>         0.1306
     36 H6          1.5493   -2.5288   -2.5414 H         1 <0>         0.0934
     37 H7          3.2127   -2.8271   -3.1028 H         1 <0>         0.1176
     38 H8          4.0478   -2.6678   -0.7908 H         1 <0>         0.1030
     39 H9          1.1143   -2.2583   -0.0469 H         1 <0>         0.0893
     40 H10         2.4820   -2.3726    1.0878 H         1 <0>         0.1210
     41 H11         3.5008   -0.3580    0.0634 H         1 <0>         0.1299
     42 H12         1.8660   -0.0063    0.6716 H         1 <0>         0.1325
     43 H13         1.5883   -4.4698   -0.9292 H         1 <0>         0.0742
     44 H14         3.1645   -4.8571   -1.6597 H         1 <0>         0.0787
     45 H15         1.9724   -6.4960   -1.2182 H         1 <0>         0.1540
     46 H16         3.4818   -8.4122    3.1042 H         1 <0>         0.1414
     47 H17         4.8638   -5.7549    4.6491 H         1 <0>         0.1093
     48 H18         3.5165   -6.9116    4.5254 H         1 <0>         0.0597
     49 H19         5.0925   -7.2996    3.7947 H         1 <0>         0.0600
     50 H20         0.8133  -10.9840   -1.3569 H         1 <0>         0.2036
     51 H21         3.0467  -10.2411    3.3618 H         1 <0>         0.4241
     52 H22         2.4404  -12.5714    0.7074 H         1 <0>         0.1818
     53 H23         2.2499  -15.0072    1.0010 H         1 <0>         0.1463
     54 H24         2.5094  -14.5289    5.2329 H         1 <0>         0.1515
     55 H25         1.0589   -0.3624   -1.5626 H         1 <0>         0.4246
@<TRIPOS>BOND
     1    1    2 1
     2    1   31 1
     3    1   32 1
     4    1   33 1
     5    2    7 1
     6    2    3 1
     7    2   55 1
     8    3    4 1
     9    3   34 1
    10    3   35 1
    11    4    5 1
    12    4   36 1
    13    4   37 1
    14    5    6 1
    15    5    8 1
    16    5   38 1
    17    6    7 1
    18    6   39 1
    19    6   40 1
    20    7   41 1
    21    7   42 1
    22    8    9 1
    23    8   43 1
    24    8   44 1
    25    9   10 1
    26   10   15 ar
    27   10   11 ar
    28   11   12 ar
    29   11   45 1
    30   12   21 ar
    31   12   13 ar
    32   13   14 ar
    33   13   18 ar
    34   14   15 ar
    35   14   46 1
    36   15   16 1
    37   16   17 1
    38   17   47 1
    39   17   48 1
    40   17   49 1
    41   18   19 ar
    42   18   22 1
    43   19   20 ar
    44   20   21 ar
    45   20   50 1
    46   22   23 1
    47   22   51 1
    48   23   28 ar
    49   23   24 ar
    50   24   25 ar
    51   24   52 1
    52   25   26 ar
    53   25   53 1
    54   26   27 ar
    55   26   30 1
    56   27   28 ar
    57   27   54 1
    58   28   29 1
@<TRIPOS>MOLECULE
ZINC06716957
   61    65     0     0     0
SMALL
USER_CHARGES
4-methyl-N-[3-(4-methylimidazol-1-yl)-5-(trifluoromethyl)phenyl]-3-[4-(3-pyridyl)pyrimidin-2-yl]amino-benzamide
@<TRIPOS>ATOM
      1 C1          4.8797   -3.9669    0.1547 C.3       1 <0>        -0.1225
      2 C2          3.5754   -4.7217    0.1669 C.ar      1 <0>        -0.0869
      3 C3          3.5795   -6.1039    0.1964 C.ar      1 <0>        -0.1014
      4 C4          2.3894   -6.8021    0.2020 C.ar      1 <0>        -0.1034
      5 C5          1.1753   -6.1126    0.1832 C.ar      1 <0>        -0.1270
      6 C6          1.1710   -4.7182    0.1589 C.ar      1 <0>        -0.0590
      7 C7          2.3724   -4.0259    0.1535 C.ar      1 <0>         0.1619
      8 N1          2.3736   -2.6277    0.1286 N.pl3     1 <0>        -0.6325
      9 C8          1.2893   -1.9432   -0.3959 C.ar      1 <0>         0.5614
     10 N2          0.3200   -2.6260   -0.9883 N.ar      1 <0>        -0.5534
     11 C9         -0.7320   -2.0090   -1.5021 C.ar      1 <0>         0.1977
     12 C10        -0.8164   -0.6303   -1.4172 C.ar      1 <0>        -0.2657
     13 C11         0.2206    0.0624   -0.7871 C.ar      1 <0>         0.2658
     14 N3          1.2507   -0.6239   -0.2975 N.ar      1 <0>        -0.5571
     15 C12         0.1772    1.5403   -0.6710 C.ar      1 <0>        -0.1169
     16 C13         1.2145    2.2342   -0.0406 C.ar      1 <0>        -0.0276
     17 C14         1.1266    3.6129    0.0420 C.ar      1 <0>        -0.1784
     18 C15         0.0258    4.2543   -0.4966 C.ar      1 <0>         0.1175
     19 N4         -0.9376    3.5726   -1.0856 N.ar      1 <0>        -0.4841
     20 C16        -0.8952    2.2604   -1.1934 C.ar      1 <0>         0.1340
     21 C17        -0.1012   -6.8583    0.1887 C.2       1 <0>         0.5673
     22 O1         -1.1570   -6.2560    0.1719 O.2       1 <0>        -0.5061
     23 N5         -0.0944   -8.2058    0.2122 N.am      1 <0>        -0.6669
     24 C18        -1.2963   -8.9130    0.1072 C.ar      1 <0>         0.1849
     25 C19        -1.4127  -10.1752    0.6766 C.ar      1 <0>        -0.1112
     26 C20        -2.6011  -10.8720    0.5773 C.ar      1 <0>        -0.1296
     27 C21        -3.6741  -10.3211   -0.0973 C.ar      1 <0>        -0.1084
     28 C22        -3.5624   -9.0626   -0.6729 C.ar      1 <0>         0.1652
     29 C23        -2.3721   -8.3576   -0.5706 C.ar      1 <0>        -0.1152
     30 N6         -4.6520   -8.5044   -1.3568 N.pl3     1 <0>        -0.4135
     31 C24        -4.6878   -7.2792   -1.9710 C.2       1 <0>        -0.0484
     32 C25        -5.9185   -7.1442   -2.5004 C.2       1 <0>         0.0096
     33 N7         -6.6190   -8.2532   -2.2203 N.2       1 <0>        -0.4758
     34 C26        -5.8695   -9.0779   -1.5408 C.2       1 <0>         0.1944
     35 C27        -6.4219   -5.9529   -3.2741 C.3       1 <0>        -0.0703
     36 C28        -2.7260  -12.2385    1.2004 C.3       1 <0>         0.5133
     37 F1         -2.3418  -13.2115    0.2714 F         1 <0>        -0.1709
     38 F2         -1.8981  -12.3154    2.3255 F         1 <0>        -0.1721
     39 F3         -4.0538  -12.4572    1.5826 F         1 <0>        -0.1717
     40 H1          5.1932   -3.7667    1.1793 H         1 <0>         0.0780
     41 H2          5.6404   -4.5642   -0.3479 H         1 <0>         0.0781
     42 H3          4.7488   -3.0240   -0.3761 H         1 <0>         0.0665
     43 H4          4.5175   -6.6391    0.2106 H         1 <0>         0.1366
     44 H5          2.3969   -7.8819    0.2212 H         1 <0>         0.1267
     45 H6          0.2351   -4.1794    0.1439 H         1 <0>         0.1656
     46 H7          3.1337   -2.1370    0.4786 H         1 <0>         0.4259
     47 H8         -1.5163   -2.5753   -1.9823 H         1 <0>         0.1768
     48 H9         -1.6642   -0.1022   -1.8280 H         1 <0>         0.1524
     49 H10         2.0625    1.7077    0.3717 H         1 <0>         0.1463
     50 H11         1.9093    4.1820    0.5216 H         1 <0>         0.1425
     51 H12        -0.0458    5.3301   -0.4343 H         1 <0>         0.1622
     52 H13        -1.7012    1.7376   -1.6869 H         1 <0>         0.1630
     53 H14         0.7441   -8.6851    0.3020 H         1 <0>         0.4178
     54 H15        -0.5744  -10.6101    1.2006 H         1 <0>         0.1488
     55 H16        -4.6008  -10.8701   -0.1765 H         1 <0>         0.1477
     56 H17        -2.2829   -7.3787   -1.0179 H         1 <0>         0.1618
     57 H18        -3.8832   -6.5605   -2.0210 H         1 <0>         0.1795
     58 H19        -6.1682  -10.0519   -1.1825 H         1 <0>         0.2113
     59 H20        -6.2142   -6.0943   -4.3347 H         1 <0>         0.0711
     60 H21        -7.4967   -5.8505   -3.1248 H         1 <0>         0.0731
     61 H22        -5.9187   -5.0522   -2.9223 H         1 <0>         0.0710
@<TRIPOS>BOND
     1    1    2 1
     2    1   40 1
     3    1   41 1
     4    1   42 1
     5    2    7 ar
     6    2    3 ar
     7    3    4 ar
     8    3   43 1
     9    4    5 ar
    10    4   44 1
    11    5    6 ar
    12    5   21 1
    13    6    7 ar
    14    6   45 1
    15    7    8 1
    16    8    9 1
    17    8   46 1
    18    9   14 ar
    19    9   10 ar
    20   10   11 ar
    21   11   12 ar
    22   11   47 1
    23   12   13 ar
    24   12   48 1
    25   13   14 ar
    26   13   15 1
    27   15   20 ar
    28   15   16 ar
    29   16   17 ar
    30   16   49 1
    31   17   18 ar
    32   17   50 1
    33   18   19 ar
    34   18   51 1
    35   19   20 ar
    36   20   52 1
    37   21   22 2
    38   21   23 am
    39   23   24 1
    40   23   53 1
    41   24   29 ar
    42   24   25 ar
    43   25   26 ar
    44   25   54 1
    45   26   27 ar
    46   26   36 1
    47   27   28 ar
    48   27   55 1
    49   28   29 ar
    50   28   30 1
    51   29   56 1
    52   30   34 1
    53   30   31 1
    54   31   32 2
    55   31   57 1
    56   32   33 1
    57   32   35 1
    58   33   34 2
    59   34   58 1
    60   35   59 1
    61   35   60 1
    62   35   61 1
    63   36   37 1
    64   36   38 1
    65   36   39 1
@<TRIPOS>MOLECULE
ZINC02392505
   24    26     0     0     0
SMALL
USER_CHARGES
3-(3-thienyl)quinoline
@<TRIPOS>ATOM
      1 C1         -1.3712    5.8103    0.0469 C.ar      1 <0>        -0.1132
      2 C2         -2.5363    5.0457    0.0535 C.ar      1 <0>        -0.1006
      3 C3         -2.4844    3.6858    0.0456 C.ar      1 <0>        -0.0919
      4 C4         -1.2387    3.0342    0.0302 C.ar      1 <0>         0.1228
      5 C5         -0.0548    3.8140    0.0231 C.ar      1 <0>        -0.0963
      6 C6         -0.1465    5.2162    0.0320 C.ar      1 <0>        -0.0980
      7 C7          1.1918    3.1650    0.0077 C.ar      1 <0>        -0.0527
      8 C8          1.2033    1.7778    0.0001 C.ar      1 <0>        -0.0807
      9 C9         -0.0126    1.0758    0.0080 C.ar      1 <0>         0.1424
     10 N1         -1.1634    1.6992    0.0169 N.ar      1 <0>        -0.4692
     11 C10         2.4910    1.0415   -0.0156 C.2       1 <0>        -0.0795
     12 C11         2.5152   -0.3500   -0.0229 C.2       1 <0>        -0.1528
     13 C12         3.7085   -0.9854   -0.0377 C.2       1 <0>        -0.1654
     14 S1          4.8623    0.3762   -0.0421 S.3       1 <0>         0.0551
     15 C13         3.6810    1.7143   -0.0291 C.2       1 <0>        -0.1676
     16 H1         -1.4409    6.8880    0.0537 H         1 <0>         0.1296
     17 H2         -3.4962    5.5405    0.0654 H         1 <0>         0.1317
     18 H3         -3.3974    3.1088    0.0516 H         1 <0>         0.1367
     19 H4          0.7495    5.8191    0.0265 H         1 <0>         0.1312
     20 H5          2.1127    3.7291    0.0015 H         1 <0>         0.1402
     21 H6          0.0021   -0.0041    0.0020 H         1 <0>         0.1609
     22 H7          1.5942   -0.9140   -0.0171 H         1 <0>         0.1396
     23 H8          3.9117   -2.0461   -0.0453 H         1 <0>         0.1902
     24 H9          3.8600    2.7794   -0.0303 H         1 <0>         0.1875
@<TRIPOS>BOND
     1    1    6 ar
     2    1    2 ar
     3    1   16 1
     4    2    3 ar
     5    2   17 1
     6    3    4 ar
     7    3   18 1
     8    4   10 ar
     9    4    5 ar
    10    5    6 ar
    11    5    7 ar
    12    6   19 1
    13    7    8 ar
    14    7   20 1
    15    8    9 ar
    16    8   11 1
    17    9   10 ar
    18    9   21 1
    19   11   15 2
    20   11   12 1
    21   12   13 2
    22   12   22 1
    23   13   14 1
    24   13   23 1
    25   14   15 1
    26   15   24 1
@<TRIPOS>MOLECULE
ZINC27439698
   59    62     0     0     0
SMALL
USER_CHARGES

@<TRIPOS>ATOM
      1 C1         -0.2063    1.0844    0.8125 C.2       1 <0>        -0.0780
      2 C2         -0.0916   -0.1284    0.2785 C.2       1 <0>        -0.2217
      3 C3          1.1892   -0.8472    0.3546 C.2       1 <0>         0.5464
      4 O1          2.1435   -0.3327    0.9059 O.2       1 <0>        -0.5301
      5 N1          1.3054   -2.0761   -0.1864 N.am      1 <0>        -0.6549
      6 C4          2.5517   -2.7129   -0.2160 C.ar      1 <0>         0.1200
      7 C5          3.7048   -1.9595   -0.1827 C.ar      1 <0>        -0.0579
      8 C6          4.9490   -2.5997   -0.2120 C.ar      1 <0>        -0.1974
      9 C7          5.0154   -4.0138   -0.2753 C.ar      1 <0>         0.2129
     10 C8          3.8313   -4.7603   -0.3083 C.ar      1 <0>        -0.1947
     11 C9          2.6164   -4.1137   -0.2734 C.ar      1 <0>         0.1622
     12 O2          1.4681   -4.8389   -0.3002 O.3       1 <0>        -0.3093
     13 C10         1.5999   -6.2606   -0.3586 C.3       1 <0>         0.0588
     14 C11         0.2106   -6.9010   -0.3813 C.3       1 <0>        -0.1156
     15 C12         0.3517   -8.4232   -0.4438 C.3       1 <0>         0.0578
     16 N2         -0.9822   -9.0382   -0.4657 N.3       1 <0>        -0.5360
     17 C13        -1.6880   -8.8108    0.8038 C.3       1 <0>         0.0125
     18 C14        -3.0921   -9.4148    0.7161 C.3       1 <0>         0.0626
     19 O3         -2.9885  -10.8047    0.3955 O.3       1 <0>        -0.3850
     20 C15        -2.3071  -11.0626   -0.8351 C.3       1 <0>         0.0628
     21 C16        -0.8951  -10.4753   -0.7631 C.3       1 <0>         0.0171
     22 N3          6.2221   -4.6015   -0.3018 N.ar      1 <0>        -0.5452
     23 C17         7.3156   -3.8777   -0.2694 C.ar      1 <0>         0.3493
     24 N4          7.3023   -2.5556   -0.2097 N.ar      1 <0>        -0.5859
     25 C18         6.1642   -1.8746   -0.1796 C.ar      1 <0>         0.4714
     26 N5          6.1650   -0.4957   -0.1182 N.pl3     1 <0>        -0.6328
     27 C19         7.3694    0.2084   -0.2227 C.ar      1 <0>         0.1581
     28 C20         7.5013    1.4536    0.3785 C.ar      1 <0>        -0.1169
     29 C21         8.6911    2.1472    0.2750 C.ar      1 <0>        -0.1176
     30 C22         9.7524    1.6027   -0.4280 C.ar      1 <0>         0.0901
     31 C23         9.6235    0.3609   -1.0292 C.ar      1 <0>        -0.0524
     32 C24         8.4363   -0.3392   -0.9225 C.ar      1 <0>        -0.0856
     33 Cl1        10.9555   -0.3188   -1.9109 Cl        1 <0>        -0.0424
     34 F1         10.9152    2.2833   -0.5284 F         1 <0>        -0.1264
     35 H1          0.6411    1.5413    1.3020 H         1 <0>         0.1166
     36 H2         -1.1456    1.6141    0.7527 H         1 <0>         0.1209
     37 H3         -0.9390   -0.5853   -0.2110 H         1 <0>         0.1323
     38 H4          0.5255   -2.5194   -0.5554 H         1 <0>         0.4201
     39 H5          3.6489   -0.8820   -0.1348 H         1 <0>         0.1596
     40 H6          3.8708   -5.8385   -0.3565 H         1 <0>         0.1517
     41 H7          2.1429   -6.5383   -1.2620 H         1 <0>         0.0720
     42 H8          2.1473   -6.6110    0.5165 H         1 <0>         0.0691
     43 H9         -0.3323   -6.6233    0.5221 H         1 <0>         0.0760
     44 H10        -0.3367   -6.5506   -1.2564 H         1 <0>         0.0860
     45 H11         0.8947   -8.7010   -1.3473 H         1 <0>         0.0821
     46 H12         0.8990   -8.7736    0.4312 H         1 <0>         0.0409
     47 H13        -1.1377   -9.2854    1.6162 H         1 <0>         0.0448
     48 H14        -1.7636   -7.7398    0.9914 H         1 <0>         0.0895
     49 H15        -3.5986   -9.2990    1.6743 H         1 <0>         0.0993
     50 H16        -3.6604   -8.9035   -0.0609 H         1 <0>         0.0609
     51 H17        -2.2459  -12.1385   -0.9988 H         1 <0>         0.1001
     52 H18        -2.8525  -10.5991   -1.6572 H         1 <0>         0.0612
     53 H19        -0.3918  -10.6192   -1.7193 H         1 <0>         0.0886
     54 H20        -0.3321  -10.9764    0.0243 H         1 <0>         0.0452
     55 H21         8.2696   -4.3834   -0.2921 H         1 <0>         0.1993
     56 H22         5.3306   -0.0149   -0.0027 H         1 <0>         0.4275
     57 H23         6.6738    1.8794    0.9265 H         1 <0>         0.1431
     58 H24         8.7936    3.1154    0.7424 H         1 <0>         0.1506
     59 H25         8.3373   -1.3092   -1.3869 H         1 <0>         0.1663
@<TRIPOS>BOND
     1    1    2 2
     2    1   35 1
     3    1   36 1
     4    2    3 1
     5    2   37 1
     6    3    4 2
     7    3    5 am
     8    5    6 1
     9    5   38 1
    10    6   11 ar
    11    6    7 ar
    12    7    8 ar
    13    7   39 1
    14    8   25 ar
    15    8    9 ar
    16    9   10 ar
    17    9   22 ar
    18   10   11 ar
    19   10   40 1
    20   11   12 1
    21   12   13 1
    22   13   14 1
    23   13   41 1
    24   13   42 1
    25   14   15 1
    26   14   43 1
    27   14   44 1
    28   15   16 1
    29   15   45 1
    30   15   46 1
    31   16   21 1
    32   16   17 1
    33   17   18 1
    34   17   47 1
    35   17   48 1
    36   18   19 1
    37   18   49 1
    38   18   50 1
    39   19   20 1
    40   20   21 1
    41   20   51 1
    42   20   52 1
    43   21   53 1
    44   21   54 1
    45   22   23 ar
    46   23   24 ar
    47   23   55 1
    48   24   25 ar
    49   25   26 1
    50   26   27 1
    51   26   56 1
    52   27   32 ar
    53   27   28 ar
    54   28   29 ar
    55   28   57 1
    56   29   30 ar
    57   29   58 1
    58   30   31 ar
    59   30   34 1
    60   31   32 ar
    61   31   33 1
    62   32   59 1
@<TRIPOS>MOLECULE
ZINC02047503
   45    48     0     0     0
SMALL
USER_CHARGES
6-(2,6-dichlorophenyl)-2-[[3-(hydroxymethyl)phenyl]amino]-8-methyl-pyrido[6,5-d]pyrimidin-7-one
@<TRIPOS>ATOM
      1 C1          0.0685    1.0902    0.1116 C.3       1 <0>         0.0699
      2 N1         -0.4262    1.5833    1.3993 N.am      1 <0>        -0.5062
      3 C2         -0.5386    2.9342    1.6113 C.ar      1 <0>         0.4668
      4 C3         -1.0182    3.4258    2.8448 C.ar      1 <0>        -0.2772
      5 C4         -1.3770    2.5290    3.8769 C.2       1 <0>         0.0314
      6 C5         -1.2566    1.1828    3.6580 C.2       1 <0>        -0.1643
      7 C6         -0.7609    0.7061    2.3650 C.2       1 <0>         0.5577
      8 O1         -0.6511   -0.4900    2.1618 O.2       1 <0>        -0.5027
      9 C7         -1.6241    0.2171    4.7198 C.ar      1 <0>        -0.0102
     10 C8         -0.6661   -0.2109    5.6397 C.ar      1 <0>        -0.0065
     11 C9         -1.0165   -1.1073    6.6304 C.ar      1 <0>        -0.1064
     12 C10        -2.3111   -1.5889    6.7051 C.ar      1 <0>        -0.0874
     13 C11        -3.2642   -1.1726    5.7932 C.ar      1 <0>        -0.1064
     14 C12        -2.9282   -0.2726    4.8008 C.ar      1 <0>        -0.0064
     15 Cl1        -4.1255    0.2477    3.6566 Cl        1 <0>        -0.0501
     16 Cl2         0.9610    0.3864    5.5428 Cl        1 <0>        -0.0503
     17 C13        -1.1231    4.8140    3.0188 C.ar      1 <0>         0.2643
     18 N2         -0.7739    5.6039    2.0208 N.ar      1 <0>        -0.5677
     19 C14        -0.3311    5.1056    0.8717 C.ar      1 <0>         0.6091
     20 N3         -0.2145    3.8035    0.6608 N.ar      1 <0>        -0.5948
     21 N4          0.0210    5.9779   -0.1404 N.pl3     1 <0>        -0.6255
     22 C15        -0.1997    7.3500    0.0111 C.ar      1 <0>         0.1535
     23 C16        -1.3058    7.8032    0.7190 C.ar      1 <0>        -0.1019
     24 C17        -1.5179    9.1592    0.8714 C.ar      1 <0>        -0.1022
     25 C18        -0.6364   10.0658    0.3112 C.ar      1 <0>        -0.1107
     26 C19         0.4624    9.6181   -0.3988 C.ar      1 <0>        -0.0740
     27 C20         0.6833    8.2631   -0.5504 C.ar      1 <0>        -0.1226
     28 C21         1.4197   10.6097   -1.0082 C.3       1 <0>         0.1166
     29 O2          0.9930   10.9310   -2.3336 O.3       1 <0>        -0.5676
     30 H1          0.0950    0.0006    0.1256 H         1 <0>         0.1008
     31 H2          1.0728    1.4758   -0.0636 H         1 <0>         0.0801
     32 H3         -0.5942    1.4272   -0.6855 H         1 <0>         0.0804
     33 H4         -1.7410    2.9000    4.8236 H         1 <0>         0.1507
     34 H5         -0.2771   -1.4360    7.3457 H         1 <0>         0.1438
     35 H6         -2.5787   -2.2934    7.4788 H         1 <0>         0.1454
     36 H7         -4.2732   -1.5525    5.8570 H         1 <0>         0.1438
     37 H8         -1.4817    5.2275    3.9498 H         1 <0>         0.1884
     38 H9          0.4212    5.6382   -0.9561 H         1 <0>         0.4268
     39 H10        -1.9968    7.0958    1.1532 H         1 <0>         0.1360
     40 H11        -2.3754    9.5121    1.4250 H         1 <0>         0.1294
     41 H12        -0.8068   11.1258    0.4283 H         1 <0>         0.1250
     42 H13         1.5416    7.9141   -1.1054 H         1 <0>         0.1259
     43 H14         1.4384   11.5159   -0.4028 H         1 <0>         0.0579
     44 H15         2.4189   10.1755   -1.0434 H         1 <0>         0.0551
     45 H16         1.5640   11.5657   -2.7877 H         1 <0>         0.3824
@<TRIPOS>BOND
     1    1    2 1
     2    1   30 1
     3    1   31 1
     4    1   32 1
     5    2    7 am
     6    2    3 1
     7    3   20 ar
     8    3    4 ar
     9    4    5 1
    10    4   17 ar
    11    5    6 2
    12    5   33 1
    13    6    7 1
    14    6    9 1
    15    7    8 2
    16    9   14 ar
    17    9   10 ar
    18   10   11 ar
    19   10   16 1
    20   11   12 ar
    21   11   34 1
    22   12   13 ar
    23   12   35 1
    24   13   14 ar
    25   13   36 1
    26   14   15 1
    27   17   18 ar
    28   17   37 1
    29   18   19 ar
    30   19   20 ar
    31   19   21 1
    32   21   22 1
    33   21   38 1
    34   22   27 ar
    35   22   23 ar
    36   23   24 ar
    37   23   39 1
    38   24   25 ar
    39   24   40 1
    40   25   26 ar
    41   25   41 1
    42   26   27 ar
    43   26   28 1
    44   27   42 1
    45   28   29 1
    46   28   43 1
    47   28   44 1
    48   29   45 1
@<TRIPOS>MOLECULE
ZINC02047743
   45    48     0     0     0
SMALL
USER_CHARGES
6-(2,6-dichlorophenyl)-8-methyl-2-[(3-methylsulfanylphenyl)amino]pyrido[6,5-d]pyrimidin-7-one
@<TRIPOS>ATOM
      1 C1         -3.2149    9.9478    6.3397 C.3       1 <0>         0.0697
      2 N1         -2.5718   10.5969    5.1946 N.am      1 <0>        -0.5056
      3 C2         -2.0976    9.8322    4.1588 C.ar      1 <0>         0.4667
      4 C3         -1.4757   10.4419    3.0477 C.ar      1 <0>        -0.2757
      5 C4         -1.3364   11.8476    2.9932 C.2       1 <0>         0.0302
      6 C5         -1.8127   12.6024    4.0314 C.2       1 <0>        -0.1631
      7 C6         -2.4525   11.9382    5.1691 C.2       1 <0>         0.5568
      8 O1         -2.8794   12.6023    6.0968 O.2       1 <0>        -0.5010
      9 C7         -1.6815   14.0779    4.0044 C.ar      1 <0>        -0.0104
     10 C8         -0.5524   14.6911    4.5489 C.ar      1 <0>        -0.0065
     11 C9         -0.4345   16.0668    4.5170 C.ar      1 <0>        -0.1064
     12 C10        -1.4368   16.8371    3.9553 C.ar      1 <0>        -0.0873
     13 C11        -2.5608   16.2358    3.4182 C.ar      1 <0>        -0.1064
     14 C12        -2.6891   14.8608    3.4397 C.ar      1 <0>        -0.0064
     15 Cl1        -4.1011   14.1082    2.7661 Cl        1 <0>        -0.0503
     16 Cl2         0.7038   13.7265    5.2597 Cl        1 <0>        -0.0500
     17 C13        -1.0042    9.6238    2.0101 C.ar      1 <0>         0.2643
     18 N2         -1.1563    8.3171    2.1171 N.ar      1 <0>        -0.5670
     19 C14        -1.7515    7.7784    3.1755 C.ar      1 <0>         0.6097
     20 N3         -2.2123    8.5091    4.1791 N.ar      1 <0>        -0.5950
     21 N4         -1.8899    6.4048    3.2340 N.pl3     1 <0>        -0.6257
     22 C15        -1.5197    5.6178    2.1394 C.ar      1 <0>         0.1772
     23 C16        -1.6834    6.1025    0.8470 C.ar      1 <0>        -0.1138
     24 C17        -1.3176    5.3259   -0.2354 C.ar      1 <0>        -0.0792
     25 C18        -0.7826    4.0675   -0.0375 C.ar      1 <0>        -0.1466
     26 C19        -0.6215    3.5742    1.2521 C.ar      1 <0>        -0.0629
     27 C20        -0.9883    4.3524    2.3421 C.ar      1 <0>        -0.1252
     28 S1          0.0539    1.9663    1.5035 S.3       1 <0>        -0.1153
     29 C21         0.3690    1.3552   -0.1751 C.3       1 <0>        -0.1440
     30 H1         -2.4636    9.7144    7.0942 H         1 <0>         0.0748
     31 H2         -3.9613   10.6184    6.7655 H         1 <0>         0.0924
     32 H3         -3.6983    9.0276    6.0115 H         1 <0>         0.0952
     33 H4         -0.8618   12.3189    2.1453 H         1 <0>         0.1508
     34 H5          0.4406   16.5425    4.9347 H         1 <0>         0.1438
     35 H6         -1.3415   17.9127    3.9363 H         1 <0>         0.1454
     36 H7         -3.3400   16.8429    2.9814 H         1 <0>         0.1438
     37 H8         -0.5227   10.0538    1.1443 H         1 <0>         0.1886
     38 H9         -2.2438    5.9866    4.0344 H         1 <0>         0.4277
     39 H10        -2.0974    7.0873    0.6888 H         1 <0>         0.1382
     40 H11        -1.4455    5.7052   -1.2385 H         1 <0>         0.1308
     41 H12        -0.4935    3.4647   -0.8857 H         1 <0>         0.1250
     42 H13        -0.8598    3.9737    3.3453 H         1 <0>         0.1313
     43 H14         0.7936    0.3527   -0.1231 H         1 <0>         0.1105
     44 H15         1.0700    2.0210   -0.6785 H         1 <0>         0.0855
     45 H16        -0.5673    1.3248   -0.7324 H         1 <0>         0.0854
@<TRIPOS>BOND
     1    1    2 1
     2    1   30 1
     3    1   31 1
     4    1   32 1
     5    2    7 am
     6    2    3 1
     7    3   20 ar
     8    3    4 ar
     9    4    5 1
    10    4   17 ar
    11    5    6 2
    12    5   33 1
    13    6    7 1
    14    6    9 1
    15    7    8 2
    16    9   14 ar
    17    9   10 ar
    18   10   11 ar
    19   10   16 1
    20   11   12 ar
    21   11   34 1
    22   12   13 ar
    23   12   35 1
    24   13   14 ar
    25   13   36 1
    26   14   15 1
    27   17   18 ar
    28   17   37 1
    29   18   19 ar
    30   19   20 ar
    31   19   21 1
    32   21   22 1
    33   21   38 1
    34   22   27 ar
    35   22   23 ar
    36   23   24 ar
    37   23   39 1
    38   24   25 ar
    39   24   40 1
    40   25   26 ar
    41   25   41 1
    42   26   27 ar
    43   26   28 1
    44   27   42 1
    45   28   29 1
    46   29   43 1
    47   29   44 1
    48   29   45 1
@<TRIPOS>MOLECULE
ZINC03966300
   50    52     0     0     0
SMALL
USER_CHARGES
3-[2-chloro-4-(6,7-dimethoxyquinazolin-4-yl)oxy-phenyl]-1-propyl-urea
@<TRIPOS>ATOM
      1 C1         -1.9322    4.3018    1.7532 C.3       1 <0>        -0.1506
      2 C2         -0.7747    3.5591    1.0827 C.3       1 <0>        -0.1365
      3 C3         -0.9855    2.0505    1.2260 C.3       1 <0>         0.1345
      4 N1          0.1227    1.3393    0.5840 N.am      1 <0>        -0.7389
      5 C4          0.1498   -0.0082    0.5855 C.2       1 <0>         0.7064
      6 O1         -0.7432   -0.6336    1.1240 O.2       1 <0>        -0.5684
      7 N2          1.1665   -0.6625   -0.0100 N.am      1 <0>        -0.6836
      8 C5          1.2442   -2.0597    0.0716 C.ar      1 <0>         0.1882
      9 C6          0.0831   -2.8207    0.0770 C.ar      1 <0>        -0.0952
     10 C7          0.1600   -4.1970    0.1574 C.ar      1 <0>        -0.0779
     11 C8          1.3975   -4.8202    0.2328 C.ar      1 <0>         0.0790
     12 C9          2.5586   -4.0612    0.2275 C.ar      1 <0>        -0.0836
     13 C10         2.4834   -2.6840    0.1413 C.ar      1 <0>        -0.0565
     14 Cl1         3.9364   -1.7341    0.1274 Cl        1 <0>        -0.0535
     15 O2          1.4720   -6.1754    0.3124 O.3       1 <0>        -0.2316
     16 C11         1.2385   -6.8915   -0.8116 C.ar      1 <0>         0.3977
     17 C12         1.4048   -8.2945   -0.8251 C.ar      1 <0>        -0.1530
     18 C13         1.8030   -9.0063    0.3144 C.ar      1 <0>        -0.1376
     19 C14         1.9421  -10.3631    0.2460 C.ar      1 <0>         0.1108
     20 C15         1.6855  -11.0507   -0.9490 C.ar      1 <0>         0.1699
     21 C16         1.2904  -10.3805   -2.0729 C.ar      1 <0>        -0.1875
     22 C17         1.1395   -8.9887   -2.0320 C.ar      1 <0>         0.1979
     23 N3          0.7537   -8.2859   -3.1077 N.ar      1 <0>        -0.5243
     24 C18         0.6210   -6.9829   -3.0370 C.ar      1 <0>         0.3380
     25 N4          0.8531   -6.2950   -1.9299 N.ar      1 <0>        -0.5745
     26 O3          1.8310  -12.4007   -0.9901 O.3       1 <0>        -0.2965
     27 C19         1.5548  -13.0455   -2.2351 C.3       1 <0>         0.0194
     28 O4          2.3335  -11.0552    1.3491 O.3       1 <0>        -0.2999
     29 C20         2.5799  -10.2987    2.5360 C.3       1 <0>         0.0213
     30 H1         -1.7820    5.3765    1.6511 H         1 <0>         0.0618
     31 H2         -2.8704    4.0190    1.2758 H         1 <0>         0.0591
     32 H3         -1.9688    4.0388    2.8104 H         1 <0>         0.0591
     33 H4          0.1635    3.8418    1.5601 H         1 <0>         0.0697
     34 H5         -0.7381    3.8220    0.0255 H         1 <0>         0.0697
     35 H6         -1.9238    1.7677    0.7486 H         1 <0>         0.0703
     36 H7         -1.0221    1.7875    2.2832 H         1 <0>         0.0704
     37 H8          0.8351    1.8382    0.1544 H         1 <0>         0.3995
     38 H9          1.8445   -0.1665   -0.4950 H         1 <0>         0.4108
     39 H10        -0.8803   -2.3362    0.0180 H         1 <0>         0.1597
     40 H11        -0.7434   -4.7887    0.1620 H         1 <0>         0.1381
     41 H12         3.5215   -4.5468    0.2858 H         1 <0>         0.1456
     42 H13         2.0028   -8.4851    1.2389 H         1 <0>         0.1540
     43 H14         1.0953  -10.9212   -2.9872 H         1 <0>         0.1584
     44 H15         0.3088   -6.4474   -3.9214 H         1 <0>         0.2011
     45 H16         0.5209  -12.8535   -2.5222 H         1 <0>         0.0626
     46 H17         2.2233  -12.6553   -3.0025 H         1 <0>         0.0626
     47 H18         1.7093  -14.1193   -2.1303 H         1 <0>         0.1079
     48 H19         1.6704   -9.7733    2.8274 H         1 <0>         0.0598
     49 H20         2.8842  -10.9706    3.3385 H         1 <0>         0.1066
     50 H21         3.3730   -9.5751    2.3476 H         1 <0>         0.0595
@<TRIPOS>BOND
     1    1    2 1
     2    1   30 1
     3    1   31 1
     4    1   32 1
     5    2    3 1
     6    2   33 1
     7    2   34 1
     8    3    4 1
     9    3   35 1
    10    3   36 1
    11    4    5 am
    12    4   37 1
    13    5    6 2
    14    5    7 am
    15    7    8 1
    16    7   38 1
    17    8   13 ar
    18    8    9 ar
    19    9   10 ar
    20    9   39 1
    21   10   11 ar
    22   10   40 1
    23   11   12 ar
    24   11   15 1
    25   12   13 ar
    26   12   41 1
    27   13   14 1
    28   15   16 1
    29   16   25 ar
    30   16   17 ar
    31   17   22 ar
    32   17   18 ar
    33   18   19 ar
    34   18   42 1
    35   19   20 ar
    36   19   28 1
    37   20   21 ar
    38   20   26 1
    39   21   22 ar
    40   21   43 1
    41   22   23 ar
    42   23   24 ar
    43   24   25 ar
    44   24   44 1
    45   26   27 1
    46   27   45 1
    47   27   46 1
    48   27   47 1
    49   28   29 1
    50   29   48 1
    51   29   49 1
    52   29   50 1
@<TRIPOS>MOLECULE
ZINC43129461
   71    74     0     0     0
SMALL
USER_CHARGES

@<TRIPOS>ATOM
      1 C1          0.1412    1.0958    0.0245 C.3       1 <0>        -0.1877
      2 C2          0.0343   -0.4072    0.2899 C.3       1 <0>        -0.0130
      3 N1         -1.3805   -0.7840    0.4090 N.4       1 <0>        -0.3814
      4 C3         -1.4799   -2.1981    0.7943 C.3       1 <0>        -0.0136
      5 C4         -0.8912   -2.3880    2.1937 C.3       1 <0>        -0.1480
      6 C5         -0.9947   -3.8608    2.5950 C.3       1 <0>         0.0597
      7 O1         -0.4449   -4.0381    3.9021 O.3       1 <0>        -0.3038
      8 C6         -0.4591   -5.2969    4.4113 C.ar      1 <0>         0.1781
      9 C7         -0.9923   -6.3430    3.6529 C.ar      1 <0>        -0.2017
     10 C8         -1.0190   -7.6149    4.1393 C.ar      1 <0>        -0.0296
     11 C9         -0.5067   -7.8812    5.4148 C.ar      1 <0>        -0.2176
     12 C10         0.0360   -6.8274    6.1915 C.ar      1 <0>         0.2265
     13 C11         0.0576   -5.5295    5.6681 C.ar      1 <0>        -0.1532
     14 N2          0.5211   -7.1085    7.4106 N.ar      1 <0>        -0.5472
     15 C12         0.4917   -8.3369    7.8711 C.ar      1 <0>         0.3522
     16 N3         -0.0047   -9.3517    7.1826 N.ar      1 <0>        -0.5832
     17 C13        -0.5099   -9.1841    5.9669 C.ar      1 <0>         0.4869
     18 N4         -1.0246  -10.2512    5.2605 N.pl3     1 <0>        -0.6010
     19 C14        -1.0183  -11.5330    5.8248 C.2       1 <0>         0.3061
     20 C15        -0.5270  -11.8723    7.0959 C.2       1 <0>        -0.2334
     21 C16        -0.7020  -13.2023    7.2669 C.2       1 <0>         0.0995
     22 N5         -1.2813  -13.6907    6.1499 N.pl3     1 <0>        -0.4600
     23 H1         -1.5240  -14.6165    5.9920 H         1 <0>         0.4395
     24 N6         -1.4756  -12.6260    5.2606 N.2       1 <0>        -0.3132
     25 C17        -0.3179  -13.9980    8.4876 C.3       1 <0>        -0.0736
     26 C18        -1.4253  -13.9203    9.5069 C.2       1 <0>         0.5124
     27 O2         -2.4277  -13.2816    9.2656 O.2       1 <0>        -0.4954
     28 N7         -1.3017  -14.5605   10.6864 N.am      1 <0>        -0.6738
     29 C19        -2.2814  -14.4046   11.6731 C.ar      1 <0>         0.1731
     30 C20        -1.9205  -14.3798   13.0142 C.ar      1 <0>        -0.1549
     31 C21        -2.8887  -14.2254   13.9867 C.ar      1 <0>        -0.0711
     32 C22        -4.2176  -14.0957   13.6276 C.ar      1 <0>        -0.1683
     33 C23        -4.5819  -14.1198   12.2917 C.ar      1 <0>         0.1190
     34 C24        -3.6151  -14.2686   11.3132 C.ar      1 <0>        -0.1590
     35 F1         -5.8812  -13.9933   11.9436 F         1 <0>        -0.1348
     36 C25        -2.0520   -0.5798   -0.8814 C.3       1 <0>        -0.0107
     37 C26        -3.5536   -0.8245   -0.7194 C.3       1 <0>         0.0927
     38 O3         -4.1052    0.1612    0.1558 O.3       1 <0>        -0.7578
     39 P1         -5.6390    0.1400    0.6447 P.3       1 <0>         2.1017
     40 O4         -6.5846    0.1017   -0.6038 O.2       1 <0>        -1.1721
     41 O5         -5.8881   -1.1299    1.5277 O.3       1 <0>        -1.1714
     42 O6         -5.9368    1.4276    1.4860 O.3       1 <0>        -1.1488
     43 H2          1.1901    1.3923    0.0315 H         1 <0>         0.0965
     44 H3         -0.2947    1.3249   -0.9479 H         1 <0>         0.0817
     45 H4         -0.3956    1.6409    0.8008 H         1 <0>         0.0844
     46 H5          0.4880   -0.9552   -0.5360 H         1 <0>         0.1221
     47 H6          0.5544   -0.6504    1.2165 H         1 <0>         0.1246
     48 H7         -2.5268   -2.5014    0.7963 H         1 <0>         0.1454
     49 H8         -0.9260   -2.8087    0.0813 H         1 <0>         0.1270
     50 H9          0.1557   -2.0846    2.1918 H         1 <0>         0.0937
     51 H10        -1.4451   -1.7773    2.9068 H         1 <0>         0.1060
     52 H11        -2.0417   -4.1641    2.5970 H         1 <0>         0.0850
     53 H12        -0.4409   -4.4714    1.8820 H         1 <0>         0.0737
     54 H13        -1.3884   -6.1401    2.6689 H         1 <0>         0.1410
     55 H14        -1.4340   -8.4146    3.5438 H         1 <0>         0.1329
     56 H15         0.4717   -4.7162    6.2456 H         1 <0>         0.1504
     57 H16         0.8909   -8.5281    8.8563 H         1 <0>         0.1983
     58 H17        -1.3909  -10.1139    4.3729 H         1 <0>         0.4265
     59 H18        -0.0875  -11.1918    7.8102 H         1 <0>         0.1855
     60 H19        -0.1551  -15.0386    8.2067 H         1 <0>         0.1119
     61 H20         0.5980  -13.5893    8.9144 H         1 <0>         0.1297
     62 H21        -0.5335  -15.1293   10.8513 H         1 <0>         0.4154
     63 H22        -0.8830  -14.4817   13.2963 H         1 <0>         0.1340
     64 H23        -2.6076  -14.2062   15.0293 H         1 <0>         0.1384
     65 H24        -4.9729  -13.9757   14.3902 H         1 <0>         0.1374
     66 H25        -3.8982  -14.2834   10.2710 H         1 <0>         0.1503
     67 H26        -1.8850    0.4427   -1.2201 H         1 <0>         0.1337
     68 H27        -1.6475   -1.2764   -1.6158 H         1 <0>         0.1254
     69 H28        -4.0395   -0.7589   -1.6929 H         1 <0>         0.0845
     70 H29        -3.7166   -1.8165   -0.2981 H         1 <0>         0.0571
     71 H30        -1.8229   -0.2118    1.1126 H         1 <0>         0.4394
@<TRIPOS>BOND
     1    1    2 1
     2    1   43 1
     3    1   44 1
     4    1   45 1
     5    2    3 1
     6    2   46 1
     7    2   47 1
     8    3    4 1
     9    3   36 1
    10    3   71 1
    11    4    5 1
    12    4   48 1
    13    4   49 1
    14    5    6 1
    15    5   50 1
    16    5   51 1
    17    6    7 1
    18    6   52 1
    19    6   53 1
    20    7    8 1
    21    8   13 ar
    22    8    9 ar
    23    9   10 ar
    24    9   54 1
    25   10   11 ar
    26   10   55 1
    27   11   17 ar
    28   11   12 ar
    29   12   13 ar
    30   12   14 ar
    31   13   56 1
    32   14   15 ar
    33   15   16 ar
    34   15   57 1
    35   16   17 ar
    36   17   18 1
    37   18   19 1
    38   18   58 1
    39   19   24 2
    40   19   20 1
    41   20   21 2
    42   20   59 1
    43   21   22 1
    44   21   25 1
    45   22   23 1
    46   22   24 1
    47   25   26 1
    48   25   60 1
    49   25   61 1
    50   26   27 2
    51   26   28 am
    52   28   29 1
    53   28   62 1
    54   29   34 ar
    55   29   30 ar
    56   30   31 ar
    57   30   63 1
    58   31   32 ar
    59   31   64 1
    60   32   33 ar
    61   32   65 1
    62   33   34 ar
    63   33   35 1
    64   34   66 1
    65   36   37 1
    66   36   67 1
    67   36   68 1
    68   37   38 1
    69   37   69 1
    70   37   70 1
    71   38   39 1
    72   39   40 2
    73   39   41 1
    74   39   42 1
@<TRIPOS>MOLECULE
ZINC43129461
   73    76     0     0     0
SMALL
USER_CHARGES

@<TRIPOS>ATOM
      1 C1          0.1409    1.0918    0.0251 C.3       1 <0>        -0.1892
      2 C2          0.0339   -0.4112    0.2906 C.3       1 <0>        -0.0152
      3 N1         -1.3809   -0.7879    0.4099 N.4       1 <0>        -0.3842
      4 C3         -1.4803   -2.2020    0.7953 C.3       1 <0>        -0.0158
      5 C4         -0.8914   -2.3919    2.1946 C.3       1 <0>        -0.1503
      6 C5         -0.9949   -3.8647    2.5959 C.3       1 <0>         0.0579
      7 O1         -0.4450   -4.0420    3.9029 O.3       1 <0>        -0.2993
      8 C6         -0.4592   -5.3008    4.4121 C.ar      1 <0>         0.1817
      9 C7         -0.9925   -6.3469    3.6538 C.ar      1 <0>        -0.1818
     10 C8         -1.0193   -7.6187    4.1402 C.ar      1 <0>        -0.0436
     11 C9         -0.5068   -7.8851    5.4157 C.ar      1 <0>        -0.1976
     12 C10         0.0362   -6.8313    6.1923 C.ar      1 <0>         0.2239
     13 C11         0.0578   -5.5334    5.6688 C.ar      1 <0>        -0.1405
     14 N2          0.5214   -7.1125    7.4113 N.ar      1 <0>        -0.5107
     15 C12         0.4920   -8.3409    7.8718 C.ar      1 <0>         0.3510
     16 N3         -0.0046   -9.3556    7.1834 N.ar      1 <0>        -0.5709
     17 C13        -0.5099   -9.1879    5.9677 C.ar      1 <0>         0.4598
     18 N4         -1.0249  -10.2553    5.2612 N.pl3     1 <0>        -0.6021
     19 C14        -1.0187  -11.5304    5.8226 C.2       1 <0>         0.4560
     20 C15        -0.5390  -11.8669    7.0517 C.2       1 <0>        -0.2320
     21 C16        -0.7243  -13.2413    7.2224 C.2       1 <0>         0.2582
     22 N5         -1.2916  -13.7195    6.1448 N.pl3     1 <0>        -0.3700
     23 N6         -1.4952  -12.6642    5.2465 N.pl3     1 <0>        -0.4476
     24 C17        -0.3360  -14.0381    8.4412 C.3       1 <0>        -0.1008
     25 C18        -1.4386  -13.9586    9.4655 C.2       1 <0>         0.5174
     26 O2         -2.4410  -13.3180    9.2291 O.2       1 <0>        -0.5061
     27 N7         -1.3107  -14.5994   10.6443 N.am      1 <0>        -0.6579
     28 C19        -2.2856  -14.4419   11.6355 C.ar      1 <0>         0.1577
     29 C20        -1.9185  -14.4182   12.9750 C.ar      1 <0>        -0.1459
     30 C21        -2.8820  -14.2623   13.9520 C.ar      1 <0>        -0.0677
     31 C22        -4.2123  -14.1302   13.5990 C.ar      1 <0>        -0.1573
     32 C23        -4.5828  -14.1533   12.2647 C.ar      1 <0>         0.1189
     33 C24        -3.6207  -14.3035   11.2818 C.ar      1 <0>        -0.1569
     34 F1         -5.8834  -14.0244   11.9227 F         1 <0>        -0.1323
     35 C25        -2.0526   -0.5836   -0.8804 C.3       1 <0>        -0.0130
     36 C26        -3.5541   -0.8283   -0.7182 C.3       1 <0>         0.1008
     37 O3         -4.1055    0.1575    0.1571 O.3       1 <0>        -0.7650
     38 P1         -5.6393    0.1364    0.6462 P.3       1 <0>         2.2015
     39 O4         -6.5720    0.0987   -0.5849 O.2       1 <0>        -1.0927
     40 O5         -5.8849   -1.1160    1.5170 O.3       1 <0>        -1.0945
     41 O6         -5.9451    1.4596    1.5109 O.3       1 <0>        -0.8978
     42 H1          1.1898    1.3882    0.0319 H         1 <0>         0.1035
     43 H2         -0.2951    1.3210   -0.9472 H         1 <0>         0.0827
     44 H3         -0.3958    1.6370    0.8015 H         1 <0>         0.0823
     45 H4          0.4874   -0.9592   -0.5353 H         1 <0>         0.1283
     46 H5          0.5541   -0.6544    1.2171 H         1 <0>         0.1288
     47 H6         -2.5272   -2.5053    0.7974 H         1 <0>         0.1420
     48 H7         -0.9266   -2.8127    0.0821 H         1 <0>         0.1333
     49 H8          0.1555   -2.0886    2.1924 H         1 <0>         0.0995
     50 H9         -1.4451   -1.7812    2.9077 H         1 <0>         0.1051
     51 H10        -2.0419   -4.1679    2.5981 H         1 <0>         0.0848
     52 H11        -0.4412   -4.4754    1.8828 H         1 <0>         0.0778
     53 H12        -1.3888   -6.1439    2.6698 H         1 <0>         0.1468
     54 H13        -1.4344   -8.4184    3.5448 H         1 <0>         0.1339
     55 H14         0.4720   -4.7201    6.2463 H         1 <0>         0.1595
     56 H15         0.8913   -8.5321    8.8569 H         1 <0>         0.2128
     57 H16        -1.3914  -10.1180    4.3736 H         1 <0>         0.4383
     58 H17        -0.0939  -11.1915    7.7674 H         1 <0>         0.2299
     59 H18        -0.1764  -15.0788    8.1593 H         1 <0>         0.1396
     60 H19         0.5826  -13.6311    8.8639 H         1 <0>         0.1633
     61 H20        -0.5428  -15.1696   10.8056 H         1 <0>         0.4210
     62 H21        -0.8799  -14.5220   13.2523 H         1 <0>         0.1376
     63 H22        -2.5961  -14.2439   14.9933 H         1 <0>         0.1439
     64 H23        -4.9639  -14.0091   14.3651 H         1 <0>         0.1423
     65 H24        -3.9087  -14.3175   10.2410 H         1 <0>         0.1477
     66 H25        -1.8856    0.4389   -1.2191 H         1 <0>         0.1423
     67 H26        -1.6482   -1.2803   -1.6148 H         1 <0>         0.1408
     68 H27        -4.0402   -0.7626   -1.6916 H         1 <0>         0.1052
     69 H28        -3.7172   -1.8203   -0.2969 H         1 <0>         0.0749
     70 H29        -6.8531    1.5139    1.8391 H         1 <0>         0.4246
     71 H30        -1.8231   -0.2157    1.1136 H         1 <0>         0.4343
     72 H31        -1.9019  -12.7316    4.3685 H         1 <0>         0.4711
     73 H32        -1.5334  -14.6468    5.9949 H         1 <0>         0.4758
@<TRIPOS>BOND
     1    1    2 1
     2    1   42 1
     3    1   43 1
     4    1   44 1
     5    2    3 1
     6    2   45 1
     7    2   46 1
     8    3    4 1
     9    3   35 1
    10    3   71 1
    11    4    5 1
    12    4   47 1
    13    4   48 1
    14    5    6 1
    15    5   49 1
    16    5   50 1
    17    6    7 1
    18    6   51 1
    19    6   52 1
    20    7    8 1
    21    8   13 ar
    22    8    9 ar
    23    9   10 ar
    24    9   53 1
    25   10   11 ar
    26   10   54 1
    27   11   17 ar
    28   11   12 ar
    29   12   13 ar
    30   12   14 ar
    31   13   55 1
    32   14   15 ar
    33   15   16 ar
    34   15   56 1
    35   16   17 ar
    36   17   18 1
    37   18   19 1
    38   18   57 1
    39   19   20 2
    40   19   23 1
    41   20   58 1
    42   20   21 1
    43   21   24 1
    44   21   22 2
    45   22   23 1
    46   22   73 1
    47   23   72 1
    48   24   25 1
    49   24   59 1
    50   24   60 1
    51   25   26 2
    52   25   27 am
    53   27   28 1
    54   27   61 1
    55   28   33 ar
    56   28   29 ar
    57   29   30 ar
    58   29   62 1
    59   30   31 ar
    60   30   63 1
    61   31   32 ar
    62   31   64 1
    63   32   33 ar
    64   32   34 1
    65   33   65 1
    66   35   36 1
    67   35   66 1
    68   35   67 1
    69   36   37 1
    70   36   68 1
    71   36   69 1
    72   37   38 1
    73   38   39 2
    74   38   40 1
    75   38   41 1
    76   41   70 1
@<TRIPOS>MOLECULE
ZINC11617039
   55    58     0     0     0
SMALL
USER_CHARGES

@<TRIPOS>ATOM
      1 H1          0.2120    6.2074    3.3921 H         1 <0>         0.1353
      2 C1         -0.6814    5.6062    3.3098 C.ar      1 <0>         0.0196
      3 C2         -1.0741    5.1311    2.1031 C.ar      1 <0>        -0.1998
      4 C3         -2.2288    4.3474    1.9606 C.ar      1 <0>         0.2426
      5 C4         -3.0111    4.0257    3.0293 C.ar      1 <0>        -0.1858
      6 C5         -2.6578    4.4884    4.3143 C.ar      1 <0>         0.1374
      7 C6         -1.4433    5.3059    4.4600 C.ar      1 <0>        -0.2352
      8 C7         -1.3367    5.6110    5.8041 C.2       1 <0>         0.1330
      9 N1         -2.3705    5.0424    6.4391 N.pl3     1 <0>        -0.3190
     10 N2         -3.1795    4.3626    5.5213 N.2       1 <0>        -0.3200
     11 C8         -2.6225    5.1281    7.8797 C.3       1 <0>         0.0831
     12 H2         -3.2434    5.9992    8.0888 H         1 <0>         0.0888
     13 H3         -3.1369    4.2268    8.2129 H         1 <0>         0.0992
     14 H4         -1.6744    5.2222    8.4094 H         1 <0>         0.0983
     15 C9         -0.2495    6.4365    6.4425 C.3       1 <0>        -0.1025
     16 H5         -0.5455    7.4855    6.4477 H         1 <0>         0.0927
     17 H6         -0.0907    6.0987    7.4666 H         1 <0>         0.0807
     18 H7          0.6740    6.3223    5.8749 H         1 <0>         0.0943
     19 H8         -3.8955    3.4210    2.8932 H         1 <0>         0.1075
     20 N3         -2.5862    3.8853    0.6908 N.pl3     1 <0>        -0.5925
     21 C10        -3.6562    3.0160    0.5454 C.ar      1 <0>         0.5430
     22 C11        -3.4766    1.6392    0.6984 C.ar      1 <0>        -0.2193
     23 C12        -4.5711    0.8111    0.5450 C.ar      1 <0>         0.2156
     24 N4         -5.7510    1.3422    0.2594 N.ar      1 <0>        -0.5411
     25 C13        -5.8925    2.6520    0.1199 C.ar      1 <0>         0.6254
     26 N5         -4.8692    3.4808    0.2639 N.ar      1 <0>        -0.5160
     27 N6         -7.1427    3.1682   -0.1788 N.pl3     1 <0>        -0.6061
     28 C14        -7.2911    4.5338   -0.4396 C.ar      1 <0>         0.0902
     29 C15        -6.2697    5.2382   -1.0645 C.ar      1 <0>        -0.0370
     30 C16        -6.4197    6.5867   -1.3210 C.ar      1 <0>        -0.1186
     31 C17        -7.5850    7.2362   -0.9562 C.ar      1 <0>         0.0334
     32 C18        -8.6034    6.5381   -0.3338 C.ar      1 <0>        -0.6606
     33 C19        -8.4623    5.1877   -0.0798 C.ar      1 <0>        -0.0140
     34 S1        -10.0857    7.3705    0.1294 S.o2      1 <0>         2.7024
     35 O1        -10.5091    8.1093   -1.0082 O.2       1 <0>        -0.9461
     36 O2        -10.9137    6.4040    0.7615 O.2       1 <0>        -0.9598
     37 N7         -9.6818    8.4799    1.2907 N.pl3     1 <0>        -1.2481
     38 C20        -7.7450    8.7080   -1.2374 C.3       1 <0>        -0.1567
     39 H9         -8.1929    8.8433   -2.2218 H         1 <0>         0.1090
     40 H10        -8.3897    9.1545   -0.4804 H         1 <0>         0.0769
     41 H11        -6.7680    9.1908   -1.2132 H         1 <0>         0.0924
     42 H12        -4.4665   -0.2581    0.6563 H         1 <0>         0.2280
     43 H13        -2.5039    1.2316    0.9310 H         1 <0>         0.1988
     44 C21        -1.8301    4.3196   -0.4864 C.3       1 <0>         0.0917
     45 H14        -1.0078    3.6271   -0.6659 H         1 <0>         0.0746
     46 H15        -2.4881    4.3354   -1.3553 H         1 <0>         0.0729
     47 H16        -1.4320    5.3196   -0.3140 H         1 <0>         0.0953
     48 H17        -0.4834    5.3620    1.2289 H         1 <0>         0.1346
     49 H18        -7.9152    2.5823   -0.2071 H         1 <0>         0.4391
     50 H19        -5.3592    4.7318   -1.3490 H         1 <0>         0.1427
     51 H20        -5.6260    7.1349   -1.8068 H         1 <0>         0.1482
     52 H21        -9.2599    4.6421    0.4024 H         1 <0>         0.1564
     53 H22        -8.7604    8.5635    1.5820 H         1 <0>         0.4174
     54 H23       -10.3667    9.0460    1.6797 H         1 <0>         0.4270
     55 H24        -6.5221    0.7638    0.1506 H         1 <0>         0.4504
@<TRIPOS>BOND
     1    1    2 1
     2    2    7 ar
     3    2    3 ar
     4    3    4 ar
     5    3   48 1
     6    4    5 ar
     7    4   20 1
     8    5    6 ar
     9    5   19 1
    10    6   10 2
    11    6    7 ar
    12    7    8 2
    13    8    9 1
    14    8   15 1
    15    9   10 1
    16    9   11 1
    17   11   12 1
    18   11   13 1
    19   11   14 1
    20   15   16 1
    21   15   17 1
    22   15   18 1
    23   20   21 1
    24   20   44 1
    25   21   26 ar
    26   21   22 ar
    27   22   23 ar
    28   22   43 1
    29   23   24 ar
    30   23   42 1
    31   24   25 ar
    32   24   55 1
    33   25   26 ar
    34   25   27 1
    35   27   28 1
    36   27   49 1
    37   28   33 ar
    38   28   29 ar
    39   29   30 ar
    40   29   50 1
    41   30   31 ar
    42   30   51 1
    43   31   32 ar
    44   31   38 1
    45   32   33 ar
    46   32   34 1
    47   33   52 1
    48   34   35 2
    49   34   36 2
    50   34   37 1
    51   37   53 1
    52   37   54 1
    53   38   39 1
    54   38   40 1
    55   38   41 1
    56   44   45 1
    57   44   46 1
    58   44   47 1
@<TRIPOS>MOLECULE
ZINC34885047
   54    57     0     0     0
SMALL
USER_CHARGES

@<TRIPOS>ATOM
      1 C1          0.1956   -8.1849    0.9094 C.3       1 <0>        -0.0785
      2 C2          0.1293   -6.7057    0.6288 C.2       1 <0>         0.0885
      3 C3          0.1319   -5.6909    1.5895 C.2       1 <0>        -0.2739
      4 C4          0.0607   -4.4980    0.9369 C.2       1 <0>         0.3068
      5 N1          0.0151   -4.7636   -0.3942 N.pl3     1 <0>        -0.4950
      6 N2          0.0654   -6.1540   -0.5558 N.2       1 <0>        -0.2801
      7 H1         -0.0392   -4.1072   -1.1063 H         1 <0>         0.4357
      8 N3          0.0383   -3.2359    1.5267 N.pl3     1 <0>        -0.6259
      9 C5         -0.0499   -3.1163    2.9062 C.ar      1 <0>         0.4764
     10 C6         -0.1829   -1.8625    3.4985 C.ar      1 <0>        -0.3500
     11 C7         -0.2684   -1.7891    4.8868 C.ar      1 <0>         0.4670
     12 N4         -0.2207   -2.9110    5.5990 N.ar      1 <0>        -0.5905
     13 C8         -0.0933   -4.0907    5.0014 C.ar      1 <0>         0.4457
     14 N5         -0.0141   -4.1975    3.6794 N.ar      1 <0>        -0.5725
     15 C9         -0.0437   -5.3108    5.8245 C.2       1 <0>        -0.1368
     16 C10        -0.0261   -6.5180    5.2356 C.2       1 <0>        -0.0158
     17 C11        -0.0947   -7.7396    6.0570 C.ar      1 <0>        -0.0835
     18 C12        -0.1840   -7.6460    7.4485 C.ar      1 <0>        -0.1003
     19 C13        -0.2478   -8.7936    8.2106 C.ar      1 <0>        -0.1231
     20 C14        -0.2236  -10.0356    7.6008 C.ar      1 <0>        -0.1032
     21 C15        -0.1348  -10.1361    6.2234 C.ar      1 <0>        -0.1213
     22 C16        -0.0766   -8.9972    5.4478 C.ar      1 <0>        -0.0908
     23 N6         -0.4010   -0.5618    5.5181 N.pl3     1 <0>        -0.6188
     24 C17        -0.2758   -0.4454    6.9792 C.3       1 <0>         0.1037
     25 C18         0.7164    0.6792    7.2935 C.3       1 <0>        -0.0227
     26 N7          0.2862    1.9120    6.6219 N.4       1 <0>        -0.3852
     27 C19         0.3403    1.7332    5.1655 C.3       1 <0>        -0.0217
     28 C20        -0.6649    0.6617    4.7452 C.3       1 <0>         0.0996
     29 C21         1.1746    3.0152    7.0113 C.3       1 <0>        -0.0471
     30 H2         -0.8145   -8.5793    1.0198 H         1 <0>         0.0807
     31 H3          0.6944   -8.6897    0.0821 H         1 <0>         0.0762
     32 H4          0.7547   -8.3554    1.8294 H         1 <0>         0.0794
     33 H5          0.1811   -5.8284    2.6596 H         1 <0>         0.1832
     34 H6          0.0843   -2.4408    0.9729 H         1 <0>         0.4221
     35 H7         -0.2185   -0.9676    2.8949 H         1 <0>         0.1410
     36 H8         -0.0216   -5.2351    6.9016 H         1 <0>         0.1430
     37 H9          0.0384   -6.5933    4.1601 H         1 <0>         0.1401
     38 H10        -0.2026   -6.6774    7.9258 H         1 <0>         0.1261
     39 H11        -0.3164   -8.7229    9.2861 H         1 <0>         0.1262
     40 H12        -0.2738  -10.9309    8.2027 H         1 <0>         0.1261
     41 H13        -0.1161  -11.1088    5.7544 H         1 <0>         0.1287
     42 H14        -0.0122   -9.0771    4.3727 H         1 <0>         0.1300
     43 H15        -1.2475   -0.2082    7.4123 H         1 <0>         0.0911
     44 H16         0.0927   -1.3848    7.3912 H         1 <0>         0.1398
     45 H17         0.7492    0.8444    8.3704 H         1 <0>         0.1444
     46 H18         1.7080    0.3988    6.9383 H         1 <0>         0.1323
     47 H19         0.0960    2.6751    4.6743 H         1 <0>         0.1450
     48 H20         1.3433    1.4209    4.8747 H         1 <0>         0.1335
     49 H21        -0.5535    0.4539    3.6810 H         1 <0>         0.1288
     50 H22        -1.6766    1.0126    4.9489 H         1 <0>         0.0961
     51 H23         2.1975    2.7788    6.7180 H         1 <0>         0.1218
     52 H24         0.8564    3.9311    6.5134 H         1 <0>         0.1255
     53 H25         1.1293    3.1543    8.0915 H         1 <0>         0.1264
     54 H26        -0.6592    2.1315    6.8977 H         1 <0>         0.4258
@<TRIPOS>BOND
     1    1    2 1
     2    1   30 1
     3    1   31 1
     4    1   32 1
     5    2    3 1
     6    2    6 2
     7    3   33 1
     8    3    4 2
     9    4    8 1
    10    4    5 1
    11    5    7 1
    12    5    6 1
    13    8    9 1
    14    8   34 1
    15    9   14 ar
    16    9   10 ar
    17   10   11 ar
    18   10   35 1
    19   11   12 ar
    20   11   23 1
    21   12   13 ar
    22   13   14 ar
    23   13   15 1
    24   15   16 2
    25   15   36 1
    26   16   17 1
    27   16   37 1
    28   17   22 ar
    29   17   18 ar
    30   18   19 ar
    31   18   38 1
    32   19   20 ar
    33   19   39 1
    34   20   21 ar
    35   20   40 1
    36   21   22 ar
    37   21   41 1
    38   22   42 1
    39   23   28 1
    40   23   24 1
    41   24   25 1
    42   24   43 1
    43   24   44 1
    44   25   26 1
    45   25   45 1
    46   25   46 1
    47   26   27 1
    48   26   29 1
    49   26   54 1
    50   27   28 1
    51   27   47 1
    52   27   48 1
    53   28   49 1
    54   28   50 1
    55   29   51 1
    56   29   52 1
    57   29   53 1
@<TRIPOS>MOLECULE
ZINC34885047
   55    58     0     0     0
SMALL
USER_CHARGES

@<TRIPOS>ATOM
      1 C1          0.7214   -0.2663   -2.4222 C.3       1 <0>        -0.0896
      2 C2          0.7310   -0.8132   -1.0180 C.2       1 <0>         0.1183
      3 C3          0.2120   -2.0476   -0.6184 C.2       1 <0>        -0.2385
      4 C4          0.4140   -2.1711    0.7225 C.2       1 <0>         0.2867
      5 N1          1.0419   -1.0437    1.1458 N.pl3     1 <0>        -0.5013
      6 N2          1.2317   -0.2152    0.0324 N.2       1 <0>        -0.2605
      7 H1          1.3135   -0.8484    2.0563 H         1 <0>         0.4322
      8 N3          0.0439   -3.2554    1.5154 N.pl3     1 <0>        -0.6090
      9 C5          0.1546   -3.1750    2.8961 C.ar      1 <0>         0.4957
     10 C6          0.1324   -1.9371    3.5347 C.ar      1 <0>        -0.3535
     11 C7          0.2461   -1.9033    4.9224 C.ar      1 <0>         0.5251
     12 N4          0.3713   -3.0463    5.5904 N.ar      1 <0>        -0.5525
     13 C8          0.3887   -4.2099    4.9493 C.ar      1 <0>         0.5207
     14 N5          0.2776   -4.2790    3.6270 N.ar      1 <0>        -0.5647
     15 C9          0.5296   -5.4543    5.7239 C.2       1 <0>        -0.2363
     16 C10         0.6385   -5.4039    7.0618 C.2       1 <0>         0.0998
     17 C11         0.7794   -6.6492    7.8370 C.ar      1 <0>        -0.1304
     18 C12         0.8059   -7.8841    7.1832 C.ar      1 <0>        -0.0787
     19 C13         0.9380   -9.0454    7.9153 C.ar      1 <0>        -0.1241
     20 C14         1.0442   -8.9899    9.2940 C.ar      1 <0>        -0.0698
     21 C15         1.0183   -7.7708    9.9483 C.ar      1 <0>        -0.1245
     22 C16         0.8930   -6.6008    9.2290 C.ar      1 <0>        -0.0687
     23 N6          0.2292   -0.6931    5.5989 N.pl3     1 <0>        -0.5876
     24 C17         0.5614   -0.6220    7.0302 C.3       1 <0>         0.0889
     25 C18         1.6111    0.4759    7.2312 C.3       1 <0>        -0.0237
     26 N7          1.1165    1.7352    6.6605 N.4       1 <0>        -0.3873
     27 C19         0.9612    1.5985    5.2068 C.3       1 <0>        -0.0238
     28 C20        -0.1153    0.5570    4.9042 C.3       1 <0>         0.0845
     29 C21         2.0737    2.8112    6.9499 C.3       1 <0>        -0.0496
     30 H2         -0.1921    0.3062   -2.5829 H         1 <0>         0.0915
     31 H3          1.5862    0.3815   -2.5657 H         1 <0>         0.0851
     32 H4          0.7632   -1.0911   -3.1336 H         1 <0>         0.0909
     33 H5         -0.2649   -2.7744   -1.2592 H         1 <0>         0.1692
     34 H6         -0.2912   -4.0664    1.1020 H         1 <0>         0.4507
     35 H7          0.0299   -1.0244    2.9665 H         1 <0>         0.1793
     36 H8          0.5453   -6.4075    5.2163 H         1 <0>         0.1645
     37 H9          0.6228   -4.4507    7.5694 H         1 <0>         0.1470
     38 H10         0.7228   -7.9289    6.1073 H         1 <0>         0.1294
     39 H11         0.9583  -10.0004    7.4115 H         1 <0>         0.1370
     40 H12         1.1475   -9.9026    9.8621 H         1 <0>         0.1375
     41 H13         1.1014   -7.7353   11.0245 H         1 <0>         0.1378
     42 H14         0.8778   -5.6498    9.7406 H         1 <0>         0.1330
     43 H15        -0.3345   -0.3813    7.6026 H         1 <0>         0.1122
     44 H16         0.9646   -1.5792    7.3607 H         1 <0>         0.1449
     45 H17         1.7987    0.6087    8.2967 H         1 <0>         0.1566
     46 H18         2.5368    0.1895    6.7320 H         1 <0>         0.1374
     47 H19         0.6699    2.5584    4.7805 H         1 <0>         0.1589
     48 H20         1.9066    1.2781    4.7689 H         1 <0>         0.1387
     49 H21        -0.1592    0.3788    3.8297 H         1 <0>         0.1301
     50 H22        -1.0806    0.9187    5.2582 H         1 <0>         0.1200
     51 H23         3.0399    2.5664    6.5087 H         1 <0>         0.1254
     52 H24         1.7077    3.7467    6.5267 H         1 <0>         0.1318
     53 H25         2.1839    2.9191    8.0289 H         1 <0>         0.1322
     54 H26         0.2241    1.9623    7.0730 H         1 <0>         0.4301
     55 H27         0.2900   -5.1446    3.1895 H         1 <0>         0.4509
@<TRIPOS>BOND
     1    1    2 1
     2    1   30 1
     3    1   31 1
     4    1   32 1
     5    2    3 1
     6    2    6 2
     7    3   33 1
     8    3    4 2
     9    4    8 1
    10    4    5 1
    11    5    7 1
    12    5    6 1
    13    8    9 1
    14    8   34 1
    15    9   14 ar
    16    9   10 ar
    17   10   11 ar
    18   10   35 1
    19   11   12 ar
    20   11   23 1
    21   12   13 ar
    22   13   14 ar
    23   13   15 1
    24   14   55 1
    25   15   16 2
    26   15   36 1
    27   16   17 1
    28   16   37 1
    29   17   22 ar
    30   17   18 ar
    31   18   19 ar
    32   18   38 1
    33   19   20 ar
    34   19   39 1
    35   20   21 ar
    36   20   40 1
    37   21   22 ar
    38   21   41 1
    39   22   42 1
    40   23   28 1
    41   23   24 1
    42   24   25 1
    43   24   43 1
    44   24   44 1
    45   25   26 1
    46   25   45 1
    47   25   46 1
    48   26   27 1
    49   26   29 1
    50   26   54 1
    51   27   28 1
    52   27   47 1
    53   27   48 1
    54   28   49 1
    55   28   50 1
    56   29   51 1
    57   29   52 1
    58   29   53 1
@<TRIPOS>MOLECULE
ZINC34885047
   55    58     0     0     0
SMALL
USER_CHARGES

@<TRIPOS>ATOM
      1 C1          0.7372   -0.2667   -2.4212 C.3       1 <0>        -0.1308
      2 C2          0.7435   -0.8136   -1.0170 C.2       1 <0>         0.2826
      3 C3          0.2224   -2.0474   -0.6184 C.2       1 <0>        -0.2481
      4 C4          0.4217   -2.1712    0.7229 C.2       1 <0>         0.4500
      5 N1          1.0500   -1.0445    1.1473 N.pl3     1 <0>        -0.4632
      6 N2          1.2428   -0.2161    0.0343 N.pl3     1 <0>        -0.3667
      7 N3          0.0489   -3.2551    1.5150 N.pl3     1 <0>        -0.6164
      8 C5          0.1571   -3.1749    2.8959 C.ar      1 <0>         0.4695
      9 C6          0.1350   -1.9370    3.5345 C.ar      1 <0>        -0.3443
     10 C7          0.2461   -1.9033    4.9224 C.ar      1 <0>         0.5141
     11 N4          0.3689   -3.0464    5.5906 N.ar      1 <0>        -0.5388
     12 C8          0.3862   -4.2100    4.9495 C.ar      1 <0>         0.5195
     13 N5          0.2775   -4.2790    3.6270 N.ar      1 <0>        -0.5664
     14 C9          0.5243   -5.4546    5.7243 C.2       1 <0>        -0.2414
     15 C10         0.6307   -5.4044    7.0624 C.2       1 <0>         0.1062
     16 C11         0.7689   -6.6499    7.8379 C.ar      1 <0>        -0.1314
     17 C12         0.7953   -7.8847    7.1841 C.ar      1 <0>        -0.0784
     18 C13         0.9248   -9.0462    7.9165 C.ar      1 <0>        -0.1260
     19 C14         1.0285   -8.9908    9.2953 C.ar      1 <0>        -0.0689
     20 C15         1.0026   -7.7718    9.9496 C.ar      1 <0>        -0.1241
     21 C16         0.8799   -6.6016    9.2301 C.ar      1 <0>        -0.0654
     22 N6          0.2292   -0.6931    5.5989 N.pl3     1 <0>        -0.5319
     23 C17         0.5615   -0.6236    7.0299 C.3       1 <0>         0.1037
     24 C18         1.6253    0.4609    7.2305 C.3       1 <0>         0.0354
     25 N7          1.1532    1.7207    6.6405 N.3       1 <0>        -0.5413
     26 C19         0.9694    1.5932    5.1886 C.3       1 <0>         0.0348
     27 C20        -0.1154    0.5559    4.9030 C.3       1 <0>         0.1032
     28 C21         2.0657    2.8265    6.9606 C.3       1 <0>         0.0210
     29 H1         -0.1754    0.3068   -2.5837 H         1 <0>         0.1328
     30 H2          1.6030    0.3802   -2.5631 H         1 <0>         0.1112
     31 H3          0.7794   -1.0915   -3.1326 H         1 <0>         0.1328
     32 H4         -0.2541   -2.7737   -1.2602 H         1 <0>         0.2144
     33 H5         -0.2863   -4.0658    1.1010 H         1 <0>         0.4654
     34 H6          0.0345   -1.0241    2.9661 H         1 <0>         0.1704
     35 H7          0.5400   -6.4078    5.2168 H         1 <0>         0.1646
     36 H8          0.6151   -4.4512    7.5700 H         1 <0>         0.1502
     37 H9          0.7142   -7.9295    6.1081 H         1 <0>         0.1285
     38 H10         0.9450  -10.0013    7.4126 H         1 <0>         0.1364
     39 H11         1.1297   -9.9036    9.8636 H         1 <0>         0.1374
     40 H12         1.0836   -7.7363   11.0260 H         1 <0>         0.1386
     41 H13         0.8647   -5.6505    9.7417 H         1 <0>         0.1356
     42 H14        -0.3316   -0.3705    7.6013 H         1 <0>         0.1068
     43 H15         0.9519   -1.5854    7.3624 H         1 <0>         0.1142
     44 H16         1.8036    0.6029    8.2964 H         1 <0>         0.1111
     45 H17         2.5518    0.1561    6.7438 H         1 <0>         0.0456
     46 H18         0.6720    2.5562    4.7737 H         1 <0>         0.1081
     47 H19         1.9050    1.2725    4.7304 H         1 <0>         0.0409
     48 H20        -0.1723    0.3735    3.8298 H         1 <0>         0.0837
     49 H21        -1.0748    0.9246    5.2659 H         1 <0>         0.1158
     50 H22         3.0571    2.6054    6.5653 H         1 <0>         0.0334
     51 H23         1.6925    3.7470    6.5117 H         1 <0>         0.0800
     52 H24         2.1244    2.9476    8.0422 H         1 <0>         0.0840
     53 H25         0.2899   -5.1446    3.1895 H         1 <0>         0.4506
     54 H26         1.3201   -0.8495    2.0583 H         1 <0>         0.4677
     55 H27         1.6717    0.6539    0.0421 H         1 <0>         0.4835
@<TRIPOS>BOND
     1    1    2 1
     2    1   29 1
     3    1   30 1
     4    1   31 1
     5    2    3 1
     6    2    6 2
     7    3   32 1
     8    3    4 2
     9    4    7 1
    10    4    5 1
    11    5   54 1
    12    5    6 1
    13    6   55 1
    14    7    8 1
    15    7   33 1
    16    8   13 ar
    17    8    9 ar
    18    9   10 ar
    19    9   34 1
    20   10   11 ar
    21   10   22 1
    22   11   12 ar
    23   12   13 ar
    24   12   14 1
    25   13   53 1
    26   14   15 2
    27   14   35 1
    28   15   16 1
    29   15   36 1
    30   16   21 ar
    31   16   17 ar
    32   17   18 ar
    33   17   37 1
    34   18   19 ar
    35   18   38 1
    36   19   20 ar
    37   19   39 1
    38   20   21 ar
    39   20   40 1
    40   21   41 1
    41   22   27 1
    42   22   23 1
    43   23   24 1
    44   23   42 1
    45   23   43 1
    46   24   25 1
    47   24   44 1
    48   24   45 1
    49   25   26 1
    50   25   28 1
    51   26   27 1
    52   26   46 1
    53   26   47 1
    54   27   48 1
    55   27   49 1
    56   28   50 1
    57   28   51 1
    58   28   52 1
@<TRIPOS>MOLECULE
ZINC22449469
   74    78     0     0     0
SMALL
USER_CHARGES

@<TRIPOS>ATOM
      1 C1          1.6200   -1.5857   -4.2133 C.3       1 <0>        -0.0457
      2 N1          1.1042   -2.2979   -3.0366 N.4       1 <0>        -0.3891
      3 C2          0.6210   -3.6248   -3.4407 C.3       1 <0>        -0.0013
      4 C3          0.0663   -4.3599   -2.2185 C.3       1 <0>         0.0260
      5 N2          1.1250   -4.4920   -1.2077 N.3       1 <0>        -0.5236
      6 C4          1.6361   -3.1722   -0.8115 C.3       1 <0>         0.0190
      7 C5          2.1778   -2.4469   -2.0453 C.3       1 <0>         0.0004
      8 C6          0.6468   -5.2437   -0.0397 C.3       1 <0>         0.0382
      9 C7          1.8119   -5.5712    0.8583 C.2       1 <0>         0.5151
     10 O1          2.9305   -5.2135    0.5552 O.2       1 <0>        -0.5111
     11 N3          1.6108   -6.2614    1.9984 N.am      1 <0>        -0.5638
     12 C8          0.2491   -6.6000    2.4192 C.3       1 <0>         0.0714
     13 C9          2.7039   -6.6550    2.7807 C.ar      1 <0>         0.0880
     14 C10         3.4772   -5.6979    3.4248 C.ar      1 <0>        -0.0594
     15 C11         4.5546   -6.0855    4.1955 C.ar      1 <0>        -0.1576
     16 C12         4.8653   -7.4333    4.3273 C.ar      1 <0>         0.2055
     17 C13         4.0913   -8.3905    3.6832 C.ar      1 <0>        -0.1610
     18 C14         3.0108   -8.0027    2.9168 C.ar      1 <0>        -0.0724
     19 N4          5.9572   -7.8262    5.1077 N.pl3     1 <0>        -0.6661
     20 C15         6.3653   -9.1334    5.1054 C.2       1 <0>         0.3219
     21 C16         6.3952   -9.8552    6.2951 C.2       1 <0>        -0.2136
     22 C17         6.9454  -11.2087    6.5011 C.ar      1 <0>        -0.0552
     23 C18         7.5608  -12.1327    5.6578 C.ar      1 <0>        -0.0866
     24 C19         7.9740  -13.3370    6.1503 C.ar      1 <0>        -0.0786
     25 C20         7.7818  -13.6478    7.5020 C.ar      1 <0>        -0.0930
     26 C21         7.1664  -12.7290    8.3549 C.ar      1 <0>        -0.0681
     27 C22         6.7458  -11.5064    7.8599 C.ar      1 <0>         0.1311
     28 N5          6.1180  -10.4193    8.4558 N.am      1 <0>        -0.6517
     29 C23         5.9079   -9.4383    7.5621 C.2       1 <0>         0.5643
     30 O2          5.3815   -8.3650    7.7999 O.2       1 <0>        -0.5077
     31 C24         8.2305  -14.9501    8.0268 C.2       1 <0>         0.5078
     32 O3          8.0650  -15.2223    9.1995 O.2       1 <0>        -0.4988
     33 O4          8.8243  -15.8390    7.2060 O.3       1 <0>        -0.3474
     34 C25         9.2338  -17.0810    7.7821 C.3       1 <0>         0.0336
     35 C26         6.7731   -9.7761    3.8428 C.ar      1 <0>        -0.0960
     36 C27         6.1914  -10.9850    3.4502 C.ar      1 <0>        -0.0837
     37 C28         6.5780  -11.5802    2.2679 C.ar      1 <0>        -0.1219
     38 C29         7.5393  -10.9837    1.4707 C.ar      1 <0>        -0.0938
     39 C30         8.1197   -9.7868    1.8528 C.ar      1 <0>        -0.1198
     40 C31         7.7392   -9.1768    3.0296 C.ar      1 <0>        -0.0769
     41 H1          2.4418   -2.1530   -4.6501 H         1 <0>         0.1233
     42 H2          0.8234   -1.4750   -4.9491 H         1 <0>         0.1241
     43 H3          1.9775   -0.6004   -3.9138 H         1 <0>         0.1242
     44 H4         -0.1666   -3.5132   -4.1859 H         1 <0>         0.1374
     45 H5          1.4451   -4.1976   -3.8661 H         1 <0>         0.1387
     46 H6         -0.7667   -3.7942   -1.8010 H         1 <0>         0.0624
     47 H7         -0.2787   -5.3503   -2.5154 H         1 <0>         0.1251
     48 H8          0.8290   -2.5869   -0.3708 H         1 <0>         0.0569
     49 H9          2.4363   -3.2960   -0.0819 H         1 <0>         0.1392
     50 H10         2.9939   -3.0257   -2.4778 H         1 <0>         0.1396
     51 H11         2.5444   -1.4620   -1.7560 H         1 <0>         0.1359
     52 H12        -0.0767   -4.6408    0.5091 H         1 <0>         0.0780
     53 H13         0.1728   -6.1675   -0.3713 H         1 <0>         0.1196
     54 H14        -0.0313   -7.5661    1.9996 H         1 <0>         0.0664
     55 H15         0.2070   -6.6504    3.5072 H         1 <0>         0.0835
     56 H16        -0.4417   -5.8353    2.0639 H         1 <0>         0.0741
     57 H17         3.2356   -4.6503    3.3224 H         1 <0>         0.1234
     58 H18         5.1564   -5.3412    4.6958 H         1 <0>         0.1317
     59 H19         4.3328   -9.4382    3.7852 H         1 <0>         0.1304
     60 H20         2.4064   -8.7470    2.4197 H         1 <0>         0.1270
     61 H21         6.4255   -7.1729    5.6506 H         1 <0>         0.4225
     62 H22         7.7103  -11.8958    4.6148 H         1 <0>         0.1426
     63 H23         8.4499  -14.0521    5.4956 H         1 <0>         0.1460
     64 H24         7.0188  -12.9715    9.3969 H         1 <0>         0.1450
     65 H25         5.8689  -10.3731    9.3921 H         1 <0>         0.4213
     66 H26         9.6960  -17.7023    7.0150 H         1 <0>         0.1062
     67 H27         9.9531  -16.8923    8.5790 H         1 <0>         0.0634
     68 H28         8.3646  -17.5957    8.1915 H         1 <0>         0.0633
     69 H29         5.4414  -11.4518    4.0714 H         1 <0>         0.1312
     70 H30         6.1297  -12.5145    1.9634 H         1 <0>         0.1329
     71 H31         7.8383  -11.4548    0.5460 H         1 <0>         0.1291
     72 H32         8.8692   -9.3272    1.2256 H         1 <0>         0.1298
     73 H33         8.1894   -8.2403    3.3241 H         1 <0>         0.1256
     74 H34         0.3438   -1.7723   -2.6321 H         1 <0>         0.4216
@<TRIPOS>BOND
     1    1    2 1
     2    1   41 1
     3    1   42 1
     4    1   43 1
     5    2    7 1
     6    2    3 1
     7    2   74 1
     8    3    4 1
     9    3   44 1
    10    3   45 1
    11    4    5 1
    12    4   46 1
    13    4   47 1
    14    5    6 1
    15    5    8 1
    16    6    7 1
    17    6   48 1
    18    6   49 1
    19    7   50 1
    20    7   51 1
    21    8    9 1
    22    8   52 1
    23    8   53 1
    24    9   10 2
    25    9   11 am
    26   11   12 1
    27   11   13 1
    28   12   54 1
    29   12   55 1
    30   12   56 1
    31   13   18 ar
    32   13   14 ar
    33   14   15 ar
    34   14   57 1
    35   15   16 ar
    36   15   58 1
    37   16   17 ar
    38   16   19 1
    39   17   18 ar
    40   17   59 1
    41   18   60 1
    42   19   20 1
    43   19   61 1
    44   20   21 2
    45   20   35 1
    46   21   29 1
    47   21   22 1
    48   22   27 ar
    49   22   23 ar
    50   23   24 ar
    51   23   62 1
    52   24   25 ar
    53   24   63 1
    54   25   26 ar
    55   25   31 1
    56   26   27 ar
    57   26   64 1
    58   27   28 1
    59   28   29 am
    60   28   65 1
    61   29   30 2
    62   31   32 2
    63   31   33 1
    64   33   34 1
    65   34   66 1
    66   34   67 1
    67   34   68 1
    68   35   40 ar
    69   35   36 ar
    70   36   37 ar
    71   36   69 1
    72   37   38 ar
    73   37   70 1
    74   38   39 ar
    75   38   71 1
    76   39   40 ar
    77   39   72 1
    78   40   73 1
@<TRIPOS>MOLECULE
ZINC22449469
   74    78     0     0     0
SMALL
USER_CHARGES

@<TRIPOS>ATOM
      1 C1          1.8905   -1.2340   -4.0590 C.3       1 <0>        -0.0458
      2 N1          1.3432   -1.9811   -2.9188 N.4       1 <0>        -0.3890
      3 C2          0.8615   -3.2907   -3.3776 C.3       1 <0>        -0.0014
      4 C3          0.2741   -4.0618   -2.1935 C.3       1 <0>         0.0262
      5 N2          1.3081   -4.2342   -1.1633 N.3       1 <0>        -0.5238
      6 C4          1.8177   -2.9316   -0.7121 C.3       1 <0>         0.0192
      7 C5          2.3924   -2.1698   -1.9084 C.3       1 <0>         0.0003
      8 C6          0.7983   -5.0207   -0.0322 C.3       1 <0>         0.0382
      9 C7          1.9402   -5.3854    0.8812 C.2       1 <0>         0.5153
     10 O1          3.0677   -5.0255    0.6160 O.2       1 <0>        -0.5102
     11 N3          1.7084   -6.1114    1.9929 N.am      1 <0>        -0.5650
     12 C8          0.3349   -6.4504    2.3732 C.3       1 <0>         0.0715
     13 C9          2.7808   -6.5416    2.7845 C.ar      1 <0>         0.0916
     14 C10         3.5480   -5.6144    3.4777 C.ar      1 <0>        -0.0599
     15 C11         4.6051   -6.0381    4.2575 C.ar      1 <0>        -0.1595
     16 C12         4.9014   -7.3924    4.3493 C.ar      1 <0>         0.1982
     17 C13         4.1335   -8.3198    3.6561 C.ar      1 <0>        -0.1559
     18 C14         3.0733   -7.8959    2.8806 C.ar      1 <0>        -0.0721
     19 N4          5.9727   -7.8219    5.1389 N.pl3     1 <0>        -0.6763
     20 C15         6.3653   -9.1334    5.1054 C.2       1 <0>         0.3268
     21 C16         6.3747   -9.8871    6.2755 C.2       1 <0>        -0.2173
     22 C17         5.8714   -9.4788    7.6010 C.ar      1 <0>        -0.0582
     23 C18         5.2751   -8.3148    8.0839 C.ar      1 <0>        -0.0826
     24 C19         4.9077   -8.2295    9.3960 C.ar      1 <0>        -0.0794
     25 C20         5.1278   -9.3094   10.2598 C.ar      1 <0>        -0.0935
     26 C21         5.7244  -10.4797    9.7858 C.ar      1 <0>        -0.0677
     27 C22         6.0986  -10.5706    8.4560 C.ar      1 <0>         0.1336
     28 N5          6.6987  -11.5836    7.7179 N.am      1 <0>        -0.6522
     29 C23         6.8650  -11.2099    6.4381 C.2       1 <0>         0.5658
     30 O2          7.3595  -11.8945    5.5593 O.2       1 <0>        -0.4960
     31 C24         4.7285   -9.2103   11.6753 C.2       1 <0>         0.5076
     32 O3          4.9184  -10.1459   12.4271 O.2       1 <0>        -0.4977
     33 O4          4.1530   -8.0820   12.1357 O.3       1 <0>        -0.3483
     34 C25         3.7917   -8.0554   13.5180 C.3       1 <0>         0.0336
     35 C26         6.7781   -9.7469    3.8300 C.ar      1 <0>        -0.0992
     36 C27         7.7088   -9.1031    3.0096 C.ar      1 <0>        -0.0767
     37 C28         8.0901   -9.6831    1.8180 C.ar      1 <0>        -0.1285
     38 C29         7.5536  -10.8996    1.4337 C.ar      1 <0>        -0.0915
     39 C30         6.6315  -11.5430    2.2407 C.ar      1 <0>        -0.1238
     40 C31         6.2450  -10.9781    3.4378 C.ar      1 <0>        -0.0444
     41 H1          2.7189   -1.7923   -4.4952 H         1 <0>         0.1234
     42 H2          1.1121   -1.0939   -4.8090 H         1 <0>         0.1241
     43 H3          2.2468   -0.2616   -3.7190 H         1 <0>         0.1243
     44 H4          0.0922   -3.1493   -4.1367 H         1 <0>         0.1375
     45 H5          1.6919   -3.8547   -3.8024 H         1 <0>         0.1388
     46 H6         -0.5649   -3.5046   -1.7769 H         1 <0>         0.0625
     47 H7         -0.0698   -5.0395   -2.5308 H         1 <0>         0.1252
     48 H8          1.0041   -2.3558   -0.2710 H         1 <0>         0.0569
     49 H9          2.6000   -3.0849    0.0314 H         1 <0>         0.1391
     50 H10         3.2149   -2.7396   -2.3408 H         1 <0>         0.1397
     51 H11         2.7581   -1.1975   -1.5783 H         1 <0>         0.1360
     52 H12         0.0659   -4.4313    0.5194 H         1 <0>         0.0781
     53 H13         0.3267   -5.9299   -0.4050 H         1 <0>         0.1197
     54 H14         0.0548   -7.3992    1.9155 H         1 <0>         0.0665
     55 H15         0.2690   -6.5368    3.4578 H         1 <0>         0.0836
     56 H16        -0.3411   -5.6676    2.0294 H         1 <0>         0.0743
     57 H17         3.3176   -4.5617    3.4063 H         1 <0>         0.1240
     58 H18         5.2021   -5.3170    4.7959 H         1 <0>         0.1324
     59 H19         4.3638   -9.3725    3.7270 H         1 <0>         0.1315
     60 H20         2.4736   -8.6172    2.3452 H         1 <0>         0.1276
     61 H21         6.4376   -7.1909    5.7103 H         1 <0>         0.4197
     62 H22         5.1041   -7.4803    7.4200 H         1 <0>         0.1318
     63 H23         4.4466   -7.3269    9.7687 H         1 <0>         0.1453
     64 H24         5.8937  -11.3109   10.4544 H         1 <0>         0.1456
     65 H25         6.9586  -12.4463    8.0773 H         1 <0>         0.4220
     66 H26         3.3396   -7.0928   13.7569 H         1 <0>         0.1059
     67 H27         3.0773   -8.8530   13.7222 H         1 <0>         0.0634
     68 H28         4.6825   -8.2002   14.1292 H         1 <0>         0.0637
     69 H29         8.1281   -8.1536    3.3081 H         1 <0>         0.1218
     70 H30         8.8088   -9.1866    1.1829 H         1 <0>         0.1266
     71 H31         7.8557  -11.3489    0.4992 H         1 <0>         0.1258
     72 H32         6.2171  -12.4921    1.9342 H         1 <0>         0.1277
     73 H33         5.5290  -11.4837    4.0688 H         1 <0>         0.1222
     74 H34         0.5767   -1.4639   -2.5148 H         1 <0>         0.4215
@<TRIPOS>BOND
     1    1    2 1
     2    1   41 1
     3    1   42 1
     4    1   43 1
     5    2    7 1
     6    2    3 1
     7    2   74 1
     8    3    4 1
     9    3   44 1
    10    3   45 1
    11    4    5 1
    12    4   46 1
    13    4   47 1
    14    5    6 1
    15    5    8 1
    16    6    7 1
    17    6   48 1
    18    6   49 1
    19    7   50 1
    20    7   51 1
    21    8    9 1
    22    8   52 1
    23    8   53 1
    24    9   10 2
    25    9   11 am
    26   11   12 1
    27   11   13 1
    28   12   54 1
    29   12   55 1
    30   12   56 1
    31   13   18 ar
    32   13   14 ar
    33   14   15 ar
    34   14   57 1
    35   15   16 ar
    36   15   58 1
    37   16   17 ar
    38   16   19 1
    39   17   18 ar
    40   17   59 1
    41   18   60 1
    42   19   20 1
    43   19   61 1
    44   20   21 2
    45   20   35 1
    46   21   29 1
    47   21   22 1
    48   22   27 ar
    49   22   23 ar
    50   23   24 ar
    51   23   62 1
    52   24   25 ar
    53   24   63 1
    54   25   26 ar
    55   25   31 1
    56   26   27 ar
    57   26   64 1
    58   27   28 1
    59   28   29 am
    60   28   65 1
    61   29   30 2
    62   31   32 2
    63   31   33 1
    64   33   34 1
    65   34   66 1
    66   34   67 1
    67   34   68 1
    68   35   40 ar
    69   35   36 ar
    70   36   37 ar
    71   36   69 1
    72   37   38 ar
    73   37   70 1
    74   38   39 ar
    75   38   71 1
    76   39   40 ar
    77   39   72 1
    78   40   73 1
@<TRIPOS>MOLECULE
ZINC22449469
   74    78     0     0     0
SMALL
USER_CHARGES
methyl (3Z)-3-[[[4-[methyl-[2-(4-methylpiperazin-1-yl)acetyl]amino]phenyl]amino]-phenyl-methylene]-2-oxo-indoline-6-carboxylate
@<TRIPOS>ATOM
      1 C1          0.1652    5.0587   11.0404 C.3       1 <0>         0.0170
      2 N1         -0.6347    3.9333   10.5391 N.3       1 <0>        -0.5443
      3 C2         -2.0308    4.3361   10.3193 C.3       1 <0>         0.0236
      4 C3         -2.8461    3.1196    9.8748 C.3       1 <0>         0.0014
      5 N2         -2.2617    2.5640    8.6461 N.4       1 <0>        -0.3901
      6 C4         -0.8656    2.1612    8.8658 C.3       1 <0>        -0.0065
      7 C5         -0.0503    3.3777    9.3105 C.3       1 <0>         0.0276
      8 C6         -3.0617    1.4385    8.1448 C.3       1 <0>        -0.0258
      9 C7         -2.5819    1.0548    6.7688 C.2       1 <0>         0.5001
     10 O1         -1.6638    1.6593    6.2560 O.2       1 <0>        -0.5159
     11 N3         -3.1730    0.0397    6.1077 N.am      1 <0>        -0.5369
     12 C8         -4.3571   -0.6115    6.6732 C.3       1 <0>         0.0561
     13 C9         -2.6550   -0.3923    4.8802 C.ar      1 <0>         0.0686
     14 C10        -2.1981   -1.6963    4.7398 C.ar      1 <0>        -0.0707
     15 C11        -1.6877   -2.1223    3.5303 C.ar      1 <0>        -0.1615
     16 C12        -1.6311   -1.2466    2.4531 C.ar      1 <0>         0.2147
     17 C13        -2.0829    0.0594    2.5955 C.ar      1 <0>        -0.1620
     18 C14        -2.5981    0.4835    3.8037 C.ar      1 <0>        -0.0511
     19 N4         -1.1140   -1.6781    1.2275 N.pl3     1 <0>        -0.6878
     20 C15        -1.1902   -0.8653    0.1280 C.2       1 <0>         0.3236
     21 C16        -0.0287   -0.4841   -0.5375 C.2       1 <0>        -0.2114
     22 C17         1.3623   -0.7433   -0.1192 C.ar      1 <0>        -0.0646
     23 C18         1.9295   -1.3932    0.9760 C.ar      1 <0>        -0.0818
     24 C19         3.2872   -1.4754    1.0932 C.ar      1 <0>        -0.0834
     25 C20         4.1134   -0.9070    0.1160 C.ar      1 <0>        -0.0924
     26 C21         3.5550   -0.2533   -0.9845 C.ar      1 <0>        -0.0705
     27 C22         2.1787   -0.1681   -1.1078 C.ar      1 <0>         0.1323
     28 N5          1.3573    0.4066   -2.0702 N.am      1 <0>        -0.6654
     29 C23         0.0617    0.2348   -1.7588 C.2       1 <0>         0.5711
     30 O2         -0.8834    0.6280   -2.4204 O.2       1 <0>        -0.4973
     31 C24         5.5786   -0.9986    0.2497 C.2       1 <0>         0.5077
     32 O3          6.2979   -0.5058   -0.5967 O.2       1 <0>        -0.4988
     33 O4          6.1203   -1.6288    1.3107 O.3       1 <0>        -0.3540
     34 C25         7.5699   -1.6805    1.3771 C.3       1 <0>         0.0322
     35 C26        -2.5026   -0.3941   -0.3509 C.ar      1 <0>        -0.0949
     36 C27        -2.7281    0.9706   -0.5522 C.ar      1 <0>        -0.0530
     37 C28        -3.9568    1.4035   -1.0044 C.ar      1 <0>        -0.1214
     38 C29        -4.9686    0.4914   -1.2491 C.ar      1 <0>        -0.0933
     39 C30        -4.7543   -0.8609   -1.0475 C.ar      1 <0>        -0.1255
     40 C31        -3.5293   -1.3092   -0.6001 C.ar      1 <0>        -0.0791
     41 H1         -0.2936    5.4546   11.9584 H         1 <0>         0.0842
     42 H2          0.2021    5.8507   10.2779 H         1 <0>         0.0400
     43 H3          1.1863    4.7136   11.2602 H         1 <0>         0.0849
     44 H4         -2.4485    4.7366   11.2548 H         1 <0>         0.1258
     45 H5         -2.0706    5.1104    9.5390 H         1 <0>         0.0617
     46 H6         -2.8290    2.3572   10.6675 H         1 <0>         0.1380
     47 H7         -3.8852    3.4250    9.6822 H         1 <0>         0.1378
     48 H8         -0.8259    1.3868    9.6460 H         1 <0>         0.1317
     49 H9         -0.4479    1.7608    7.9303 H         1 <0>         0.1492
     50 H10        -0.0673    4.1411    8.5187 H         1 <0>         0.0627
     51 H11         0.9888    3.0732    9.5039 H         1 <0>         0.1239
     52 H12        -2.9527    0.5800    8.8238 H         1 <0>         0.1598
     53 H13        -4.1200    1.7345    8.0949 H         1 <0>         0.1615
     54 H14        -4.6947   -1.4102    5.9963 H         1 <0>         0.0999
     55 H15        -5.1605    0.1300    6.7948 H         1 <0>         0.0772
     56 H16        -4.1053   -1.0434    7.6530 H         1 <0>         0.0761
     57 H17        -2.2418   -2.3769    5.5772 H         1 <0>         0.1304
     58 H18        -1.3321   -3.1362    3.4211 H         1 <0>         0.1365
     59 H19        -2.0349    0.7416    1.7597 H         1 <0>         0.1323
     60 H20        -2.9528    1.4976    3.9134 H         1 <0>         0.1242
     61 H21        -0.6461   -2.6703    1.1467 H         1 <0>         0.4459
     62 H22         1.2948   -1.8325    1.7313 H         1 <0>         0.1305
     63 H23         3.7250   -1.9799    1.9418 H         1 <0>         0.1438
     64 H24         4.1946    0.1846   -1.7366 H         1 <0>         0.1452
     65 H25         1.8006    0.9148   -2.9392 H         1 <0>         0.4486
     66 H26         7.8763   -2.2190    2.2860 H         1 <0>         0.1072
     67 H27         7.9724   -0.6571    1.4039 H         1 <0>         0.0669
     68 H28         7.9590   -2.2045    0.4917 H         1 <0>         0.0678
     69 H29        -1.9408    1.6840   -0.3578 H         1 <0>         0.1196
     70 H30        -4.1315    2.4573   -1.1637 H         1 <0>         0.1271
     71 H31        -5.9301    0.8367   -1.5995 H         1 <0>         0.1266
     72 H32        -5.5485   -1.5668   -1.2404 H         1 <0>         0.1279
     73 H33        -3.3634   -2.3649   -0.4432 H         1 <0>         0.1225
     74 H34        -2.2711    3.3521    7.8788 H         1 <0>         0.4460
@<TRIPOS>BOND
     1    1    2 1
     2    1   41 1
     3    1   42 1
     4    1   43 1
     5    2    7 1
     6    2    3 1
     7    3    4 1
     8    3   44 1
     9    3   45 1
    10    4    5 1
    11    4   46 1
    12    4   47 1
    13    5    6 1
    14    5    8 1
    15    5   74 1
    16    6    7 1
    17    6   48 1
    18    6   49 1
    19    7   50 1
    20    7   51 1
    21    8    9 1
    22    8   52 1
    23    8   53 1
    24    9   10 2
    25    9   11 am
    26   11   12 1
    27   11   13 1
    28   12   54 1
    29   12   55 1
    30   12   56 1
    31   13   18 ar
    32   13   14 ar
    33   14   15 ar
    34   14   57 1
    35   15   16 ar
    36   15   58 1
    37   16   17 ar
    38   16   19 1
    39   17   18 ar
    40   17   59 1
    41   18   60 1
    42   19   20 1
    43   19   61 1
    44   20   21 2
    45   20   35 1
    46   21   29 1
    47   21   22 1
    48   22   27 ar
    49   22   23 ar
    50   23   24 ar
    51   23   62 1
    52   24   25 ar
    53   24   63 1
    54   25   26 ar
    55   25   31 1
    56   26   27 ar
    57   26   64 1
    58   27   28 1
    59   28   29 am
    60   28   65 1
    61   29   30 2
    62   31   32 2
    63   31   33 1
    64   33   34 1
    65   34   66 1
    66   34   67 1
    67   34   68 1
    68   35   40 ar
    69   35   36 ar
    70   36   37 ar
    71   36   69 1
    72   37   38 ar
    73   37   70 1
    74   38   39 ar
    75   38   71 1
    76   39   40 ar
    77   39   72 1
    78   40   73 1
@<TRIPOS>MOLECULE
ZINC03816310
   51    55     0     0     0
SMALL
USER_CHARGES
4-amino-5-fluoro-3-[5-(4-methylpiperazin-1-yl)-3H-benzoimidazol-2-yl]-1H-quinolin-2-one
@<TRIPOS>ATOM
      1 C1         -4.4670    0.8494    3.0633 C.3       1 <0>        -0.0407
      2 C2         -3.3790    0.9463    0.9019 C.3       1 <0>         0.0019
      3 C3         -3.5151    1.4789   -0.5264 C.3       1 <0>         0.0203
      4 N1         -3.5799    2.9467   -0.4951 N.pl3     1 <0>        -0.4822
      5 C4         -4.7239    3.4034    0.3063 C.3       1 <0>         0.0231
      6 C5         -4.5878    2.8708    1.7347 C.3       1 <0>         0.0021
      7 C6         -3.6324    3.4738   -1.7895 C.ar      1 <0>         0.0898
      8 C7         -3.6187    2.6172   -2.8884 C.ar      1 <0>        -0.1658
      9 C8         -3.6694    3.1157   -4.1588 C.ar      1 <0>        -0.0428
     10 C9         -3.7362    4.4973   -4.3655 C.ar      1 <0>         0.0571
     11 C10        -3.7506    5.3641   -3.2589 C.ar      1 <0>         0.0655
     12 C11        -3.7036    4.8454   -1.9734 C.ar      1 <0>        -0.1134
     13 N2         -3.8198    6.6467   -3.7722 N.pl3     1 <0>        -0.5851
     14 H1         -3.8464    7.4962   -3.2453 H         1 <0>         0.4436
     15 C12        -3.8451    6.5353   -5.1390 C.2       1 <0>         0.4046
     16 N3         -3.7957    5.2687   -5.4809 N.2       1 <0>        -0.5294
     17 C13        -3.9164    7.6652   -6.0804 C.2       1 <0>        -0.3025
     18 C14        -4.0559    7.4305   -7.4504 C.2       1 <0>         0.3760
     19 C15        -4.1228    8.5898   -8.3476 C.ar      1 <0>        -0.1878
     20 C16        -4.0447    9.8830   -7.7997 C.ar      1 <0>         0.2450
     21 C17        -4.1078   10.9864   -8.6429 C.ar      1 <0>        -0.1734
     22 C18        -4.2458   10.8081  -10.0035 C.ar      1 <0>        -0.0185
     23 C19        -4.3231    9.5350  -10.5468 C.ar      1 <0>        -0.1801
     24 C20        -4.2628    8.4239   -9.7304 C.ar      1 <0>         0.1680
     25 F1         -4.3388    7.1843  -10.2623 F         1 <0>        -0.1206
     26 N4         -3.9076   10.0470   -6.4354 N.am      1 <0>        -0.6368
     27 H2         -3.8498   10.9715   -6.0585 H         1 <0>         0.4300
     28 C21        -3.8500    8.9949   -5.6023 C.2       1 <0>         0.5826
     29 O1         -3.7334    9.1908   -4.4050 O.2       1 <0>        -0.5600
     30 N5         -4.1288    6.1500   -7.9440 N.pl3     1 <0>        -0.8025
     31 H3         -3.5472    1.1734    3.5502 H         1 <0>         0.1241
     32 H4         -5.3249    1.2032    3.6351 H         1 <0>         0.1225
     33 H5         -4.4877   -0.2393    3.0134 H         1 <0>         0.1228
     34 H6         -3.3598   -0.1434    0.8835 H         1 <0>         0.1376
     35 H7         -2.4541    1.3189    1.3424 H         1 <0>         0.1399
     36 H8         -2.6529    1.1655   -1.1151 H         1 <0>         0.1307
     37 H9         -4.4260    1.0841   -0.9765 H         1 <0>         0.0717
     38 H10        -4.7431    4.4931    0.3248 H         1 <0>         0.1261
     39 H11        -5.6486    3.0309   -0.1345 H         1 <0>         0.0691
     40 H12        -3.6769    3.2656    2.1847 H         1 <0>         0.1400
     41 H13        -5.4498    3.1846    2.3235 H         1 <0>         0.1367
     42 H14        -3.5672    1.5496   -2.7341 H         1 <0>         0.1314
     43 H15        -3.6582    2.4431   -5.0037 H         1 <0>         0.1346
     44 H16        -3.7183    5.5073   -1.1202 H         1 <0>         0.1268
     45 H17        -4.0491   11.9836   -8.2323 H         1 <0>         0.1496
     46 H18        -4.2944   11.6697  -10.6529 H         1 <0>         0.1516
     47 H19        -4.4307    9.4121  -11.6144 H         1 <0>         0.1515
     48 H20        -4.3218    5.4103   -7.3468 H         1 <0>         0.4285
     49 H21        -3.9874    5.9859   -8.8895 H         1 <0>         0.4092
     50 N6         -4.5458    1.3938    1.6909 N.4       1 <0>        -0.3998
     51 H22        -5.4033    1.0486    1.2438 H         1 <0>         0.4274
@<TRIPOS>BOND
     1    1   31 1
     2    1   32 1
     3    1   33 1
     4    1   50 1
     5    2    3 1
     6    2   34 1
     7    2   35 1
     8    2   50 1
     9    3    4 1
    10    3   36 1
    11    3   37 1
    12    4    5 1
    13    4    7 1
    14    5    6 1
    15    5   38 1
    16    5   39 1
    17    6   40 1
    18    6   41 1
    19    6   50 1
    20    7   12 ar
    21    7    8 ar
    22    8    9 ar
    23    8   42 1
    24    9   10 ar
    25    9   43 1
    26   10   16 1
    27   10   11 ar
    28   11   12 ar
    29   11   13 1
    30   12   44 1
    31   13   14 1
    32   13   15 1
    33   15   16 2
    34   15   17 1
    35   17   28 1
    36   17   18 2
    37   18   19 1
    38   18   30 1
    39   19   24 ar
    40   19   20 ar
    41   20   21 ar
    42   20   26 1
    43   21   22 ar
    44   21   45 1
    45   22   23 ar
    46   22   46 1
    47   23   24 ar
    48   23   47 1
    49   24   25 1
    50   26   27 1
    51   26   28 am
    52   28   29 2
    53   30   48 1
    54   30   49 1
    55   50   51 1
@<TRIPOS>MOLECULE
ZINC03964325
   57    59     0     0     0
SMALL
USER_CHARGES

@<TRIPOS>ATOM
      1 C1          0.1489    2.0884    0.1150 C.3       1 <0>        -0.1876
      2 C2          0.1348    0.5603    0.1888 C.3       1 <0>        -0.0191
      3 N1         -1.2520    0.0881    0.2979 N.4       1 <0>        -0.3822
      4 C3         -1.9779    0.4111   -0.9377 C.3       1 <0>        -0.0142
      5 C4         -3.4549    0.0484   -0.7712 C.3       1 <0>        -0.1895
      6 C5         -1.2593   -1.3663    0.5041 C.3       1 <0>        -0.0265
      7 C6         -0.6131   -1.6936    1.8518 C.3       1 <0>         0.0952
      8 N2         -0.6203   -3.1440    2.0575 N.am      1 <0>        -0.7289
      9 C7         -0.0988   -3.6675    3.1846 C.2       1 <0>         0.6111
     10 O1          0.3779   -2.9358    4.0309 O.2       1 <0>        -0.5184
     11 C8         -0.1061   -5.1270    3.3915 C.2       1 <0>        -0.2420
     12 C9          0.9071   -6.0320    3.0089 C.2       1 <0>        -0.0577
     13 C10         0.4868   -7.2892    3.3960 C.2       1 <0>        -0.0075
     14 N3         -0.7476   -7.1595    3.9982 N.pl3     1 <0>        -0.4910
     15 H1         -1.2731   -7.8879    4.3645 H         1 <0>         0.4270
     16 C11        -1.1044   -5.8642    4.0022 C.2       1 <0>         0.1158
     17 C12        -2.3825   -5.3072    4.5743 C.3       1 <0>        -0.0999
     18 C13         1.1957   -8.4957    3.2079 C.2       1 <0>         0.0729
     19 C14         0.5100   -9.6674    2.9570 C.2       1 <0>        -0.1889
     20 C15         1.0648  -11.0377    2.8871 C.ar      1 <0>        -0.0736
     21 C16         2.3472  -11.5557    3.0375 C.ar      1 <0>        -0.1000
     22 C17         2.5553  -12.9162    2.9116 C.ar      1 <0>         0.0861
     23 C18         1.4888  -13.7593    2.6366 C.ar      1 <0>        -0.1139
     24 C19         0.2139  -13.2531    2.4856 C.ar      1 <0>        -0.1021
     25 C20        -0.0144  -11.8871    2.6092 C.ar      1 <0>         0.1282
     26 N4         -1.1765  -11.1301    2.5069 N.am      1 <0>        -0.6466
     27 C21        -0.9294   -9.8245    2.7079 C.2       1 <0>         0.5595
     28 O2         -1.7538   -8.9280    2.6842 O.2       1 <0>        -0.5156
     29 F1          3.7984  -13.4252    3.0561 F         1 <0>        -0.1318
     30 C22         2.1990   -5.6919    2.3116 C.3       1 <0>        -0.0931
     31 H2          1.1793    2.4435    0.1331 H         1 <0>         0.1076
     32 H3         -0.3308    2.4121   -0.8087 H         1 <0>         0.0811
     33 H4         -0.3916    2.4984    0.9682 H         1 <0>         0.0809
     34 H5          0.5888    0.1488   -0.7126 H         1 <0>         0.1317
     35 H6          0.6996    0.2334    1.0619 H         1 <0>         0.1337
     36 H7         -1.8867    1.4775   -1.1444 H         1 <0>         0.1351
     37 H8         -1.5554   -0.1571   -1.7664 H         1 <0>         0.1307
     38 H9         -3.5537   -1.0316   -0.6617 H         1 <0>         0.0802
     39 H10        -3.8523    0.5414    0.1160 H         1 <0>         0.0808
     40 H11        -4.0109    0.3769   -1.6492 H         1 <0>         0.1074
     41 H12        -2.2871   -1.7292    0.4963 H         1 <0>         0.1397
     42 H13        -0.6973   -1.8494   -0.2952 H         1 <0>         0.1376
     43 H14         0.4147   -1.3306    1.8596 H         1 <0>         0.0893
     44 H15        -1.1751   -1.2105    2.6511 H         1 <0>         0.0890
     45 H16        -1.0005   -3.7277    1.3824 H         1 <0>         0.4099
     46 H17        -3.1529   -5.3000    3.8032 H         1 <0>         0.0840
     47 H18        -2.7087   -5.9289    5.4080 H         1 <0>         0.0782
     48 H19        -2.2103   -4.2898    4.9254 H         1 <0>         0.0840
     49 H20         2.2744   -8.5020    3.2604 H         1 <0>         0.1589
     50 H21         3.1765  -10.8977    3.2512 H         1 <0>         0.1436
     51 H22         1.6578  -14.8215    2.5394 H         1 <0>         0.1485
     52 H23        -0.6084  -13.9196    2.2712 H         1 <0>         0.1415
     53 H24        -2.0541  -11.4980    2.3189 H         1 <0>         0.4217
     54 H25         2.9686   -5.4822    3.0545 H         1 <0>         0.0785
     55 H26         2.5107   -6.5337    1.6932 H         1 <0>         0.0726
     56 H27         2.0522   -4.8138    1.6827 H         1 <0>         0.0634
     57 H28        -1.7009    0.5410    1.0799 H         1 <0>         0.4247
@<TRIPOS>BOND
     1    1    2 1
     2    1   31 1
     3    1   32 1
     4    1   33 1
     5    2    3 1
     6    2   34 1
     7    2   35 1
     8    3    4 1
     9    3    6 1
    10    3   57 1
    11    4    5 1
    12    4   36 1
    13    4   37 1
    14    5   38 1
    15    5   39 1
    16    5   40 1
    17    6    7 1
    18    6   41 1
    19    6   42 1
    20    7    8 1
    21    7   43 1
    22    7   44 1
    23    8    9 am
    24    8   45 1
    25    9   10 2
    26    9   11 1
    27   11   16 2
    28   11   12 1
    29   12   13 2
    30   12   30 1
    31   13   14 1
    32   13   18 1
    33   14   15 1
    34   14   16 1
    35   16   17 1
    36   17   46 1
    37   17   47 1
    38   17   48 1
    39   18   19 2
    40   18   49 1
    41   19   27 1
    42   19   20 1
    43   20   25 ar
    44   20   21 ar
    45   21   22 ar
    46   21   50 1
    47   22   23 ar
    48   22   29 1
    49   23   24 ar
    50   23   51 1
    51   24   25 ar
    52   24   52 1
    53   25   26 1
    54   26   27 am
    55   26   53 1
    56   27   28 2
    57   30   54 1
    58   30   55 1
    59   30   56 1
@<TRIPOS>MOLECULE
ZINC01546066
   52    54     0     0     0
SMALL
USER_CHARGES

@<TRIPOS>ATOM
      1 C1          1.3190    1.4185    0.8998 C.3       1 <0>         0.0308
      2 O1          1.1221    0.0121    0.7412 O.3       1 <0>        -0.3842
      3 C2          1.6336   -0.7719    1.8209 C.3       1 <0>         0.0626
      4 C3          1.3686   -2.2534    1.5456 C.3       1 <0>         0.0560
      5 O2          2.1105   -2.6643    0.3955 O.3       1 <0>        -0.2877
      6 C4          1.9861   -3.9631    0.0122 C.ar      1 <0>         0.1163
      7 C5          1.1727   -4.8014    0.7206 C.ar      1 <0>        -0.1508
      8 C6          1.0439   -6.1386    0.3269 C.ar      1 <0>        -0.1822
      9 C7          1.7562   -6.6146   -0.8018 C.ar      1 <0>         0.2018
     10 C8          2.5842   -5.7378   -1.5132 C.ar      1 <0>        -0.1867
     11 C9          2.6894   -4.4253   -1.1088 C.ar      1 <0>         0.1692
     12 O3          3.4878   -3.5711   -1.8004 O.3       1 <0>        -0.2847
     13 C10         4.1782   -4.1019   -2.9333 C.3       1 <0>         0.0544
     14 C11         5.0210   -3.0002   -3.5791 C.3       1 <0>         0.0626
     15 O4          6.0448   -2.5894   -2.6708 O.3       1 <0>        -0.3848
     16 C12         6.8933   -1.5581   -3.1792 C.3       1 <0>         0.0309
     17 N1          1.6146   -7.9009   -1.1583 N.ar      1 <0>        -0.5426
     18 C13         0.8310   -8.6986   -0.4725 C.ar      1 <0>         0.3422
     19 N2          0.1465   -8.2987    0.5874 N.ar      1 <0>        -0.5807
     20 C14         0.2146   -7.0483    1.0253 C.ar      1 <0>         0.4641
     21 N3         -0.5043   -6.6451    2.1328 N.pl3     1 <0>        -0.6417
     22 C15        -1.2223   -7.5837    2.8797 C.ar      1 <0>         0.1534
     23 C16        -2.4417   -7.2339    3.4483 C.ar      1 <0>        -0.1365
     24 C17        -3.1548   -8.1581    4.1879 C.ar      1 <0>        -0.0976
     25 C18        -2.6612   -9.4349    4.3666 C.ar      1 <0>        -0.1098
     26 C19        -1.4382   -9.7960    3.7995 C.ar      1 <0>         0.0290
     27 C20        -0.7210   -8.8652    3.0488 C.ar      1 <0>        -0.0846
     28 C21        -0.9239  -11.1197    3.9839 C.1       1 <0>        -0.1518
     29 C22        -0.5023  -12.2049    4.1351 C.1       1 <0>        -0.1689
     30 H1          2.3858    1.6300    0.9737 H         1 <0>         0.0438
     31 H2          0.9034    1.9430    0.0394 H         1 <0>         0.0882
     32 H3          0.8182    1.7554    1.8074 H         1 <0>         0.0421
     33 H4          2.7069   -0.6059    1.9138 H         1 <0>         0.0642
     34 H5          1.1392   -0.4804    2.7476 H         1 <0>         0.0738
     35 H6          1.6782   -2.8442    2.4078 H         1 <0>         0.0797
     36 H7          0.3045   -2.4047    1.3647 H         1 <0>         0.0731
     37 H8          0.6320   -4.4344    1.5804 H         1 <0>         0.1376
     38 H9          3.1329   -6.0870   -2.3754 H         1 <0>         0.1546
     39 H10         4.8282   -4.9164   -2.6138 H         1 <0>         0.0783
     40 H11         3.4545   -4.4770   -3.6569 H         1 <0>         0.0849
     41 H12         5.4773   -3.3804   -4.4931 H         1 <0>         0.0752
     42 H13         4.3841   -2.1485   -3.8181 H         1 <0>         0.0638
     43 H14         6.2953   -0.6764   -3.4098 H         1 <0>         0.0434
     44 H15         7.6433   -1.3027   -2.4306 H         1 <0>         0.0879
     45 H16         7.3884   -1.9084   -4.0848 H         1 <0>         0.0424
     46 H17         0.7401   -9.7278   -0.7869 H         1 <0>         0.1966
     47 H18        -0.5113   -5.7106    2.3927 H         1 <0>         0.4197
     48 H19        -2.8329   -6.2365    3.3119 H         1 <0>         0.1281
     49 H20        -4.1012   -7.8805    4.6278 H         1 <0>         0.1331
     50 H21        -3.2213  -10.1542    4.9456 H         1 <0>         0.1284
     51 H22         0.2239   -9.1405    2.6039 H         1 <0>         0.1386
     52 H23        -0.1252  -13.1754    4.2703 H         1 <0>         0.2249
@<TRIPOS>BOND
     1    1    2 1
     2    1   30 1
     3    1   31 1
     4    1   32 1
     5    2    3 1
     6    3    4 1
     7    3   33 1
     8    3   34 1
     9    4    5 1
    10    4   35 1
    11    4   36 1
    12    5    6 1
    13    6   11 ar
    14    6    7 ar
    15    7    8 ar
    16    7   37 1
    17    8   20 ar
    18    8    9 ar
    19    9   10 ar
    20    9   17 ar
    21   10   11 ar
    22   10   38 1
    23   11   12 1
    24   12   13 1
    25   13   14 1
    26   13   39 1
    27   13   40 1
    28   14   15 1
    29   14   41 1
    30   14   42 1
    31   15   16 1
    32   16   43 1
    33   16   44 1
    34   16   45 1
    35   17   18 ar
    36   18   19 ar
    37   18   46 1
    38   19   20 ar
    39   20   21 1
    40   21   22 1
    41   21   47 1
    42   22   27 ar
    43   22   23 ar
    44   23   24 ar
    45   23   48 1
    46   24   25 ar
    47   24   49 1
    48   25   26 ar
    49   25   50 1
    50   26   27 ar
    51   26   28 1
    52   27   51 1
    53   28   29 3
    54   29   52 1
@<TRIPOS>MOLECULE
ZINC18710085
   53    57     0     0     0
SMALL
USER_CHARGES

@<TRIPOS>ATOM
      1 C1          0.0890    1.3306    0.4873 C.3       1 <0>         0.0749
      2 N1          0.4081   -0.0534    0.1284 N.pl3     1 <0>        -0.5085
      3 C2          0.3528   -0.6077   -1.1416 C.ar      1 <0>         0.0507
      4 C3          0.0137   -0.1123   -2.3916 C.ar      1 <0>        -0.0838
      5 C4          0.0591   -0.9388   -3.4947 C.ar      1 <0>        -0.1077
      6 C5          0.4436   -2.2696   -3.3617 C.ar      1 <0>         0.0751
      7 C6          0.7843   -2.7778   -2.1231 C.ar      1 <0>        -0.0835
      8 C7          0.7420   -1.9496   -0.9988 C.ar      1 <0>         0.0911
      9 N2          1.0108   -2.1503    0.3180 N.2       1 <0>        -0.5208
     10 C8          0.8212   -1.0367    0.9810 C.2       1 <0>         0.5369
     11 N3          1.0073   -0.8814    2.3399 N.pl3     1 <0>        -0.6412
     12 C9          1.5328   -1.9319    3.0980 C.ar      1 <0>         0.2053
     13 C10         2.3998   -2.8463    2.5135 C.ar      1 <0>        -0.1275
     14 C11         2.9176   -3.8826    3.2654 C.ar      1 <0>        -0.0424
     15 C12         2.5735   -4.0107    4.5987 C.ar      1 <0>        -0.2053
     16 C13         1.7106   -3.1021    5.1837 C.ar      1 <0>        -0.0432
     17 C14         1.1938   -2.0602    4.4389 C.ar      1 <0>        -0.1549
     18 C15         3.1396   -5.1433    5.4158 C.3       1 <0>         0.5100
     19 F1          4.3412   -4.7372    6.0062 F         1 <0>        -0.1771
     20 F2          2.2267   -5.5000    6.4140 F         1 <0>        -0.1778
     21 F3          3.3767   -6.2442    4.5857 F         1 <0>        -0.1766
     22 O1          0.4838   -3.0743   -4.4569 O.3       1 <0>        -0.2390
     23 C16        -0.5198   -3.9726   -4.6248 C.ar      1 <0>         0.1693
     24 C17        -1.5519   -4.0724   -3.6928 C.ar      1 <0>        -0.2330
     25 C18        -2.5577   -4.9965   -3.8940 C.ar      1 <0>         0.1462
     26 N4         -2.5549   -5.7828   -4.9518 N.ar      1 <0>        -0.5008
     27 C19        -1.5918   -5.7224   -5.8653 C.ar      1 <0>         0.2185
     28 C20        -0.5464   -4.8114   -5.7333 C.ar      1 <0>        -0.1453
     29 C21        -1.6332   -6.6264   -7.0353 C.2       1 <0>         0.2951
     30 N5         -2.5993   -7.5546   -7.2938 N.pl3     1 <0>        -0.5196
     31 H1         -3.3797   -7.7419   -6.7491 H         1 <0>         0.4364
     32 C22        -2.2593   -8.1700   -8.4662 C.2       1 <0>        -0.1211
     33 C23        -1.1072   -7.6076   -8.8883 C.2       1 <0>         0.0664
     34 N6         -0.7487   -6.6689   -8.0066 N.2       1 <0>        -0.4582
     35 C24        -3.0256   -9.2688   -9.1565 C.3       1 <0>         0.5516
     36 F4         -3.9502   -8.7065  -10.0431 F         1 <0>        -0.1675
     37 F5         -2.1361  -10.0835   -9.8651 F         1 <0>        -0.1592
     38 F6         -3.7018  -10.0363   -8.2021 F         1 <0>        -0.1759
     39 H2          0.9883    1.9420    0.4122 H         1 <0>         0.0804
     40 H3         -0.6705    1.7164   -0.1926 H         1 <0>         0.0932
     41 H4         -0.2881    1.3632    1.5095 H         1 <0>         0.0841
     42 H5         -0.2858    0.9195   -2.5011 H         1 <0>         0.1337
     43 H6         -0.2058   -0.5511   -4.4673 H         1 <0>         0.1432
     44 H7          1.0819   -3.8113   -2.0243 H         1 <0>         0.1405
     45 H8          0.7733   -0.0434    2.7688 H         1 <0>         0.4223
     46 H9          2.6684   -2.7473    1.4722 H         1 <0>         0.1551
     47 H10         3.5917   -4.5939    2.8116 H         1 <0>         0.1402
     48 H11         1.4439   -3.2049    6.2251 H         1 <0>         0.1410
     49 H12         0.5234   -1.3483    4.8975 H         1 <0>         0.1374
     50 H13        -1.5643   -3.4335   -2.8221 H         1 <0>         0.1469
     51 H14        -3.3584   -5.0766   -3.1737 H         1 <0>         0.1687
     52 H15         0.2337   -4.7602   -6.4784 H         1 <0>         0.1618
     53 H16        -0.5687   -7.8687   -9.7873 H         1 <0>         0.1936
@<TRIPOS>BOND
     1    1    2 1
     2    1   39 1
     3    1   40 1
     4    1   41 1
     5    2   10 1
     6    2    3 1
     7    3    8 ar
     8    3    4 ar
     9    4    5 ar
    10    4   42 1
    11    5    6 ar
    12    5   43 1
    13    6    7 ar
    14    6   22 1
    15    7    8 ar
    16    7   44 1
    17    8    9 1
    18    9   10 2
    19   10   11 1
    20   11   12 1
    21   11   45 1
    22   12   17 ar
    23   12   13 ar
    24   13   14 ar
    25   13   46 1
    26   14   15 ar
    27   14   47 1
    28   15   16 ar
    29   15   18 1
    30   16   17 ar
    31   16   48 1
    32   17   49 1
    33   18   19 1
    34   18   20 1
    35   18   21 1
    36   22   23 1
    37   23   28 ar
    38   23   24 ar
    39   24   25 ar
    40   24   50 1
    41   25   26 ar
    42   25   51 1
    43   26   27 ar
    44   27   28 ar
    45   27   29 1
    46   28   52 1
    47   29   34 2
    48   29   30 1
    49   30   31 1
    50   30   32 1
    51   32   33 2
    52   32   35 1
    53   33   34 1
    54   33   53 1
    55   35   36 1
    56   35   37 1
    57   35   38 1
@<TRIPOS>MOLECULE
ZINC03820040
   62    66     0     0     0
SMALL
USER_CHARGES
N-[4-[4-(4-methylpiperazin-1-yl)-6-[(5-methyl-2H-pyrazol-3-yl)amino]pyrimidin-2-yl]sulfanylphenyl]cyclopropanecarboxamide
@<TRIPOS>ATOM
      1 C1          1.8035   -7.6837    0.5070 C.3       1 <0>        -0.0779
      2 C2          2.3685   -6.3674    0.0389 C.2       1 <0>         0.0949
      3 C3          1.9325   -5.1020    0.4407 C.2       1 <0>        -0.2905
      4 C4          2.6904   -4.1743   -0.2066 C.2       1 <0>         0.3252
      5 N1          3.5799   -4.8447   -0.9836 N.pl3     1 <0>        -0.4853
      6 H1          4.2729   -4.4328   -1.5753 H         1 <0>         0.4473
      7 N2          3.3537   -6.2159   -0.8085 N.2       1 <0>        -0.2711
      8 N3          2.5778   -2.7905   -0.0888 N.pl3     1 <0>        -0.6296
      9 C5          1.3376   -2.2123    0.1391 C.ar      1 <0>         0.4706
     10 C6          0.1755   -2.9717    0.0343 C.ar      1 <0>        -0.2983
     11 C7         -1.0466   -2.3490    0.2714 C.ar      1 <0>         0.3791
     12 N4         -1.0643   -1.0564    0.5886 N.ar      1 <0>        -0.5664
     13 C8          0.0620   -0.3646    0.6795 C.ar      1 <0>         0.3511
     14 N5          1.2425   -0.9231    0.4557 N.ar      1 <0>        -0.5606
     15 S1         -0.0125    1.3444    1.1018 S.3       1 <0>         0.1303
     16 C9          1.7078    1.7032    1.2298 C.ar      1 <0>        -0.1638
     17 C10         2.3806    1.4637    2.4214 C.ar      1 <0>        -0.0284
     18 C11         3.7293    1.7409    2.5200 C.ar      1 <0>        -0.1315
     19 C12         4.4114    2.2681    1.4313 C.ar      1 <0>         0.1902
     20 C13         3.7379    2.5125    0.2417 C.ar      1 <0>        -0.1573
     21 C14         2.3903    2.2311    0.1410 C.ar      1 <0>        -0.0288
     22 N6          5.7793    2.5539    1.5333 N.am      1 <0>        -0.6744
     23 C15         6.5739    1.7808    2.2997 C.2       1 <0>         0.5466
     24 O1          6.1269    0.7811    2.8213 O.2       1 <0>        -0.5140
     25 C16         8.0178    2.1584    2.5086 C.3       1 <0>        -0.2022
     26 C17         9.0818    1.2604    1.8742 C.3       1 <0>        -0.1494
     27 C18         8.8679    1.2402    3.3890 C.3       1 <0>        -0.1425
     28 N7         -2.2296   -3.0657    0.1789 N.pl3     1 <0>        -0.4710
     29 C19        -2.3617   -3.6957   -1.1422 C.3       1 <0>         0.0277
     30 C20        -3.6379   -4.5399   -1.1765 C.3       1 <0>         0.0040
     31 C21        -4.6643   -3.0537    0.4349 C.3       1 <0>        -0.0004
     32 C22        -3.3881   -2.2095    0.4692 C.3       1 <0>         0.0347
     33 C23        -6.0501   -4.4431   -0.9842 C.3       1 <0>        -0.0407
     34 H2          2.3381   -8.0122    1.3982 H         1 <0>         0.0831
     35 H3          0.7460   -7.5623    0.7417 H         1 <0>         0.0784
     36 H4          1.9177   -8.4287   -0.2805 H         1 <0>         0.0774
     37 H5          1.1347   -4.8964    1.1389 H         1 <0>         0.1550
     38 H6          3.3667   -2.2314   -0.1662 H         1 <0>         0.4241
     39 H7          0.2211   -4.0192   -0.2246 H         1 <0>         0.1631
     40 H8          1.8494    1.0573    3.2693 H         1 <0>         0.1319
     41 H9          4.2533    1.5509    3.4451 H         1 <0>         0.1405
     42 H10         4.2686    2.9225   -0.6049 H         1 <0>         0.1339
     43 H11         1.8666    2.4209   -0.7843 H         1 <0>         0.1341
     44 H12         6.1543    3.3081    1.0523 H         1 <0>         0.4168
     45 H13         8.2224    3.2282    2.5520 H         1 <0>         0.1306
     46 H14         8.7374    0.3965    1.3057 H         1 <0>         0.0995
     47 H15         9.9866    1.7393    1.5000 H         1 <0>         0.1100
     48 H16         9.6320    1.7059    4.0114 H         1 <0>         0.1092
     49 H17         8.3827    0.3633    3.8175 H         1 <0>         0.1093
     50 H18        -2.4158   -2.9234   -1.9095 H         1 <0>         0.0737
     51 H19        -1.4982   -4.3342   -1.3286 H         1 <0>         0.1318
     52 H20        -3.5722   -5.3290   -0.4274 H         1 <0>         0.1439
     53 H21        -3.7533   -4.9852   -2.1646 H         1 <0>         0.1412
     54 H22        -4.6102   -3.8259    1.2022 H         1 <0>         0.1407
     55 H23        -5.5278   -2.4152    0.6217 H         1 <0>         0.1407
     56 H24        -3.2729   -1.7645    1.4575 H         1 <0>         0.1357
     57 H25        -3.4537   -1.4201   -0.2796 H         1 <0>         0.0793
     58 H26        -6.8948   -3.7714   -0.8313 H         1 <0>         0.1238
     59 H27        -6.1225   -4.8989   -1.9717 H         1 <0>         0.1230
     60 H28        -6.0632   -5.2226   -0.2224 H         1 <0>         0.1251
     61 N8         -4.7966   -3.6630   -0.9051 N.4       1 <0>        -0.4014
     62 H29        -4.8229   -2.9169   -1.6099 H         1 <0>         0.4281
@<TRIPOS>BOND
     1    1    2 1
     2    1   34 1
     3    1   35 1
     4    1   36 1
     5    2    7 2
     6    2    3 1
     7    3    4 2
     8    3   37 1
     9    4    5 1
    10    4    8 1
    11    5    6 1
    12    5    7 1
    13    8    9 1
    14    8   38 1
    15    9   14 ar
    16    9   10 ar
    17   10   11 ar
    18   10   39 1
    19   11   12 ar
    20   11   28 1
    21   12   13 ar
    22   13   14 ar
    23   13   15 1
    24   15   16 1
    25   16   21 ar
    26   16   17 ar
    27   17   18 ar
    28   17   40 1
    29   18   19 ar
    30   18   41 1
    31   19   20 ar
    32   19   22 1
    33   20   21 ar
    34   20   42 1
    35   21   43 1
    36   22   23 am
    37   22   44 1
    38   23   24 2
    39   23   25 1
    40   25   27 1
    41   25   26 1
    42   25   45 1
    43   26   27 1
    44   26   46 1
    45   26   47 1
    46   27   48 1
    47   27   49 1
    48   28   32 1
    49   28   29 1
    50   29   30 1
    51   29   50 1
    52   29   51 1
    53   30   52 1
    54   30   53 1
    55   30   61 1
    56   31   32 1
    57   31   54 1
    58   31   55 1
    59   31   61 1
    60   32   56 1
    61   32   57 1
    62   33   58 1
    63   33   59 1
    64   33   60 1
    65   33   61 1
    66   61   62 1
@<TRIPOS>MOLECULE
ZINC18710082
   51    54     0     0     0
SMALL
USER_CHARGES
N-(3,3-dimethylindolin-6-yl)-2-(4-pyridylmethylamino)pyridine-3-carboxamide
@<TRIPOS>ATOM
      1 C1         -0.1736   12.3280    1.7993 C.3       1 <0>        -0.1353
      2 C2          0.1708   11.8132    0.4003 C.3       1 <0>        -0.0256
      3 C3         -1.0658   11.8695   -0.5114 C.3       1 <0>         0.1234
      4 N1         -1.3159   10.4807   -0.9061 N.pl3     1 <0>        -0.7429
      5 C4         -0.3660    9.6387   -0.3256 C.ar      1 <0>         0.2160
      6 C5          0.5375   10.3468    0.4531 C.ar      1 <0>        -0.1735
      7 C6          1.5592    9.6928    1.1152 C.ar      1 <0>        -0.0387
      8 C7          1.6921    8.3220    1.0083 C.ar      1 <0>        -0.1957
      9 C8          0.7942    7.6005    0.2318 C.ar      1 <0>         0.1856
     10 C9         -0.2273    8.2550   -0.4368 C.ar      1 <0>        -0.1821
     11 N2          0.9251    6.2127    0.1203 N.am      1 <0>        -0.6647
     12 C10        -0.1735    5.4372    0.0302 C.2       1 <0>         0.5789
     13 O1         -1.2750    5.9485   -0.0352 O.2       1 <0>        -0.5287
     14 C11        -0.0401    3.9694    0.0111 C.ar      1 <0>        -0.2727
     15 C12         1.2239    3.3691   -0.0284 C.ar      1 <0>         0.0067
     16 C13         1.2952    1.9877   -0.0446 C.ar      1 <0>        -0.2460
     17 C14         0.1281    1.2446   -0.0215 C.ar      1 <0>         0.1889
     18 N3         -1.0535    1.8288    0.0102 N.ar      1 <0>        -0.5475
     19 C15        -1.1794    3.1469    0.0326 C.ar      1 <0>         0.4585
     20 N4         -2.4385    3.7170    0.0712 N.pl3     1 <0>        -0.6966
     21 C16        -3.6235    2.8669    0.2103 C.3       1 <0>         0.1646
     22 C17        -4.8603    3.7278    0.2259 C.ar      1 <0>        -0.0635
     23 C18        -5.3699    4.2164    1.4192 C.ar      1 <0>        -0.1527
     24 C19        -6.5037    5.0063    1.3940 C.ar      1 <0>         0.0990
     25 N5         -7.1042    5.2881    0.2543 N.ar      1 <0>        -0.4796
     26 C20        -6.6504    4.8370   -0.8988 C.ar      1 <0>         0.0984
     27 C21        -5.5189    4.0453   -0.9522 C.ar      1 <0>        -0.1533
     28 C22         1.3163   12.6286   -0.2029 C.3       1 <0>        -0.1347
     29 H1          0.6875   12.2011    2.4554 H         1 <0>         0.0611
     30 H2         -0.4352   13.3847    1.7435 H         1 <0>         0.0600
     31 H3         -1.0186   11.7650    2.1958 H         1 <0>         0.0571
     32 H4         -0.8602   12.4810   -1.3900 H         1 <0>         0.0683
     33 H5         -1.9215   12.2676    0.0338 H         1 <0>         0.0682
     34 H6         -2.0366   10.1891   -1.4861 H         1 <0>         0.4122
     35 H7          2.2565   10.2556    1.7181 H         1 <0>         0.1233
     36 H8          2.4915    7.8130    1.5263 H         1 <0>         0.1249
     37 H9         -0.9211    7.6916   -1.0433 H         1 <0>         0.1338
     38 H10         1.8066    5.8081    0.1078 H         1 <0>         0.4114
     39 H11         2.1214    3.9696   -0.0455 H         1 <0>         0.1354
     40 H12         2.2547    1.4928   -0.0753 H         1 <0>         0.1405
     41 H13         0.1860    0.1663   -0.0342 H         1 <0>         0.1633
     42 H14        -2.5372    4.6797    0.0061 H         1 <0>         0.4269
     43 H15        -3.6739    2.1736   -0.6293 H         1 <0>         0.0815
     44 H16        -3.5601    2.3050    1.1421 H         1 <0>         0.0787
     45 H17        -4.8851    3.9853    2.3562 H         1 <0>         0.1361
     46 H18        -6.9051    5.3935    2.3188 H         1 <0>         0.1583
     47 H19        -7.1692    5.0889   -1.8119 H         1 <0>         0.1582
     48 H20        -5.1525    3.6783   -1.8995 H         1 <0>         0.1363
     49 H21         1.5192   12.2770   -1.2145 H         1 <0>         0.0571
     50 H22         1.0360   13.6815   -0.2335 H         1 <0>         0.0599
     51 H23         2.2099   12.5082    0.4097 H         1 <0>         0.0612
@<TRIPOS>BOND
     1    1    2 1
     2    1   29 1
     3    1   30 1
     4    1   31 1
     5    2    6 1
     6    2    3 1
     7    2   28 1
     8    3    4 1
     9    3   32 1
    10    3   33 1
    11    4    5 1
    12    4   34 1
    13    5   10 ar
    14    5    6 ar
    15    6    7 ar
    16    7    8 ar
    17    7   35 1
    18    8    9 ar
    19    8   36 1
    20    9   10 ar
    21    9   11 1
    22   10   37 1
    23   11   12 am
    24   11   38 1
    25   12   13 2
    26   12   14 1
    27   14   19 ar
    28   14   15 ar
    29   15   16 ar
    30   15   39 1
    31   16   17 ar
    32   16   40 1
    33   17   18 ar
    34   17   41 1
    35   18   19 ar
    36   19   20 1
    37   20   21 1
    38   20   42 1
    39   21   22 1
    40   21   43 1
    41   21   44 1
    42   22   27 ar
    43   22   23 ar
    44   23   24 ar
    45   23   45 1
    46   24   25 ar
    47   24   46 1
    48   25   26 ar
    49   26   27 ar
    50   26   47 1
    51   27   48 1
    52   28   49 1
    53   28   50 1
    54   28   51 1
@<TRIPOS>MOLECULE
ZINC18825339
   59    62     0     0     0
SMALL
USER_CHARGES
5-[(Z)-(5-fluoro-2-oxo-indolin-3-ylidene)methyl]-N-[(2R)-2-hydroxy-3-morpholino-propyl]-2,4-dimethyl-1H-pyrrole-3-carboxamide
@<TRIPOS>ATOM
      1 C1          3.5607    0.7280    0.3667 C.3       1 <0>        -0.0956
      2 C2          2.0758    0.7165    0.1102 C.2       1 <0>        -0.0564
      3 C3          1.2591    1.8188   -0.0477 C.2       1 <0>        -0.0308
      4 N1         -0.0271    1.3691   -0.2640 N.pl3     1 <0>        -0.5068
      5 H1         -0.8436    2.0903   -0.4163 H         1 <0>         0.4494
      6 C4         -0.0354    0.0257   -0.2455 C.2       1 <0>         0.1277
      7 C5          1.2525   -0.4230   -0.0155 C.2       1 <0>        -0.2308
      8 C6          1.6847   -1.8291    0.0810 C.2       1 <0>         0.5980
      9 O1          2.0430   -2.4250   -0.9167 O.2       1 <0>        -0.5421
     10 N2          1.6827   -2.4542    1.2750 N.am      1 <0>        -0.7266
     11 C7          2.1121   -3.8516    1.3710 C.3       1 <0>         0.1299
     12 C8          2.0150   -4.3162    2.8255 C.3       1 <0>         0.1144
     13 H2          2.5334   -3.6206    3.5018 H         1 <0>         0.0568
     14 C9          2.5799   -5.7329    2.9471 C.3       1 <0>         0.0228
     15 N3          2.4867   -6.1790    4.3436 N.3       1 <0>        -0.5349
     16 C10         3.3671   -5.3829    5.2109 C.3       1 <0>         0.0083
     17 C11         3.1945   -5.8402    6.6618 C.3       1 <0>         0.0618
     18 O2          3.4694   -7.2408    6.7508 O.3       1 <0>        -0.3843
     19 C12         2.6296   -8.0463    5.9193 C.3       1 <0>         0.0614
     20 C13         2.7965   -7.6114    4.4609 C.3       1 <0>         0.0172
     21 O3          0.6463   -4.3123    3.2364 O.3       1 <0>        -0.5882
     22 C14        -1.2476   -0.8477   -0.4426 C.3       1 <0>        -0.0994
     23 C15         1.6686    3.1691    0.0027 C.2       1 <0>         0.0908
     24 C16         0.8216    4.1284    0.5209 C.2       1 <0>        -0.2125
     25 C17         1.0162    5.5955    0.5210 C.ar      1 <0>        -0.0684
     26 C18         2.0202    6.4240    0.0297 C.ar      1 <0>        -0.1043
     27 C19         1.9118    7.7937    0.1786 C.ar      1 <0>         0.0808
     28 C20         0.8031    8.3379    0.8097 C.ar      1 <0>        -0.1198
     29 C21        -0.2000    7.5233    1.2941 C.ar      1 <0>        -0.1061
     30 C22        -0.1080    6.1430    1.1533 C.ar      1 <0>         0.1250
     31 N4         -0.9593    5.1144    1.5420 N.am      1 <0>        -0.6604
     32 C23        -0.4649    3.9133    1.1971 C.2       1 <0>         0.5647
     33 O4         -0.9909    2.8351    1.4086 O.2       1 <0>        -0.5132
     34 F1          2.8866    8.6030   -0.2904 F         1 <0>        -0.1355
     35 H3          3.9167    1.7678    0.4131 H         1 <0>         0.0672
     36 H4          4.0776    0.1994   -0.4478 H         1 <0>         0.0746
     37 H5          3.7717    0.2252    1.3221 H         1 <0>         0.0710
     38 H6          1.3586   -1.9152    2.1775 H         1 <0>         0.4262
     39 H7          1.4633   -4.4786    0.7417 H         1 <0>         0.0750
     40 H8          3.1531   -3.9398    1.0266 H         1 <0>         0.0785
     41 H9          2.0023   -6.4143    2.3052 H         1 <0>         0.0900
     42 H10         3.6334   -5.7360    2.6307 H         1 <0>         0.0465
     43 H11         4.4130   -5.5254    4.9015 H         1 <0>         0.0459
     44 H12         3.1012   -4.3189    5.1257 H         1 <0>         0.0881
     45 H13         3.8925   -5.2859    7.3064 H         1 <0>         0.1001
     46 H14         2.1618   -5.6458    6.9871 H         1 <0>         0.0615
     47 H15         2.9156   -9.1033    6.0238 H         1 <0>         0.1009
     48 H16         1.5805   -7.9185    6.2243 H         1 <0>         0.0621
     49 H17         2.1104   -8.1883    3.8234 H         1 <0>         0.0898
     50 H18         3.8332   -7.7899    4.1393 H         1 <0>         0.0455
     51 H19         0.3780   -4.6185    4.2583 H         1 <0>         0.4136
     52 H20        -0.9523   -1.9052   -0.3757 H         1 <0>         0.0845
     53 H21        -1.6843   -0.6508   -1.4328 H         1 <0>         0.0777
     54 H22        -1.9909   -0.6245    0.3369 H         1 <0>         0.0809
     55 H23         2.6624    3.4568   -0.3709 H         1 <0>         0.1579
     56 H24         2.8828    5.9984   -0.4614 H         1 <0>         0.1409
     57 H25         0.7239    9.4091    0.9228 H         1 <0>         0.1443
     58 H26        -1.0583    7.9589    1.7840 H         1 <0>         0.1386
     59 H27        -1.9003    5.3463    2.0623 H         1 <0>         0.4455
@<TRIPOS>BOND
     1    1    2 1
     2    1   35 1
     3    1   36 1
     4    1   37 1
     5    2    7 1
     6    2    3 2
     7    3    4 1
     8    3   23 1
     9    4    5 1
    10    4    6 1
    11    6    7 2
    12    6   22 1
    13    7    8 1
    14    8    9 2
    15    8   10 am
    16   10   11 1
    17   10   38 1
    18   11   12 1
    19   11   39 1
    20   11   40 1
    21   12   13 1
    22   12   14 1
    23   12   21 1
    24   14   15 1
    25   14   41 1
    26   14   42 1
    27   15   20 1
    28   15   16 1
    29   16   17 1
    30   16   43 1
    31   16   44 1
    32   17   18 1
    33   17   45 1
    34   17   46 1
    35   18   19 1
    36   19   20 1
    37   19   47 1
    38   19   48 1
    39   20   49 1
    40   20   50 1
    41   21   51 1
    42   22   52 1
    43   22   53 1
    44   22   54 1
    45   23   24 2
    46   23   55 1
    47   24   32 1
    48   24   25 1
    49   25   30 ar
    50   25   26 ar
    51   26   27 ar
    52   26   56 1
    53   27   28 ar
    54   27   34 1
    55   28   29 ar
    56   28   57 1
    57   29   30 ar
    58   29   58 1
    59   30   31 1
    60   31   32 am
    61   31   59 1
    62   32   33 2
@<TRIPOS>MOLECULE
ZINC18825344
   59    62     0     0     0
SMALL
USER_CHARGES
5-[(Z)-(5-fluoro-2-oxo-indolin-3-ylidene)methyl]-N-[(2S)-2-hydroxy-3-morpholino-propyl]-2,4-dimethyl-1H-pyrrole-3-carboxamide
@<TRIPOS>ATOM
      1 C1          4.7056    0.6287    1.0117 C.3       1 <0>        -0.0968
      2 C2          3.2464    0.8378    0.6983 C.2       1 <0>        -0.0523
      3 C3          2.5980    2.0501    0.5678 C.2       1 <0>        -0.0327
      4 N1          1.2732    1.7961    0.2789 N.pl3     1 <0>        -0.5060
      5 H1          0.5720    2.6311    0.1339 H         1 <0>         0.4496
      6 C4          1.0783    0.4679    0.2258 C.2       1 <0>         0.1246
      7 C5          2.2801   -0.1676    0.4808 C.2       1 <0>        -0.2308
      8 C6          2.5088   -1.6234    0.5191 C.2       1 <0>         0.5976
      9 O1          2.8262   -2.2159   -0.4944 O.2       1 <0>        -0.5428
     10 N2          2.3662   -2.2977    1.6773 N.am      1 <0>        -0.7254
     11 C7          2.5935   -3.7444    1.7154 C.3       1 <0>         0.1298
     12 C8          2.3672   -4.2590    3.1384 C.3       1 <0>         0.1172
     13 H2          1.3599   -4.0040    3.4994 H         1 <0>         0.0560
     14 C9          2.6045   -5.7699    3.1781 C.3       1 <0>         0.0219
     15 N3          2.3382   -6.2720    4.5327 N.3       1 <0>        -0.5356
     16 C10         2.9762   -7.5793    4.7450 C.3       1 <0>         0.0168
     17 C11         2.7241   -8.0365    6.1842 C.3       1 <0>         0.0612
     18 O2          1.3152   -8.0759    6.4267 O.3       1 <0>        -0.3844
     19 C12         0.6618   -6.8191    6.2299 C.3       1 <0>         0.0617
     20 C13         0.8930   -6.3496    4.7911 C.3       1 <0>         0.0111
     21 O3          3.2765   -3.6103    4.0297 O.3       1 <0>        -0.5892
     22 C14        -0.2328   -0.2165   -0.0637 C.3       1 <0>        -0.0987
     23 C15         3.1876    3.3256    0.7056 C.2       1 <0>         0.0935
     24 C16         2.4515    4.3746    1.2192 C.2       1 <0>        -0.2157
     25 C17         2.8515    5.7966    1.3077 C.ar      1 <0>        -0.0669
     26 C18         3.9943    6.4912    0.9234 C.ar      1 <0>        -0.1048
     27 C19         4.0710    7.8545    1.1363 C.ar      1 <0>         0.0814
     28 C20         3.0098    8.5263    1.7247 C.ar      1 <0>        -0.1204
     29 C21         1.8704    7.8457    2.1029 C.ar      1 <0>        -0.1055
     30 C22         1.7753    6.4739    1.8965 C.ar      1 <0>         0.1237
     31 N4          0.7622    5.5637    2.1775 N.am      1 <0>        -0.6596
     32 C23         1.1039    4.3195    1.8021 C.2       1 <0>         0.5657
     33 O4          0.4171    3.3209    1.9242 O.2       1 <0>        -0.5153
     34 F1          5.1807    8.5334    0.7715 F         1 <0>        -0.1355
     35 H3          5.1994    1.6049    1.1269 H         1 <0>         0.0668
     36 H4          5.1808    0.0720    0.1906 H         1 <0>         0.0744
     37 H5          4.8016    0.0567    1.9464 H         1 <0>         0.0741
     38 H6          2.0791   -1.7617    2.5940 H         1 <0>         0.4273
     39 H7          1.8935   -4.2437    1.0293 H         1 <0>         0.0777
     40 H8          3.6268   -3.9615    1.4070 H         1 <0>         0.0736
     41 H9          1.9304   -6.2658    2.4641 H         1 <0>         0.0486
     42 H10         3.6486   -5.9844    2.9062 H         1 <0>         0.0884
     43 H11         2.5501   -8.3132    4.0451 H         1 <0>         0.0451
     44 H12         4.0587   -7.4917    4.5704 H         1 <0>         0.0900
     45 H13         3.1515   -9.0395    6.3305 H         1 <0>         0.1008
     46 H14         3.1986   -7.3305    6.8817 H         1 <0>         0.0620
     47 H15        -0.4170   -6.9344    6.4112 H         1 <0>         0.1000
     48 H16         1.0741   -6.0778    6.9303 H         1 <0>         0.0613
     49 H17         0.4415   -5.3564    4.6504 H         1 <0>         0.0873
     50 H18         0.4333   -7.0637    4.0920 H         1 <0>         0.0461
     51 H19         3.2627   -3.8533    5.1024 H         1 <0>         0.4141
     52 H20        -0.0899   -1.3070   -0.0417 H         1 <0>         0.0829
     53 H21        -0.5927    0.0862   -1.0581 H         1 <0>         0.0781
     54 H22        -0.9728    0.0718    0.6974 H         1 <0>         0.0803
     55 H23         4.2335    3.4835    0.4037 H         1 <0>         0.1584
     56 H24         4.8196    5.9664    0.4654 H         1 <0>         0.1411
     57 H25         3.0756    9.5918    1.8882 H         1 <0>         0.1443
     58 H26         1.0507    8.3797    2.5605 H         1 <0>         0.1385
     59 H27        -0.1701    5.9069    2.6497 H         1 <0>         0.4455
@<TRIPOS>BOND
     1    1    2 1
     2    1   35 1
     3    1   36 1
     4    1   37 1
     5    2    7 1
     6    2    3 2
     7    3    4 1
     8    3   23 1
     9    4    5 1
    10    4    6 1
    11    6    7 2
    12    6   22 1
    13    7    8 1
    14    8    9 2
    15    8   10 am
    16   10   11 1
    17   10   38 1
    18   11   12 1
    19   11   39 1
    20   11   40 1
    21   12   13 1
    22   12   14 1
    23   12   21 1
    24   14   15 1
    25   14   41 1
    26   14   42 1
    27   15   20 1
    28   15   16 1
    29   16   17 1
    30   16   43 1
    31   16   44 1
    32   17   18 1
    33   17   45 1
    34   17   46 1
    35   18   19 1
    36   19   20 1
    37   19   47 1
    38   19   48 1
    39   20   49 1
    40   20   50 1
    41   21   51 1
    42   22   52 1
    43   22   53 1
    44   22   54 1
    45   23   24 2
    46   23   55 1
    47   24   32 1
    48   24   25 1
    49   25   30 ar
    50   25   26 ar
    51   26   27 ar
    52   26   56 1
    53   27   28 ar
    54   27   34 1
    55   28   29 ar
    56   28   57 1
    57   29   30 ar
    58   29   58 1
    59   30   31 1
    60   31   32 am
    61   31   59 1
    62   32   33 2
@<TRIPOS>MOLECULE
ZINC00602675
   44    47     0     0     0
SMALL
USER_CHARGES

@<TRIPOS>ATOM
      1 C1          2.2018    1.5481   -1.5565 C.3       1 <0>        -0.1161
      2 C2          1.0368    2.0220   -0.7263 C.ar      1 <0>        -0.0966
      3 C3         -0.1487    1.3132   -0.7325 C.ar      1 <0>        -0.1172
      4 C4         -1.2236    1.7532    0.0285 C.ar      1 <0>         0.1518
      5 C5         -1.1007    2.9002    0.8023 C.ar      1 <0>        -0.0870
      6 C6          0.0867    3.6052    0.8062 C.ar      1 <0>        -0.1282
      7 C7          1.1557    3.1674    0.0424 C.ar      1 <0>         0.0831
      8 F1          2.3164    3.8587    0.0476 F         1 <0>        -0.1369
      9 N1         -2.4272    1.0397    0.0196 N.pl3     1 <0>        -0.6252
     10 C8         -3.6292    1.7112    0.1333 C.ar      1 <0>         0.6086
     11 N2         -3.6216    3.0400    0.1432 N.ar      1 <0>        -0.5693
     12 C9         -4.7426    3.7288    0.2448 C.ar      1 <0>         0.2653
     13 C10        -5.9537    3.0284    0.3539 C.ar      1 <0>        -0.2755
     14 C11        -7.1862    3.7105    0.4713 C.2       1 <0>         0.0298
     15 C12        -8.3408    2.9820    0.5751 C.2       1 <0>        -0.1625
     16 C13        -8.2714    1.5192    0.5626 C.2       1 <0>         0.5566
     17 O1         -9.2937    0.8632    0.6541 O.2       1 <0>        -0.5005
     18 N3         -7.0829    0.8955    0.4500 N.am      1 <0>        -0.5057
     19 C14        -5.9208    1.6174    0.3450 C.ar      1 <0>         0.4668
     20 N4         -4.7460    1.0072    0.2337 N.ar      1 <0>        -0.5950
     21 C15        -7.0305   -0.5685    0.4390 C.3       1 <0>         0.0698
     22 C16        -9.6485    3.6672    0.6995 C.ar      1 <0>        -0.0109
     23 C17       -10.1579    3.9813    1.9600 C.ar      1 <0>        -0.0063
     24 C18       -11.3749    4.6253    2.0688 C.ar      1 <0>        -0.1064
     25 C19       -12.0937    4.9487    0.9320 C.ar      1 <0>        -0.0871
     26 C20       -11.5969    4.6352   -0.3203 C.ar      1 <0>        -0.1063
     27 C21       -10.3786    3.9963   -0.4432 C.ar      1 <0>        -0.0064
     28 Cl1        -9.7572    3.6032   -2.0158 Cl        1 <0>        -0.0502
     29 Cl2        -9.2608    3.5697    3.3881 Cl        1 <0>        -0.0502
     30 H1          2.1490    1.9988   -2.5475 H         1 <0>         0.0767
     31 H2          3.1345    1.8400   -1.0738 H         1 <0>         0.0728
     32 H3          2.1646    0.4626   -1.6486 H         1 <0>         0.0735
     33 H4         -0.2411    0.4198   -1.3323 H         1 <0>         0.1360
     34 H5         -1.9341    3.2419    1.3982 H         1 <0>         0.1444
     35 H6          0.1815    4.4990    1.4051 H         1 <0>         0.1404
     36 H7         -2.4176    0.0736   -0.0663 H         1 <0>         0.4279
     37 H8         -4.7278    4.8087    0.2479 H         1 <0>         0.1890
     38 H9         -7.2167    4.7901    0.4783 H         1 <0>         0.1510
     39 H10        -6.9224   -0.9358    1.4595 H         1 <0>         0.0748
     40 H11        -7.9506   -0.9618    0.0069 H         1 <0>         0.0924
     41 H12        -6.1794   -0.8971   -0.1575 H         1 <0>         0.0951
     42 H13       -11.7683    4.8729    3.0436 H         1 <0>         0.1439
     43 H14       -13.0471    5.4480    1.0227 H         1 <0>         0.1455
     44 H15       -12.1632    4.8901   -1.2039 H         1 <0>         0.1439
@<TRIPOS>BOND
     1    1    2 1
     2    1   30 1
     3    1   31 1
     4    1   32 1
     5    2    7 ar
     6    2    3 ar
     7    3    4 ar
     8    3   33 1
     9    4    5 ar
    10    4    9 1
    11    5    6 ar
    12    5   34 1
    13    6    7 ar
    14    6   35 1
    15    7    8 1
    16    9   10 1
    17    9   36 1
    18   10   20 ar
    19   10   11 ar
    20   11   12 ar
    21   12   13 ar
    22   12   37 1
    23   13   19 ar
    24   13   14 1
    25   14   15 2
    26   14   38 1
    27   15   16 1
    28   15   22 1
    29   16   17 2
    30   16   18 am
    31   18   19 1
    32   18   21 1
    33   19   20 ar
    34   21   39 1
    35   21   40 1
    36   21   41 1
    37   22   27 ar
    38   22   23 ar
    39   23   24 ar
    40   23   29 1
    41   24   25 ar
    42   24   42 1
    43   25   26 ar
    44   25   43 1
    45   26   27 ar
    46   26   44 1
    47   27   28 1
@<TRIPOS>MOLECULE
ZINC23247639
   69    72     0     0     0
SMALL
USER_CHARGES
1-[4-[(4-ethylpiperazin-1-yl)methyl]-3-(trifluoromethyl)phenyl]-3-[4-(6-methylaminopyrimidin-4-yl)oxyphenyl]urea
@<TRIPOS>ATOM
      1 C1          8.9417    3.3719    8.2172 C.3       1 <0>        -0.1901
      2 C2         10.1498    2.9102    7.3997 C.3       1 <0>        -0.0070
      3 N1          9.9972    3.3533    6.0075 N.4       1 <0>        -0.4011
      4 C3         11.2367    3.1387    5.2477 C.3       1 <0>         0.0016
      5 C4         11.0629    3.6845    3.8284 C.3       1 <0>         0.0271
      6 N2          9.9288    3.0094    3.1822 N.3       1 <0>        -0.5300
      7 C5          8.6893    3.2240    3.9420 C.3       1 <0>         0.0232
      8 C6          8.8631    2.6781    5.3612 C.3       1 <0>        -0.0016
      9 C7          9.7762    3.4524    1.7899 C.3       1 <0>         0.0786
     10 C8          8.7879    2.5601    1.0842 C.ar      1 <0>        -0.0666
     11 C9          7.5022    3.0092    0.8434 C.ar      1 <0>        -0.0932
     12 C10         6.5958    2.1959    0.1923 C.ar      1 <0>        -0.0888
     13 C11         6.9731    0.9214   -0.2106 C.ar      1 <0>         0.1880
     14 C12         8.2646    0.4735    0.0326 C.ar      1 <0>        -0.1043
     15 C13         9.1683    1.2940    0.6793 C.ar      1 <0>        -0.1369
     16 C14        10.5702    0.8086    0.9441 C.3       1 <0>         0.5111
     17 F1         10.7250   -0.4786    0.4184 F         1 <0>        -0.1776
     18 F2         11.4860    1.6739    0.3362 F         1 <0>        -0.1774
     19 F3         10.8008    0.7797    2.3237 F         1 <0>        -0.1628
     20 N3          6.0552    0.0926   -0.8655 N.am      1 <0>        -0.6979
     21 C15         4.7513    0.1311   -0.5266 C.2       1 <0>         0.7117
     22 O1          4.3858    0.8194    0.4067 O.2       1 <0>        -0.5623
     23 N4          3.8526   -0.5934   -1.2222 N.am      1 <0>        -0.6900
     24 C16         2.4863   -0.4790   -0.9335 C.ar      1 <0>         0.1635
     25 C17         1.5516   -0.5518   -1.9576 C.ar      1 <0>        -0.1265
     26 C18         0.2052   -0.4394   -1.6724 C.ar      1 <0>        -0.0923
     27 C19        -0.2137   -0.2543   -0.3628 C.ar      1 <0>         0.0841
     28 C20         0.7198   -0.1815    0.6609 C.ar      1 <0>        -0.0957
     29 C21         2.0665   -0.2932    0.3769 C.ar      1 <0>        -0.1058
     30 O2         -1.5393   -0.1385   -0.0833 O.3       1 <0>        -0.2424
     31 C22        -2.3129   -1.2454   -0.1983 C.ar      1 <0>         0.3836
     32 C23        -3.6894   -1.1637   -0.0277 C.ar      1 <0>        -0.3134
     33 C24        -4.4409   -2.3284   -0.1601 C.ar      1 <0>         0.4631
     34 N5         -3.8165   -3.4721   -0.4341 N.ar      1 <0>        -0.5936
     35 C25        -2.5082   -3.5081   -0.5840 C.ar      1 <0>         0.3760
     36 N6         -1.7644   -2.4263   -0.4707 N.ar      1 <0>        -0.6039
     37 N7         -5.8178   -2.2988   -0.0034 N.pl3     1 <0>        -0.7218
     38 C26        -6.4937   -1.0344    0.2979 C.3       1 <0>         0.0891
     39 H1          9.0560    3.0401    9.2597 H         1 <0>         0.1066
     40 H2          8.0243    2.9380    7.7928 H         1 <0>         0.0798
     41 H3          8.8763    4.4695    8.1868 H         1 <0>         0.0803
     42 H4         11.0672    3.3441    7.8241 H         1 <0>         0.1306
     43 H5         10.2153    1.8126    7.4301 H         1 <0>         0.1269
     44 H6         12.0665    3.6630    5.7442 H         1 <0>         0.1361
     45 H7         11.4577    2.0621    5.2031 H         1 <0>         0.1357
     46 H8         10.8699    4.7665    3.8728 H         1 <0>         0.0625
     47 H9         11.9796    3.4990    3.2494 H         1 <0>         0.1239
     48 H10         8.4684    4.3007    3.9867 H         1 <0>         0.0621
     49 H11         7.8594    2.6998    3.4455 H         1 <0>         0.1239
     50 H12         9.0569    1.5962    5.3178 H         1 <0>         0.1351
     51 H13         7.9470    2.8635    5.9412 H         1 <0>         0.1359
     52 H14         9.4106    4.4897    1.7732 H         1 <0>         0.0663
     53 H15        10.7489    3.3982    1.2791 H         1 <0>         0.1073
     54 H16         7.2082    3.9988    1.1607 H         1 <0>         0.1358
     55 H17         5.5933    2.5489    0.0003 H         1 <0>         0.1466
     56 H18         8.5625   -0.5152   -0.2838 H         1 <0>         0.1447
     57 H19         6.3979   -0.5903   -1.6569 H         1 <0>         0.4387
     58 H20         4.1917   -1.2745   -2.0166 H         1 <0>         0.4355
     59 H21         1.8775   -0.6959   -2.9771 H         1 <0>         0.1334
     60 H22        -0.5220   -0.4960   -2.4689 H         1 <0>         0.1303
     61 H23         0.3932   -0.0371    1.6801 H         1 <0>         0.1327
     62 H24         2.7931   -0.2369    1.1740 H         1 <0>         0.1442
     63 H25        -4.1646   -0.2205    0.1982 H         1 <0>         0.1466
     64 H26        -2.0315   -4.4515   -0.8058 H         1 <0>         0.2000
     65 H27        -6.4030   -3.2246   -0.1053 H         1 <0>         0.4376
     66 H28        -7.5762   -1.2091    0.3856 H         1 <0>         0.0864
     67 H29        -6.3028   -0.3146   -0.5117 H         1 <0>         0.0603
     68 H30        -6.1096   -0.6302    1.2461 H         1 <0>         0.0599
     69 H31         9.7882    4.4332    6.0188 H         1 <0>         0.4364
@<TRIPOS>BOND
     1    1    2 1
     2    1   39 1
     3    1   40 1
     4    1   41 1
     5    2    3 1
     6    2   42 1
     7    2   43 1
     8    3    8 1
     9    3    4 1
    10    3   69 1
    11    4    5 1
    12    4   44 1
    13    4   45 1
    14    5    6 1
    15    5   46 1
    16    5   47 1
    17    6    7 1
    18    6    9 1
    19    7    8 1
    20    7   48 1
    21    7   49 1
    22    8   50 1
    23    8   51 1
    24    9   10 1
    25    9   52 1
    26    9   53 1
    27   10   15 ar
    28   10   11 ar
    29   11   12 ar
    30   11   54 1
    31   12   13 ar
    32   12   55 1
    33   13   14 ar
    34   13   20 1
    35   14   15 ar
    36   14   56 1
    37   15   16 1
    38   16   17 1
    39   16   18 1
    40   16   19 1
    41   20   21 am
    42   20   57 1
    43   21   22 2
    44   21   23 am
    45   23   24 1
    46   23   58 1
    47   24   29 ar
    48   24   25 ar
    49   25   26 ar
    50   25   59 1
    51   26   27 ar
    52   26   60 1
    53   27   28 ar
    54   27   30 1
    55   28   29 ar
    56   28   61 1
    57   29   62 1
    58   30   31 1
    59   31   36 ar
    60   31   32 ar
    61   32   33 ar
    62   32   63 1
    63   33   34 ar
    64   33   37 1
    65   34   35 ar
    66   35   36 ar
    67   35   64 1
    68   37   38 1
    69   37   65 1
    70   38   66 1
    71   38   67 1
    72   38   68 1
@<TRIPOS>MOLECULE
ZINC23247639
   69    72     0     0     0
SMALL
USER_CHARGES
1-[4-[(4-ethylpiperazin-1-yl)methyl]-3-(trifluoromethyl)phenyl]-3-[4-(6-methylaminopyrimidin-4-yl)oxyphenyl]urea
@<TRIPOS>ATOM
      1 C1          8.9417    3.3719    8.2172 C.3       1 <0>        -0.1569
      2 C2         10.1498    2.9102    7.3997 C.3       1 <0>         0.0486
      3 N1          9.9972    3.3533    6.0075 N.3       1 <0>        -0.5379
      4 C3         11.2367    3.1387    5.2477 C.3       1 <0>         0.0250
      5 C4         11.0629    3.6845    3.8284 C.3       1 <0>         0.0004
      6 N2          9.9288    3.0094    3.1822 N.4       1 <0>        -0.4202
      7 C5          8.6893    3.2240    3.9420 C.3       1 <0>        -0.0009
      8 C6          8.8631    2.6781    5.3612 C.3       1 <0>         0.0222
      9 C7          9.7762    3.4524    1.7899 C.3       1 <0>         0.0266
     10 C8          8.7879    2.5601    1.0842 C.ar      1 <0>        -0.1272
     11 C9          7.5022    3.0092    0.8434 C.ar      1 <0>        -0.0630
     12 C10         6.5958    2.1959    0.1923 C.ar      1 <0>        -0.0846
     13 C11         6.9731    0.9214   -0.2106 C.ar      1 <0>         0.2154
     14 C12         8.2646    0.4735    0.0326 C.ar      1 <0>        -0.0955
     15 C13         9.1683    1.2940    0.6793 C.ar      1 <0>        -0.1507
     16 C14        10.5702    0.8086    0.9441 C.3       1 <0>         0.5109
     17 F1         10.7250   -0.4786    0.4184 F         1 <0>        -0.1491
     18 F2         11.4860    1.6739    0.3362 F         1 <0>        -0.1584
     19 F3         10.8008    0.7797    2.3237 F         1 <0>        -0.1724
     20 N3          6.0552    0.0926   -0.8655 N.am      1 <0>        -0.6988
     21 C15         4.7513    0.1311   -0.5266 C.2       1 <0>         0.7114
     22 O1          4.3858    0.8194    0.4067 O.2       1 <0>        -0.5584
     23 N4          3.8526   -0.5934   -1.2222 N.am      1 <0>        -0.6858
     24 C16         2.4863   -0.4790   -0.9335 C.ar      1 <0>         0.1577
     25 C17         1.5516   -0.5518   -1.9576 C.ar      1 <0>        -0.1240
     26 C18         0.2052   -0.4394   -1.6724 C.ar      1 <0>        -0.0926
     27 C19        -0.2137   -0.2543   -0.3628 C.ar      1 <0>         0.0883
     28 C20         0.7198   -0.1815    0.6609 C.ar      1 <0>        -0.0957
     29 C21         2.0665   -0.2932    0.3769 C.ar      1 <0>        -0.1046
     30 O2         -1.5393   -0.1385   -0.0833 O.3       1 <0>        -0.2426
     31 C22        -2.3129   -1.2454   -0.1983 C.ar      1 <0>         0.3832
     32 C23        -3.6894   -1.1637   -0.0277 C.ar      1 <0>        -0.3126
     33 C24        -4.4409   -2.3284   -0.1601 C.ar      1 <0>         0.4635
     34 N5         -3.8165   -3.4721   -0.4341 N.ar      1 <0>        -0.5931
     35 C25        -2.5082   -3.5081   -0.5840 C.ar      1 <0>         0.3762
     36 N6         -1.7644   -2.4263   -0.4707 N.ar      1 <0>        -0.6049
     37 N7         -5.8178   -2.2988   -0.0034 N.pl3     1 <0>        -0.7212
     38 C26        -6.4937   -1.0344    0.2979 C.3       1 <0>         0.0887
     39 H1          9.0560    3.0401    9.2597 H         1 <0>         0.0714
     40 H2          8.0243    2.9380    7.7928 H         1 <0>         0.0562
     41 H3          8.8763    4.4695    8.1868 H         1 <0>         0.0696
     42 H4         11.0672    3.3441    7.8241 H         1 <0>         0.0895
     43 H5         10.2153    1.8126    7.4301 H         1 <0>         0.0455
     44 H6         12.0665    3.6630    5.7442 H         1 <0>         0.1253
     45 H7         11.4577    2.0621    5.2031 H         1 <0>         0.0582
     46 H8         10.8699    4.7665    3.8728 H         1 <0>         0.1369
     47 H9         11.9796    3.4990    3.2494 H         1 <0>         0.1329
     48 H10         8.4684    4.3007    3.9867 H         1 <0>         0.1355
     49 H11         7.8594    2.6998    3.4455 H         1 <0>         0.1312
     50 H12         9.0569    1.5962    5.3178 H         1 <0>         0.0572
     51 H13         7.9470    2.8635    5.9412 H         1 <0>         0.1266
     52 H14         9.4106    4.4897    1.7732 H         1 <0>         0.1472
     53 H15        10.7489    3.3982    1.2791 H         1 <0>         0.1420
     54 H16         7.2082    3.9988    1.1607 H         1 <0>         0.1512
     55 H17         5.5933    2.5489    0.0003 H         1 <0>         0.1583
     56 H18         8.5625   -0.5152   -0.2838 H         1 <0>         0.1556
     57 H19         6.3979   -0.5903   -1.6569 H         1 <0>         0.4440
     58 H20         4.1917   -1.2745   -2.0166 H         1 <0>         0.4371
     59 H21         1.8775   -0.6959   -2.9771 H         1 <0>         0.1338
     60 H22        -0.5220   -0.4960   -2.4689 H         1 <0>         0.1313
     61 H23         0.3932   -0.0371    1.6801 H         1 <0>         0.1341
     62 H24         2.7931   -0.2369    1.1740 H         1 <0>         0.1440
     63 H25        -4.1646   -0.2205    0.1982 H         1 <0>         0.1470
     64 H26        -2.0315   -4.4515   -0.8058 H         1 <0>         0.2001
     65 H27        -6.4030   -3.2246   -0.1053 H         1 <0>         0.4380
     66 H28        -7.5762   -1.2091    0.3856 H         1 <0>         0.0868
     67 H29        -6.3028   -0.3146   -0.5117 H         1 <0>         0.0604
     68 H30        -6.1096   -0.6302    1.2461 H         1 <0>         0.0603
     69 H31        10.1379    1.9295    3.1711 H         1 <0>         0.4253
@<TRIPOS>BOND
     1    1    2 1
     2    1   39 1
     3    1   40 1
     4    1   41 1
     5    2    3 1
     6    2   42 1
     7    2   43 1
     8    3    8 1
     9    3    4 1
    10    4    5 1
    11    4   44 1
    12    4   45 1
    13    5    6 1
    14    5   46 1
    15    5   47 1
    16    6    7 1
    17    6    9 1
    18    6   69 1
    19    7    8 1
    20    7   48 1
    21    7   49 1
    22    8   50 1
    23    8   51 1
    24    9   10 1
    25    9   52 1
    26    9   53 1
    27   10   15 ar
    28   10   11 ar
    29   11   12 ar
    30   11   54 1
    31   12   13 ar
    32   12   55 1
    33   13   14 ar
    34   13   20 1
    35   14   15 ar
    36   14   56 1
    37   15   16 1
    38   16   17 1
    39   16   18 1
    40   16   19 1
    41   20   21 am
    42   20   57 1
    43   21   22 2
    44   21   23 am
    45   23   24 1
    46   23   58 1
    47   24   29 ar
    48   24   25 ar
    49   25   26 ar
    50   25   59 1
    51   26   27 ar
    52   26   60 1
    53   27   28 ar
    54   27   30 1
    55   28   29 ar
    56   28   61 1
    57   29   62 1
    58   30   31 1
    59   31   36 ar
    60   31   32 ar
    61   32   33 ar
    62   32   63 1
    63   33   34 ar
    64   33   37 1
    65   34   35 ar
    66   35   36 ar
    67   35   64 1
    68   37   38 1
    69   37   65 1
    70   38   66 1
    71   38   67 1
    72   38   68 1
@<TRIPOS>MOLECULE
ZINC23247639
   68    71     0     0     0
SMALL
USER_CHARGES
1-[4-[(4-ethylpiperazin-1-yl)methyl]-3-(trifluoromethyl)phenyl]-3-[4-(6-methylaminopyrimidin-4-yl)oxyphenyl]urea
@<TRIPOS>ATOM
      1 C1          8.9417    3.3719    8.2172 C.3       1 <0>        -0.1510
      2 C2         10.1498    2.9102    7.3997 C.3       1 <0>         0.0499
      3 N1          9.9972    3.3533    6.0075 N.3       1 <0>        -0.5402
      4 C3         11.2367    3.1387    5.2477 C.3       1 <0>         0.0569
      5 C4         11.0629    3.6845    3.8284 C.3       1 <0>         0.0590
      6 N2          9.9288    3.0094    3.1822 N.3       1 <0>        -0.5268
      7 C5          8.6893    3.2240    3.9420 C.3       1 <0>         0.0561
      8 C6          8.8631    2.6781    5.3612 C.3       1 <0>         0.0550
      9 C7          9.7762    3.4524    1.7899 C.3       1 <0>         0.0729
     10 C8          8.7879    2.5601    1.0842 C.ar      1 <0>        -0.0447
     11 C9          7.5022    3.0092    0.8434 C.ar      1 <0>        -0.0942
     12 C10         6.5958    2.1959    0.1923 C.ar      1 <0>        -0.0884
     13 C11         6.9731    0.9214   -0.2106 C.ar      1 <0>         0.1720
     14 C12         8.2646    0.4735    0.0326 C.ar      1 <0>        -0.1038
     15 C13         9.1683    1.2940    0.6793 C.ar      1 <0>        -0.1404
     16 C14        10.5702    0.8086    0.9441 C.3       1 <0>         0.5095
     17 F1         10.7250   -0.4786    0.4184 F         1 <0>        -0.1841
     18 F2         11.4860    1.6739    0.3362 F         1 <0>        -0.1795
     19 F3         10.8008    0.7797    2.3237 F         1 <0>        -0.1519
     20 N3          6.0552    0.0926   -0.8655 N.am      1 <0>        -0.6948
     21 C15         4.7513    0.1311   -0.5266 C.2       1 <0>         0.7096
     22 O1          4.3858    0.8194    0.4067 O.2       1 <0>        -0.5587
     23 N4          3.8526   -0.5934   -1.2222 N.am      1 <0>        -0.6930
     24 C16         2.4863   -0.4790   -0.9335 C.ar      1 <0>         0.1697
     25 C17         1.5516   -0.5518   -1.9576 C.ar      1 <0>        -0.1297
     26 C18         0.2052   -0.4394   -1.6724 C.ar      1 <0>        -0.0930
     27 C19        -0.2137   -0.2543   -0.3628 C.ar      1 <0>         0.0783
     28 C20         0.7198   -0.1815    0.6609 C.ar      1 <0>        -0.0936
     29 C21         2.0665   -0.2932    0.3769 C.ar      1 <0>        -0.1059
     30 O2         -1.5393   -0.1385   -0.0833 O.3       1 <0>        -0.2412
     31 C22        -2.3129   -1.2454   -0.1983 C.ar      1 <0>         0.3851
     32 C23        -3.6894   -1.1637   -0.0277 C.ar      1 <0>        -0.3141
     33 C24        -4.4409   -2.3284   -0.1601 C.ar      1 <0>         0.4620
     34 N5         -3.8165   -3.4721   -0.4341 N.ar      1 <0>        -0.5954
     35 C25        -2.5082   -3.5081   -0.5840 C.ar      1 <0>         0.3753
     36 N6         -1.7644   -2.4263   -0.4707 N.ar      1 <0>        -0.6017
     37 N7         -5.8178   -2.2988   -0.0034 N.pl3     1 <0>        -0.7231
     38 C26        -6.4937   -1.0344    0.2979 C.3       1 <0>         0.0898
     39 H1          9.0560    3.0401    9.2597 H         1 <0>         0.0595
     40 H2          8.0243    2.9380    7.7928 H         1 <0>         0.0547
     41 H3          8.8763    4.4695    8.1868 H         1 <0>         0.0631
     42 H4         11.0672    3.3441    7.8241 H         1 <0>         0.0746
     43 H5         10.2153    1.8126    7.4301 H         1 <0>         0.0335
     44 H6         12.0665    3.6630    5.7442 H         1 <0>         0.0800
     45 H7         11.4577    2.0621    5.2031 H         1 <0>         0.0441
     46 H8         10.8699    4.7665    3.8728 H         1 <0>         0.0445
     47 H9         11.9796    3.4990    3.2494 H         1 <0>         0.0809
     48 H10         8.4684    4.3007    3.9867 H         1 <0>         0.0435
     49 H11         7.8594    2.6998    3.4455 H         1 <0>         0.0808
     50 H12         9.0569    1.5962    5.3178 H         1 <0>         0.0425
     51 H13         7.9470    2.8635    5.9412 H         1 <0>         0.0819
     52 H14         9.4106    4.4897    1.7732 H         1 <0>         0.0550
     53 H15        10.7489    3.3982    1.2791 H         1 <0>         0.0962
     54 H16         7.2082    3.9988    1.1607 H         1 <0>         0.1355
     55 H17         5.5933    2.5489    0.0003 H         1 <0>         0.1427
     56 H18         8.5625   -0.5152   -0.2838 H         1 <0>         0.1409
     57 H19         6.3979   -0.5903   -1.6569 H         1 <0>         0.4343
     58 H20         4.1917   -1.2745   -2.0166 H         1 <0>         0.4332
     59 H21         1.8775   -0.6959   -2.9771 H         1 <0>         0.1323
     60 H22        -0.5220   -0.4960   -2.4689 H         1 <0>         0.1282
     61 H23         0.3932   -0.0371    1.6801 H         1 <0>         0.1328
     62 H24         2.7931   -0.2369    1.1740 H         1 <0>         0.1466
     63 H25        -4.1646   -0.2205    0.1982 H         1 <0>         0.1463
     64 H26        -2.0315   -4.4515   -0.8058 H         1 <0>         0.1996
     65 H27        -6.4030   -3.2246   -0.1053 H         1 <0>         0.4362
     66 H28        -7.5762   -1.2091    0.3856 H         1 <0>         0.0851
     67 H29        -6.3028   -0.3146   -0.5117 H         1 <0>         0.0598
     68 H30        -6.1096   -0.6302    1.2461 H         1 <0>         0.0599
@<TRIPOS>BOND
     1    1    2 1
     2    1   39 1
     3    1   40 1
     4    1   41 1
     5    2    3 1
     6    2   42 1
     7    2   43 1
     8    3    8 1
     9    3    4 1
    10    4    5 1
    11    4   44 1
    12    4   45 1
    13    5    6 1
    14    5   46 1
    15    5   47 1
    16    6    7 1
    17    6    9 1
    18    7    8 1
    19    7   48 1
    20    7   49 1
    21    8   50 1
    22    8   51 1
    23    9   10 1
    24    9   52 1
    25    9   53 1
    26   10   15 ar
    27   10   11 ar
    28   11   12 ar
    29   11   54 1
    30   12   13 ar
    31   12   55 1
    32   13   14 ar
    33   13   20 1
    34   14   15 ar
    35   14   56 1
    36   15   16 1
    37   16   17 1
    38   16   18 1
    39   16   19 1
    40   20   21 am
    41   20   57 1
    42   21   22 2
    43   21   23 am
    44   23   24 1
    45   23   58 1
    46   24   29 ar
    47   24   25 ar
    48   25   26 ar
    49   25   59 1
    50   26   27 ar
    51   26   60 1
    52   27   28 ar
    53   27   30 1
    54   28   29 ar
    55   28   61 1
    56   29   62 1
    57   30   31 1
    58   31   36 ar
    59   31   32 ar
    60   32   33 ar
    61   32   63 1
    62   33   34 ar
    63   33   37 1
    64   34   35 ar
    65   35   36 ar
    66   35   64 1
    67   37   38 1
    68   37   65 1
    69   38   66 1
    70   38   67 1
    71   38   68 1
@<TRIPOS>MOLECULE
ZINC03832235
   31    33     0     0     0
SMALL
USER_CHARGES
3-styrylquinoline
@<TRIPOS>ATOM
      1 C1         -6.1081   -2.5614    0.0197 C.ar      1 <0>        -0.1166
      2 C2         -4.8969   -3.2305    0.0103 C.ar      1 <0>        -0.1193
      3 C3         -3.7137   -2.5218    0.0081 C.ar      1 <0>        -0.1054
      4 C4         -3.7402   -1.1247    0.0153 C.ar      1 <0>        -0.0614
      5 C5         -4.9671   -0.4559    0.0306 C.ar      1 <0>        -0.1120
      6 C6         -6.1422   -1.1780    0.0265 C.ar      1 <0>        -0.1191
      7 C7         -2.4802   -0.3602    0.0129 C.2       1 <0>        -0.0973
      8 C8         -2.5094    0.9824    0.0199 C.2       1 <0>        -0.1069
      9 C9         -1.2498    1.7466    0.0175 C.ar      1 <0>        -0.1094
     10 C10        -1.2730    3.1380    0.0297 C.ar      1 <0>        -0.0488
     11 C11        -0.0435    3.8171    0.0221 C.ar      1 <0>        -0.0992
     12 C12         0.0126    5.2216    0.0296 C.ar      1 <0>        -0.0974
     13 C13         1.2219    5.8467    0.0223 C.ar      1 <0>        -0.1142
     14 C14         2.4057    5.1118    0.0075 C.ar      1 <0>        -0.1001
     15 C15         2.3883    3.7507   -0.0005 C.ar      1 <0>        -0.0928
     16 C16         1.1601    3.0675    0.0070 C.ar      1 <0>         0.1238
     17 N1          1.1199    1.7303    0.0007 N.ar      1 <0>        -0.4710
     18 C17        -0.0126    1.0758    0.0080 C.ar      1 <0>         0.1398
     19 H1         -7.0315   -3.1216    0.0214 H         1 <0>         0.1232
     20 H2         -4.8780   -4.3103    0.0051 H         1 <0>         0.1249
     21 H3         -2.7691   -3.0454    0.0004 H         1 <0>         0.1259
     22 H4         -4.9952    0.6237    0.0408 H         1 <0>         0.1248
     23 H5         -7.0912   -0.6626    0.0334 H         1 <0>         0.1242
     24 H6         -1.5334   -0.8797    0.0056 H         1 <0>         0.1253
     25 H7         -3.4562    1.5019    0.0273 H         1 <0>         0.1270
     26 H8         -2.2077    3.6790    0.0408 H         1 <0>         0.1421
     27 H9         -0.8985    5.8015    0.0406 H         1 <0>         0.1314
     28 H10         1.2643    6.9259    0.0284 H         1 <0>         0.1296
     29 H11         3.3529    5.6308    0.0024 H         1 <0>         0.1316
     30 H12         3.3157    3.1974   -0.0120 H         1 <0>         0.1365
     31 H13         0.0021   -0.0041    0.0020 H         1 <0>         0.1610
@<TRIPOS>BOND
     1    1    6 ar
     2    1    2 ar
     3    1   19 1
     4    2    3 ar
     5    2   20 1
     6    3    4 ar
     7    3   21 1
     8    4    5 ar
     9    4    7 1
    10    5    6 ar
    11    5   22 1
    12    6   23 1
    13    7    8 2
    14    7   24 1
    15    8    9 1
    16    8   25 1
    17    9   18 ar
    18    9   10 ar
    19   10   11 ar
    20   10   26 1
    21   11   16 ar
    22   11   12 ar
    23   12   13 ar
    24   12   27 1
    25   13   14 ar
    26   13   28 1
    27   14   15 ar
    28   14   29 1
    29   15   16 ar
    30   15   30 1
    31   16   17 ar
    32   17   18 ar
    33   18   31 1
@<TRIPOS>MOLECULE
ZINC37858694
   34    35     0     0     0
SMALL
USER_CHARGES

@<TRIPOS>ATOM
      1 C1         -0.2810    1.4762   -0.2008 C.3       1 <0>         0.0231
      2 O1         -0.1218    0.0592   -0.1082 O.3       1 <0>        -0.3018
      3 C2          0.5118   -0.5589   -1.1388 C.ar      1 <0>         0.1209
      4 C3          0.9753    0.1877   -2.2139 C.ar      1 <0>        -0.1736
      5 C4          1.6182   -0.4328   -3.2622 C.ar      1 <0>        -0.0911
      6 C5          1.8060   -1.8206   -3.2446 C.ar      1 <0>        -0.0909
      7 C6          1.3384   -2.5723   -2.1594 C.ar      1 <0>        -0.1440
      8 C7          0.6998   -1.9403   -1.1108 C.ar      1 <0>         0.0979
      9 O2          0.2489   -2.6662   -0.0528 O.3       1 <0>        -0.3043
     10 C8          0.4755   -4.0766   -0.0901 C.3       1 <0>         0.0238
     11 C9          2.4902   -2.4850   -4.3601 C.2       1 <0>         0.0027
     12 C10         3.4544   -1.8243   -5.0579 C.2       1 <0>        -0.0300
     13 C11         3.9086   -0.5414   -4.6123 C.1       1 <0>         0.2509
     14 N1          4.2689    0.4763   -4.2588 N.1       1 <0>        -0.4110
     15 C12         4.0338   -2.4323   -6.2779 C.ar      1 <0>        -0.1014
     16 C13         5.3815   -2.8064   -6.3148 C.ar      1 <0>        -0.0544
     17 C14         5.8740   -3.3707   -7.4783 C.ar      1 <0>        -0.1700
     18 C15         5.0263   -3.5453   -8.5575 C.ar      1 <0>         0.1079
     19 N2          3.7598   -3.1825   -8.4939 N.ar      1 <0>        -0.4817
     20 C16         3.2437   -2.6467   -7.4068 C.ar      1 <0>         0.1240
     21 H1          0.6992    1.9484   -0.2674 H         1 <0>         0.0574
     22 H2         -0.8625    1.7192   -1.0902 H         1 <0>         0.0580
     23 H3         -0.8011    1.8421    0.6845 H         1 <0>         0.1045
     24 H4          0.8309    1.2579   -2.2284 H         1 <0>         0.1402
     25 H5          1.9769    0.1504   -4.0974 H         1 <0>         0.1299
     26 H6          1.4807   -3.6427   -2.1407 H         1 <0>         0.1442
     27 H7          1.5467   -4.2712   -0.1436 H         1 <0>         0.0563
     28 H8          0.0677   -4.5341    0.8113 H         1 <0>         0.1032
     29 H9         -0.0150   -4.5004   -0.9664 H         1 <0>         0.0572
     30 H10         2.2286   -3.4982   -4.6275 H         1 <0>         0.1525
     31 H11         6.0211   -2.6581   -5.4573 H         1 <0>         0.1374
     32 H12         6.9093   -3.6713   -7.5433 H         1 <0>         0.1406
     33 H13         5.4078   -3.9855   -9.4670 H         1 <0>         0.1598
     34 H14         2.2007   -2.3670   -7.3912 H         1 <0>         0.1619
@<TRIPOS>BOND
     1    1    2 1
     2    1   21 1
     3    1   22 1
     4    1   23 1
     5    2    3 1
     6    3    8 ar
     7    3    4 ar
     8    4    5 ar
     9    4   24 1
    10    5    6 ar
    11    5   25 1
    12    6    7 ar
    13    6   11 1
    14    7    8 ar
    15    7   26 1
    16    8    9 1
    17    9   10 1
    18   10   27 1
    19   10   28 1
    20   10   29 1
    21   11   12 2
    22   11   30 1
    23   12   13 1
    24   12   15 1
    25   13   14 3
    26   15   20 ar
    27   15   16 ar
    28   16   17 ar
    29   16   31 1
    30   17   18 ar
    31   17   32 1
    32   18   19 ar
    33   18   33 1
    34   19   20 ar
    35   20   34 1
@<TRIPOS>MOLECULE
ZINC02581408
   34    36     0     0     0
SMALL
USER_CHARGES

@<TRIPOS>ATOM
      1 C1         -0.0173    1.4248    0.0099 C.3       1 <0>         0.0231
      2 O1          0.0021   -0.0041    0.0020 O.3       1 <0>        -0.3098
      3 C2         -1.1995   -0.6370    0.0101 C.ar      1 <0>         0.1987
      4 C3         -2.3594    0.1067    0.0194 C.ar      1 <0>        -0.2430
      5 C4         -3.6035   -0.5422    0.0273 C.ar      1 <0>         0.2040
      6 C5         -3.6426   -1.9600    0.0255 C.ar      1 <0>        -0.1509
      7 C6         -4.8865   -2.6090    0.0335 C.ar      1 <0>         0.0002
      8 C7         -6.0321   -1.8243    0.0428 C.ar      1 <0>        -0.1405
      9 C8         -5.9125   -0.4262    0.0440 C.ar      1 <0>         0.1721
     10 N1         -4.7424    0.1610    0.0369 N.ar      1 <0>        -0.4826
     11 C9         -7.3721   -2.4593    0.0509 C.ar      1 <0>         0.0117
     12 C10        -7.5075   -3.8508    0.0552 C.ar      1 <0>        -0.1700
     13 C11        -8.7729   -4.4000    0.0627 C.ar      1 <0>         0.1070
     14 N2         -9.8450   -3.6310    0.0654 N.ar      1 <0>        -0.4881
     15 C12        -9.7612   -2.3142    0.0615 C.ar      1 <0>         0.1068
     16 C13        -8.5347   -1.6827    0.0603 C.ar      1 <0>        -0.1694
     17 C14        -2.4379   -2.6937    0.0163 C.ar      1 <0>         0.1984
     18 C15        -1.2428   -2.0327    0.0030 C.ar      1 <0>        -0.2459
     19 O2         -2.4663   -4.0508    0.0150 O.3       1 <0>        -0.3057
     20 C16        -1.2069   -4.7261    0.0055 C.3       1 <0>         0.0219
     21 H1          1.0053    1.8021    0.0021 H         1 <0>         0.1053
     22 H2         -0.5445    1.7859   -0.8732 H         1 <0>         0.0619
     23 H3         -0.5275    1.7763    0.9067 H         1 <0>         0.0619
     24 H4         -2.3111    1.1856    0.0210 H         1 <0>         0.1453
     25 H5         -4.9511   -3.6871    0.0320 H         1 <0>         0.1483
     26 H6         -6.8066    0.1795    0.0512 H         1 <0>         0.1648
     27 H7         -6.6343   -4.4864    0.0523 H         1 <0>         0.1368
     28 H8         -8.8876   -5.4739    0.0660 H         1 <0>         0.1588
     29 H9        -10.6649   -1.7229    0.0636 H         1 <0>         0.1596
     30 H10        -8.4735   -0.6044    0.0622 H         1 <0>         0.1390
     31 H11        -0.3212   -2.5957   -0.0085 H         1 <0>         0.1457
     32 H12        -0.6501   -4.4439   -0.8881 H         1 <0>         0.0632
     33 H13        -0.6377   -4.4459    0.8919 H         1 <0>         0.0633
     34 H14        -1.3723   -5.8034    0.0054 H         1 <0>         0.1081
@<TRIPOS>BOND
     1    1    2 1
     2    1   21 1
     3    1   22 1
     4    1   23 1
     5    2    3 1
     6    3   18 ar
     7    3    4 ar
     8    4    5 ar
     9    4   24 1
    10    5   10 ar
    11    5    6 ar
    12    6    7 ar
    13    6   17 ar
    14    7    8 ar
    15    7   25 1
    16    8    9 ar
    17    8   11 1
    18    9   10 ar
    19    9   26 1
    20   11   16 ar
    21   11   12 ar
    22   12   13 ar
    23   12   27 1
    24   13   14 ar
    25   13   28 1
    26   14   15 ar
    27   15   16 ar
    28   15   29 1
    29   16   30 1
    30   17   18 ar
    31   17   19 1
    32   18   31 1
    33   19   20 1
    34   20   32 1
    35   20   33 1
    36   20   34 1
@<TRIPOS>MOLECULE
ZINC00007037
   32    35     0     0     0
SMALL
USER_CHARGES
phenylBLAH
@<TRIPOS>ATOM
      1 C1          1.1335   -4.9697   -0.0343 C.ar      1 <0>        -0.1015
      2 C2         -0.0490   -4.2572   -0.1234 C.ar      1 <0>        -0.1221
      3 C3         -0.0285   -2.8775   -0.1173 C.ar      1 <0>        -0.0950
      4 C4          1.1873   -2.2015   -0.0206 C.ar      1 <0>        -0.0576
      5 C5          2.3762   -2.9251    0.0636 C.ar      1 <0>        -0.0741
      6 C6          2.3427   -4.3046    0.0623 C.ar      1 <0>        -0.1251
      7 C7          1.2161   -0.7197   -0.0134 C.ar      1 <0>         0.1558
      8 C8          0.0021   -0.0041    0.0020 C.ar      1 <0>         0.0967
      9 N1         -0.0157    1.3043    0.0092 N.ar      1 <0>        -0.4183
     10 C9          1.1418    1.9876    0.0018 C.ar      1 <0>         0.0568
     11 C10         1.1460    3.3809    0.0088 C.ar      1 <0>        -0.0540
     12 C11         2.3592    4.0671    0.0004 C.ar      1 <0>        -0.0403
     13 C12         2.3985    5.4778    0.0066 C.ar      1 <0>        -0.1033
     14 C13         3.5975    6.1146   -0.0024 C.ar      1 <0>        -0.1070
     15 C14         4.8020    5.4105   -0.0172 C.ar      1 <0>        -0.1052
     16 C15         4.8355    4.0534   -0.0243 C.ar      1 <0>        -0.1051
     17 C16         3.6253    3.3268   -0.0156 C.ar      1 <0>        -0.0358
     18 C17         3.6219    1.9335   -0.0226 C.ar      1 <0>        -0.0600
     19 C18         2.4077    1.2467   -0.0142 C.ar      1 <0>         0.0751
     20 N2          2.3774   -0.0945   -0.0211 N.ar      1 <0>        -0.4229
     21 H1          1.1125   -6.0495   -0.0399 H         1 <0>         0.1265
     22 H2         -0.9900   -4.7819   -0.1983 H         1 <0>         0.1298
     23 H3         -0.9522   -2.3223   -0.1868 H         1 <0>         0.1298
     24 H4          3.3212   -2.4069    0.1342 H         1 <0>         0.1347
     25 H5          3.2626   -4.8661    0.1319 H         1 <0>         0.1280
     26 H6         -0.9320   -0.5462    0.0076 H         1 <0>         0.1756
     27 H7          0.2140    3.9264    0.0207 H         1 <0>         0.1466
     28 H8          1.4808    6.0471    0.0188 H         1 <0>         0.1348
     29 H9          3.6195    7.1943    0.0024 H         1 <0>         0.1281
     30 H10         5.7320    5.9595   -0.0232 H         1 <0>         0.1281
     31 H11         5.7819    3.5330   -0.0365 H         1 <0>         0.1347
     32 H12         4.5541    1.3882   -0.0340 H         1 <0>         0.1463
@<TRIPOS>BOND
     1    1    6 ar
     2    1    2 ar
     3    1   21 1
     4    2    3 ar
     5    2   22 1
     6    3    4 ar
     7    3   23 1
     8    4    5 ar
     9    4    7 1
    10    5    6 ar
    11    5   24 1
    12    6   25 1
    13    7   20 ar
    14    7    8 ar
    15    8    9 ar
    16    8   26 1
    17    9   10 ar
    18   10   19 ar
    19   10   11 ar
    20   11   12 ar
    21   11   27 1
    22   12   17 ar
    23   12   13 ar
    24   13   14 ar
    25   13   28 1
    26   14   15 ar
    27   14   29 1
    28   15   16 ar
    29   15   30 1
    30   16   17 ar
    31   16   31 1
    32   17   18 ar
    33   18   19 ar
    34   18   32 1
    35   19   20 ar
@<TRIPOS>MOLECULE
ZINC00257983
   32    34     0     0     0
SMALL
USER_CHARGES

@<TRIPOS>ATOM
      1 C1         -0.0184    1.5028    0.0103 C.3       1 <0>        -0.1214
      2 C2          0.0021   -0.0041    0.0020 C.ar      1 <0>        -0.0628
      3 C3          0.0055   -0.6682   -1.1864 C.ar      1 <0>        -0.0828
      4 C4          0.0250   -2.0729   -1.2000 C.ar      1 <0>         0.0723
      5 C5          0.0409   -2.7786    0.0302 C.ar      1 <0>         0.0900
      6 C6          0.0367   -2.0577    1.2375 C.ar      1 <0>        -0.0870
      7 C7          0.0230   -0.6970    1.2108 C.ar      1 <0>        -0.0590
      8 C8          0.0243    0.0713    2.5073 C.3       1 <0>        -0.1216
      9 N1          0.0599   -4.1150    0.0266 N.ar      1 <0>        -0.4233
     10 C9          0.0638   -4.7658   -1.1236 C.ar      1 <0>         0.1461
     11 C10         0.0485   -4.0617   -2.3420 C.ar      1 <0>         0.0862
     12 N2          0.0298   -2.7505   -2.3547 N.ar      1 <0>        -0.4198
     13 C11         0.0850   -6.2482   -1.1304 C.ar      1 <0>        -0.0555
     14 C12        -0.0102   -6.9549    0.0675 C.ar      1 <0>        -0.0753
     15 C13         0.0101   -8.3347    0.0550 C.ar      1 <0>        -0.1248
     16 C14         0.1245   -9.0166   -1.1432 C.ar      1 <0>        -0.1023
     17 C15         0.2193   -8.3207   -2.3350 C.ar      1 <0>        -0.1218
     18 C16         0.1943   -6.9409   -2.3353 C.ar      1 <0>        -0.0958
     19 H1          1.0042    1.8801    0.0026 H         1 <0>         0.0781
     20 H2         -0.5455    1.8639   -0.8728 H         1 <0>         0.0726
     21 H3         -0.5286    1.8543    0.9071 H         1 <0>         0.0756
     22 H4         -0.0071   -0.1173   -2.1153 H         1 <0>         0.1410
     23 H5          0.0483   -2.5815    2.1819 H         1 <0>         0.1408
     24 H6         -1.0029    0.2422    2.8294 H         1 <0>         0.0784
     25 H7          0.5532   -0.5019    3.2687 H         1 <0>         0.0726
     26 H8          0.5235    1.0292    2.3615 H         1 <0>         0.0758
     27 H9          0.0526   -4.6060   -3.2748 H         1 <0>         0.1757
     28 H10        -0.0992   -6.4236    1.0036 H         1 <0>         0.1344
     29 H11        -0.0631   -8.8832    0.9825 H         1 <0>         0.1280
     30 H12         0.1403  -10.0965   -1.1481 H         1 <0>         0.1265
     31 H13         0.3084   -8.8584   -3.2674 H         1 <0>         0.1297
     32 H14         0.2634   -6.3988   -3.2668 H         1 <0>         0.1293
@<TRIPOS>BOND
     1    1    2 1
     2    1   19 1
     3    1   20 1
     4    1   21 1
     5    2    7 ar
     6    2    3 ar
     7    3    4 ar
     8    3   22 1
     9    4   12 ar
    10    4    5 ar
    11    5    6 ar
    12    5    9 ar
    13    6    7 ar
    14    6   23 1
    15    7    8 1
    16    8   24 1
    17    8   25 1
    18    8   26 1
    19    9   10 ar
    20   10   11 ar
    21   10   13 1
    22   11   12 ar
    23   11   27 1
    24   13   18 ar
    25   13   14 ar
    26   14   15 ar
    27   14   28 1
    28   15   16 ar
    29   15   29 1
    30   16   17 ar
    31   16   30 1
    32   17   18 ar
    33   17   31 1
    34   18   32 1
@<TRIPOS>MOLECULE
ZINC19632618
   69    73     0     0     0
SMALL
USER_CHARGES

@<TRIPOS>ATOM
      1 C1         -0.1643    1.5374    0.2772 C.3       1 <0>        -0.1166
      2 C2          0.0708    0.1281   -0.2021 C.ar      1 <0>        -0.1228
      3 C3         -0.6192   -0.3521   -1.2987 C.ar      1 <0>        -0.0806
      4 C4         -0.4070   -1.6434   -1.7410 C.ar      1 <0>        -0.1294
      5 C5          0.5017   -2.4641   -1.0837 C.ar      1 <0>         0.1504
      6 C6          1.1965   -1.9850    0.0175 C.ar      1 <0>        -0.1394
      7 C7          0.9852   -0.6852    0.4558 C.ar      1 <0>         0.1826
      8 N1          1.6874   -0.1967    1.5617 N.pl3     1 <0>        -0.6314
      9 C8          2.1285   -1.0695    2.5429 C.ar      1 <0>         0.5659
     10 N2          1.7764   -2.3456    2.4776 N.ar      1 <0>        -0.5577
     11 C9          2.1776   -3.2107    3.3953 C.ar      1 <0>         0.1910
     12 C10         2.9764   -2.7714    4.4364 C.ar      1 <0>        -0.2706
     13 C11         3.3313   -1.4207    4.4789 C.ar      1 <0>         0.2697
     14 N3          2.8950   -0.6087    3.5185 N.ar      1 <0>        -0.5576
     15 C12         4.1856   -0.9008    5.5740 C.ar      1 <0>        -0.1200
     16 C13         4.4510    0.4679    5.6793 C.ar      1 <0>        -0.0267
     17 C14         5.2541    0.9026    6.7193 C.ar      1 <0>        -0.1772
     18 C15         5.7636   -0.0222    7.6129 C.ar      1 <0>         0.1192
     19 N4          5.4957   -1.3077    7.4879 N.ar      1 <0>        -0.4844
     20 C16         4.7320   -1.7677    6.5181 C.ar      1 <0>         0.1336
     21 N5          0.7153   -3.7716   -1.5315 N.am      1 <0>        -0.6649
     22 C17         0.7404   -4.0356   -2.8529 C.2       1 <0>         0.5545
     23 O1          0.4912   -3.1555   -3.6535 O.2       1 <0>        -0.5086
     24 C18         1.0709   -5.3955   -3.3287 C.ar      1 <0>        -0.1216
     25 C19         1.3519   -6.4100   -2.4119 C.ar      1 <0>        -0.0841
     26 C20         1.6592   -7.6771   -2.8626 C.ar      1 <0>        -0.1244
     27 C21         1.6892   -7.9435   -4.2200 C.ar      1 <0>        -0.0692
     28 C22         1.4117   -6.9425   -5.1341 C.ar      1 <0>        -0.0994
     29 C23         1.0978   -5.6724   -4.6966 C.ar      1 <0>        -0.0536
     30 C24         2.0262   -9.3299   -4.7050 C.3       1 <0>         0.0939
     31 N6          0.7933  -10.1196   -4.8258 N.3       1 <0>        -0.5345
     32 C25         0.1866  -10.3538   -3.5078 C.3       1 <0>         0.0185
     33 C26        -1.1228  -11.1262   -3.6823 C.3       1 <0>        -0.0025
     34 N7         -0.8513  -12.4061   -4.3498 N.4       1 <0>        -0.3884
     35 C27        -0.2685  -12.1554   -5.6746 C.3       1 <0>        -0.0024
     36 C28         1.0481  -11.3916   -5.5166 C.3       1 <0>         0.0250
     37 C29        -2.1059  -13.1551   -4.5009 C.3       1 <0>        -0.0460
     38 H1          0.5251    2.2130   -0.2290 H         1 <0>         0.0728
     39 H2         -1.1901    1.8307    0.0540 H         1 <0>         0.0743
     40 H3          0.0021    1.5877    1.3533 H         1 <0>         0.0627
     41 H4         -1.3262    0.2836   -1.8111 H         1 <0>         0.1320
     42 H5         -0.9481   -2.0158   -2.5982 H         1 <0>         0.1349
     43 H6          1.9030   -2.6209    0.5302 H         1 <0>         0.1479
     44 H7          1.8658    0.7534    1.6418 H         1 <0>         0.4260
     45 H8          1.8844   -4.2483    3.3325 H         1 <0>         0.1734
     46 H9          3.3172   -3.4566    5.1985 H         1 <0>         0.1507
     47 H10         4.0401    1.1680    4.9670 H         1 <0>         0.1466
     48 H11         5.4807    1.9525    6.8318 H         1 <0>         0.1437
     49 H12         6.3909    0.3135    8.4254 H         1 <0>         0.1633
     50 H13         4.5316   -2.8268    6.4514 H         1 <0>         0.1617
     51 H14         0.8453   -4.4884   -0.8911 H         1 <0>         0.4084
     52 H15         1.3291   -6.2032   -1.3521 H         1 <0>         0.1294
     53 H16         1.8771   -8.4627   -2.1544 H         1 <0>         0.1265
     54 H17         1.4372   -7.1570   -6.1922 H         1 <0>         0.1340
     55 H18         0.8770   -4.8931   -5.4110 H         1 <0>         0.1424
     56 H19         2.5135   -9.2661   -5.6779 H         1 <0>         0.1008
     57 H20         2.6973   -9.8107   -3.9933 H         1 <0>         0.0595
     58 H21         0.8718  -10.9344   -2.8900 H         1 <0>         0.0618
     59 H22        -0.0167   -9.3975   -3.0259 H         1 <0>         0.1265
     60 H23        -1.5673  -11.3133   -2.7048 H         1 <0>         0.1359
     61 H24        -1.8127  -10.5393   -4.2887 H         1 <0>         0.1379
     62 H25        -0.0795  -13.1056   -6.1741 H         1 <0>         0.1367
     63 H26        -0.9627  -11.5633   -6.2708 H         1 <0>         0.1381
     64 H27         1.4733  -11.1924   -6.5003 H         1 <0>         0.1253
     65 H28         1.7474  -11.9892   -4.9320 H         1 <0>         0.0621
     66 H29        -2.8061  -12.5737   -5.1008 H         1 <0>         0.1233
     67 H30        -1.9046  -14.1049   -4.9963 H         1 <0>         0.1246
     68 H31        -2.5379  -13.3423   -3.5179 H         1 <0>         0.1243
     69 H32        -0.2036  -12.9443   -3.7940 H         1 <0>         0.4222
@<TRIPOS>BOND
     1    1    2 1
     2    1   38 1
     3    1   39 1
     4    1   40 1
     5    2    7 ar
     6    2    3 ar
     7    3    4 ar
     8    3   41 1
     9    4    5 ar
    10    4   42 1
    11    5    6 ar
    12    5   21 1
    13    6    7 ar
    14    6   43 1
    15    7    8 1
    16    8    9 1
    17    8   44 1
    18    9   14 ar
    19    9   10 ar
    20   10   11 ar
    21   11   12 ar
    22   11   45 1
    23   12   13 ar
    24   12   46 1
    25   13   14 ar
    26   13   15 1
    27   15   20 ar
    28   15   16 ar
    29   16   17 ar
    30   16   47 1
    31   17   18 ar
    32   17   48 1
    33   18   19 ar
    34   18   49 1
    35   19   20 ar
    36   20   50 1
    37   21   22 am
    38   21   51 1
    39   22   23 2
    40   22   24 1
    41   24   29 ar
    42   24   25 ar
    43   25   26 ar
    44   25   52 1
    45   26   27 ar
    46   26   53 1
    47   27   28 ar
    48   27   30 1
    49   28   29 ar
    50   28   54 1
    51   29   55 1
    52   30   31 1
    53   30   56 1
    54   30   57 1
    55   31   36 1
    56   31   32 1
    57   32   33 1
    58   32   58 1
    59   32   59 1
    60   33   34 1
    61   33   60 1
    62   33   61 1
    63   34   35 1
    64   34   37 1
    65   34   69 1
    66   35   36 1
    67   35   62 1
    68   35   63 1
    69   36   64 1
    70   36   65 1
    71   37   66 1
    72   37   67 1
    73   37   68 1
@<TRIPOS>MOLECULE
ZINC19632618
   69    73     0     0     0
SMALL
USER_CHARGES

@<TRIPOS>ATOM
      1 C1         -0.1643    1.5374    0.2772 C.3       1 <0>        -0.1179
      2 C2          0.0708    0.1281   -0.2021 C.ar      1 <0>        -0.1195
      3 C3         -0.6192   -0.3521   -1.2987 C.ar      1 <0>        -0.0803
      4 C4         -0.4070   -1.6434   -1.7410 C.ar      1 <0>        -0.1287
      5 C5          0.5017   -2.4641   -1.0837 C.ar      1 <0>         0.1452
      6 C6          1.1965   -1.9850    0.0175 C.ar      1 <0>        -0.1374
      7 C7          0.9852   -0.6852    0.4558 C.ar      1 <0>         0.1839
      8 N1          1.6874   -0.1967    1.5617 N.pl3     1 <0>        -0.6318
      9 C8          2.1285   -1.0695    2.5429 C.ar      1 <0>         0.5654
     10 N2          1.7764   -2.3456    2.4776 N.ar      1 <0>        -0.5590
     11 C9          2.1776   -3.2107    3.3953 C.ar      1 <0>         0.1907
     12 C10         2.9764   -2.7714    4.4364 C.ar      1 <0>        -0.2695
     13 C11         3.3313   -1.4207    4.4789 C.ar      1 <0>         0.2707
     14 N3          2.8950   -0.6087    3.5185 N.ar      1 <0>        -0.5571
     15 C12         4.1856   -0.9008    5.5740 C.ar      1 <0>        -0.1213
     16 C13         4.4510    0.4679    5.6793 C.ar      1 <0>        -0.0264
     17 C14         5.2541    0.9026    6.7193 C.ar      1 <0>        -0.1772
     18 C15         5.7636   -0.0222    7.6129 C.ar      1 <0>         0.1201
     19 N4          5.4957   -1.3077    7.4879 N.ar      1 <0>        -0.4842
     20 C16         4.7320   -1.7677    6.5181 C.ar      1 <0>         0.1342
     21 N5          0.7153   -3.7716   -1.5315 N.am      1 <0>        -0.6603
     22 C17         0.7404   -4.0356   -2.8529 C.2       1 <0>         0.5491
     23 O1          0.4912   -3.1555   -3.6535 O.2       1 <0>        -0.5015
     24 C18         1.0709   -5.3955   -3.3287 C.ar      1 <0>        -0.0938
     25 C19         1.3519   -6.4100   -2.4119 C.ar      1 <0>        -0.0834
     26 C20         1.6592   -7.6771   -2.8626 C.ar      1 <0>        -0.1009
     27 C21         1.6892   -7.9435   -4.2200 C.ar      1 <0>        -0.1382
     28 C22         1.4117   -6.9425   -5.1341 C.ar      1 <0>        -0.0966
     29 C23         1.0978   -5.6724   -4.6966 C.ar      1 <0>        -0.0538
     30 C24         2.0262   -9.3299   -4.7050 C.3       1 <0>         0.0425
     31 N6          0.7933  -10.1196   -4.8258 N.4       1 <0>        -0.3856
     32 C25         0.1989  -10.3052   -3.4955 C.3       1 <0>        -0.0078
     33 C26        -1.0954  -11.1117   -3.6230 C.3       1 <0>         0.0256
     34 N7         -0.7986  -12.4159   -4.2323 N.3       1 <0>        -0.5431
     35 C27        -0.1799  -12.2456   -5.5546 C.3       1 <0>         0.0239
     36 C28         1.1068  -11.4297   -5.4112 C.3       1 <0>        -0.0024
     37 C29        -2.0090  -13.2436   -4.3201 C.3       1 <0>         0.0192
     38 H1          0.5251    2.2130   -0.2290 H         1 <0>         0.0738
     39 H2         -1.1901    1.8307    0.0540 H         1 <0>         0.0752
     40 H3          0.0021    1.5877    1.3533 H         1 <0>         0.0636
     41 H4         -1.3262    0.2836   -1.8111 H         1 <0>         0.1330
     42 H5         -0.9481   -2.0158   -2.5982 H         1 <0>         0.1345
     43 H6          1.9030   -2.6209    0.5302 H         1 <0>         0.1487
     44 H7          1.8658    0.7534    1.6418 H         1 <0>         0.4265
     45 H8          1.8844   -4.2483    3.3325 H         1 <0>         0.1737
     46 H9          3.3172   -3.4566    5.1985 H         1 <0>         0.1513
     47 H10         4.0401    1.1680    4.9670 H         1 <0>         0.1465
     48 H11         5.4807    1.9525    6.8318 H         1 <0>         0.1439
     49 H12         6.3909    0.3135    8.4254 H         1 <0>         0.1636
     50 H13         4.5316   -2.8268    6.4514 H         1 <0>         0.1618
     51 H14         0.8453   -4.4884   -0.8911 H         1 <0>         0.4091
     52 H15         1.3291   -6.2032   -1.3521 H         1 <0>         0.1399
     53 H16         1.8771   -8.4627   -2.1544 H         1 <0>         0.1405
     54 H17         1.4372   -7.1570   -6.1922 H         1 <0>         0.1409
     55 H18         0.8770   -4.8931   -5.4110 H         1 <0>         0.1513
     56 H19         2.5135   -9.2661   -5.6779 H         1 <0>         0.1411
     57 H20         2.6973   -9.8107   -3.9933 H         1 <0>         0.1402
     58 H21         0.8998  -10.8418   -2.8560 H         1 <0>         0.1385
     59 H22        -0.0212   -9.3320   -3.0568 H         1 <0>         0.1352
     60 H23        -1.5289  -11.2624   -2.6343 H         1 <0>         0.1235
     61 H24        -1.8016  -10.5690   -4.2513 H         1 <0>         0.0601
     62 H25         0.0544  -13.2235   -5.9751 H         1 <0>         0.1247
     63 H26        -0.8711  -11.7216   -6.2147 H         1 <0>         0.0606
     64 H27         1.5598  -11.2902   -6.3927 H         1 <0>         0.1372
     65 H28         1.8030  -11.9606   -4.7619 H         1 <0>         0.1392
     66 H29        -2.7542  -12.7340   -4.9308 H         1 <0>         0.0396
     67 H30        -1.7610  -14.2028   -4.7745 H         1 <0>         0.0842
     68 H31        -2.4099  -13.4082   -3.3199 H         1 <0>         0.0844
     69 H32         0.1396   -9.6332   -5.4209 H         1 <0>         0.4206
@<TRIPOS>BOND
     1    1    2 1
     2    1   38 1
     3    1   39 1
     4    1   40 1
     5    2    7 ar
     6    2    3 ar
     7    3    4 ar
     8    3   41 1
     9    4    5 ar
    10    4   42 1
    11    5    6 ar
    12    5   21 1
    13    6    7 ar
    14    6   43 1
    15    7    8 1
    16    8    9 1
    17    8   44 1
    18    9   14 ar
    19    9   10 ar
    20   10   11 ar
    21   11   12 ar
    22   11   45 1
    23   12   13 ar
    24   12   46 1
    25   13   14 ar
    26   13   15 1
    27   15   20 ar
    28   15   16 ar
    29   16   17 ar
    30   16   47 1
    31   17   18 ar
    32   17   48 1
    33   18   19 ar
    34   18   49 1
    35   19   20 ar
    36   20   50 1
    37   21   22 am
    38   21   51 1
    39   22   23 2
    40   22   24 1
    41   24   29 ar
    42   24   25 ar
    43   25   26 ar
    44   25   52 1
    45   26   27 ar
    46   26   53 1
    47   27   28 ar
    48   27   30 1
    49   28   29 ar
    50   28   54 1
    51   29   55 1
    52   30   31 1
    53   30   56 1
    54   30   57 1
    55   31   36 1
    56   31   32 1
    57   31   69 1
    58   32   33 1
    59   32   58 1
    60   32   59 1
    61   33   34 1
    62   33   60 1
    63   33   61 1
    64   34   35 1
    65   34   37 1
    66   35   36 1
    67   35   62 1
    68   35   63 1
    69   36   64 1
    70   36   65 1
    71   37   66 1
    72   37   67 1
    73   37   68 1
@<TRIPOS>MOLECULE
ZINC19632618
   68    72     0     0     0
SMALL
USER_CHARGES

@<TRIPOS>ATOM
      1 C1         -0.1643    1.5374    0.2772 C.3       1 <0>        -0.1139
      2 C2          0.0708    0.1281   -0.2021 C.ar      1 <0>        -0.1276
      3 C3         -0.6192   -0.3521   -1.2987 C.ar      1 <0>        -0.0809
      4 C4         -0.4070   -1.6434   -1.7410 C.ar      1 <0>        -0.1296
      5 C5          0.5017   -2.4641   -1.0837 C.ar      1 <0>         0.1575
      6 C6          1.1965   -1.9850    0.0175 C.ar      1 <0>        -0.1408
      7 C7          0.9852   -0.6852    0.4558 C.ar      1 <0>         0.1805
      8 N1          1.6874   -0.1967    1.5617 N.pl3     1 <0>        -0.6310
      9 C8          2.1285   -1.0695    2.5429 C.ar      1 <0>         0.5658
     10 N2          1.7764   -2.3456    2.4776 N.ar      1 <0>        -0.5548
     11 C9          2.1776   -3.2107    3.3953 C.ar      1 <0>         0.1930
     12 C10         2.9764   -2.7714    4.4364 C.ar      1 <0>        -0.2707
     13 C11         3.3313   -1.4207    4.4789 C.ar      1 <0>         0.2660
     14 N3          2.8950   -0.6087    3.5185 N.ar      1 <0>        -0.5591
     15 C12         4.1856   -0.9008    5.5740 C.ar      1 <0>        -0.1161
     16 C13         4.4510    0.4679    5.6793 C.ar      1 <0>        -0.0277
     17 C14         5.2541    0.9026    6.7193 C.ar      1 <0>        -0.1780
     18 C15         5.7636   -0.0222    7.6129 C.ar      1 <0>         0.1167
     19 N4          5.4957   -1.3077    7.4879 N.ar      1 <0>        -0.4846
     20 C16         4.7320   -1.7677    6.5181 C.ar      1 <0>         0.1331
     21 N5          0.7153   -3.7716   -1.5315 N.am      1 <0>        -0.6684
     22 C17         0.7404   -4.0356   -2.8529 C.2       1 <0>         0.5607
     23 O1          0.4912   -3.1555   -3.6535 O.2       1 <0>        -0.5149
     24 C18         1.0709   -5.3955   -3.3287 C.ar      1 <0>        -0.1367
     25 C19         1.3519   -6.4100   -2.4119 C.ar      1 <0>        -0.0845
     26 C20         1.6592   -7.6771   -2.8626 C.ar      1 <0>        -0.1214
     27 C21         1.6892   -7.9435   -4.2200 C.ar      1 <0>        -0.0481
     28 C22         1.4117   -6.9425   -5.1341 C.ar      1 <0>        -0.1045
     29 C23         1.0978   -5.6724   -4.6966 C.ar      1 <0>        -0.0549
     30 C24         2.0262   -9.3299   -4.7050 C.3       1 <0>         0.0887
     31 N6          0.7933  -10.1196   -4.8258 N.3       1 <0>        -0.5346
     32 C25         0.1854  -10.3517   -3.5082 C.3       1 <0>         0.0528
     33 C26        -1.1341  -11.1069   -3.6840 C.3       1 <0>         0.0560
     34 N7         -0.8794  -12.3787   -4.3748 N.3       1 <0>        -0.5467
     35 C27        -0.2715  -12.1466   -5.6924 C.3       1 <0>         0.0557
     36 C28         1.0481  -11.3914   -5.5165 C.3       1 <0>         0.0569
     37 C29        -2.1122  -13.1683   -4.4955 C.3       1 <0>         0.0243
     38 H1          0.5251    2.2130   -0.2290 H         1 <0>         0.0707
     39 H2         -1.1901    1.8307    0.0540 H         1 <0>         0.0727
     40 H3          0.0021    1.5877    1.3533 H         1 <0>         0.0612
     41 H4         -1.3262    0.2836   -1.8111 H         1 <0>         0.1306
     42 H5         -0.9481   -2.0158   -2.5982 H         1 <0>         0.1361
     43 H6          1.9030   -2.6209    0.5302 H         1 <0>         0.1478
     44 H7          1.8658    0.7534    1.6418 H         1 <0>         0.4247
     45 H8          1.8844   -4.2483    3.3325 H         1 <0>         0.1749
     46 H9          3.3172   -3.4566    5.1985 H         1 <0>         0.1504
     47 H10         4.0401    1.1680    4.9670 H         1 <0>         0.1465
     48 H11         5.4807    1.9525    6.8318 H         1 <0>         0.1424
     49 H12         6.3909    0.3135    8.4254 H         1 <0>         0.1620
     50 H13         4.5316   -2.8268    6.4514 H         1 <0>         0.1624
     51 H14         0.8453   -4.4884   -0.8911 H         1 <0>         0.4098
     52 H15         1.3291   -6.2032   -1.3521 H         1 <0>         0.1256
     53 H16         1.8771   -8.4627   -2.1544 H         1 <0>         0.1277
     54 H17         1.4372   -7.1570   -6.1922 H         1 <0>         0.1323
     55 H18         0.8770   -4.8931   -5.4110 H         1 <0>         0.1380
     56 H19         2.5135   -9.2661   -5.6779 H         1 <0>         0.0885
     57 H20         2.6973   -9.8107   -3.9933 H         1 <0>         0.0490
     58 H21         0.8640  -10.9435   -2.8938 H         1 <0>         0.0436
     59 H22        -0.0051   -9.3950   -3.0219 H         1 <0>         0.0840
     60 H23        -1.5725  -11.3056   -2.7060 H         1 <0>         0.0799
     61 H24        -1.8225  -10.5033   -4.2756 H         1 <0>         0.0432
     62 H25        -0.0810  -13.1033   -6.1787 H         1 <0>         0.0811
     63 H26        -0.9501  -11.5548   -6.3068 H         1 <0>         0.0437
     64 H27         1.4864  -11.1926   -6.4945 H         1 <0>         0.0821
     65 H28         1.7364  -11.9950   -4.9250 H         1 <0>         0.0450
     66 H29        -2.8511  -12.6037   -5.0641 H         1 <0>         0.0271
     67 H30        -1.8953  -14.1043   -5.0104 H         1 <0>         0.0693
     68 H31        -2.5051  -13.3830   -3.5017 H         1 <0>         0.0693
@<TRIPOS>BOND
     1    1    2 1
     2    1   38 1
     3    1   39 1
     4    1   40 1
     5    2    7 ar
     6    2    3 ar
     7    3    4 ar
     8    3   41 1
     9    4    5 ar
    10    4   42 1
    11    5    6 ar
    12    5   21 1
    13    6    7 ar
    14    6   43 1
    15    7    8 1
    16    8    9 1
    17    8   44 1
    18    9   14 ar
    19    9   10 ar
    20   10   11 ar
    21   11   12 ar
    22   11   45 1
    23   12   13 ar
    24   12   46 1
    25   13   14 ar
    26   13   15 1
    27   15   20 ar
    28   15   16 ar
    29   16   17 ar
    30   16   47 1
    31   17   18 ar
    32   17   48 1
    33   18   19 ar
    34   18   49 1
    35   19   20 ar
    36   20   50 1
    37   21   22 am
    38   21   51 1
    39   22   23 2
    40   22   24 1
    41   24   29 ar
    42   24   25 ar
    43   25   26 ar
    44   25   52 1
    45   26   27 ar
    46   26   53 1
    47   27   28 ar
    48   27   30 1
    49   28   29 ar
    50   28   54 1
    51   29   55 1
    52   30   31 1
    53   30   56 1
    54   30   57 1
    55   31   36 1
    56   31   32 1
    57   32   33 1
    58   32   58 1
    59   32   59 1
    60   33   34 1
    61   33   60 1
    62   33   61 1
    63   34   35 1
    64   34   37 1
    65   35   36 1
    66   35   62 1
    67   35   63 1
    68   36   64 1
    69   36   65 1
    70   37   66 1
    71   37   67 1
    72   37   68 1
