@<TRIPOS>MOLECULE
ZINC03815700
   43    46     0     0     0
SMALL
USER_CHARGES

@<TRIPOS>ATOM
      1 C1         -0.4417    2.5108    0.1274 C.3       1 <0>        -0.4980
      2 S1         -0.2285    0.7138    0.0013 S.o       1 <0>         1.3317
      3 O1          0.3381    0.2184    1.2066 O.2       1 <0>        -0.8500
      4 C2         -1.8753    0.0872    0.0153 C.ar      1 <0>        -0.4539
      5 C3         -2.4807   -0.2316    1.2179 C.ar      1 <0>        -0.0505
      6 C4         -3.7698   -0.7226    1.2359 C.ar      1 <0>        -0.0905
      7 C5         -4.4635   -0.8973    0.0374 C.ar      1 <0>         0.0183
      8 C6         -3.8471   -0.5733   -1.1722 C.ar      1 <0>        -0.1282
      9 C7         -2.5593   -0.0786   -1.1759 C.ar      1 <0>        -0.0372
     10 C8         -5.8450   -1.4235    0.0492 C.2       1 <0>         0.2539
     11 N1         -6.6187   -1.6414   -1.0552 N.pl3     1 <0>        -0.5494
     12 H1         -6.3641   -1.4808   -1.9773 H         1 <0>         0.4258
     13 C9         -7.8254   -2.1307   -0.6157 C.2       1 <0>         0.0559
     14 C10        -7.7421   -2.1946    0.7659 C.2       1 <0>         0.0600
     15 N2         -6.5217   -1.7612    1.1224 N.2       1 <0>        -0.4460
     16 C11        -8.8052   -2.6624    1.6841 C.ar      1 <0>         0.0397
     17 C12        -9.5683   -3.7960    1.3824 C.ar      1 <0>        -0.1547
     18 C13       -10.5481   -4.1969    2.2660 C.ar      1 <0>         0.1020
     19 N3        -10.7699   -3.5273    3.3814 N.ar      1 <0>        -0.4829
     20 C14       -10.0734   -2.4536    3.7038 C.ar      1 <0>         0.1009
     21 C15        -9.0708   -1.9865    2.8804 C.ar      1 <0>        -0.1469
     22 C16        -8.9814   -2.5126   -1.4503 C.ar      1 <0>        -0.0400
     23 C17       -10.2631   -2.0665   -1.1192 C.ar      1 <0>        -0.0563
     24 C18       -11.3392   -2.4265   -1.9026 C.ar      1 <0>        -0.1471
     25 C19       -11.1511   -3.2299   -3.0163 C.ar      1 <0>         0.1129
     26 C20        -9.8817   -3.6756   -3.3498 C.ar      1 <0>        -0.1491
     27 C21        -8.7972   -3.3169   -2.5775 C.ar      1 <0>        -0.0765
     28 F1        -12.2093   -3.5802   -3.7797 F         1 <0>        -0.1335
     29 H2          0.5355    2.9936    0.1264 H         1 <0>         0.1086
     30 H3         -1.0243    2.8681   -0.7218 H         1 <0>         0.1118
     31 H4         -0.9645    2.7506    1.0533 H         1 <0>         0.0820
     32 H5         -1.9427   -0.0960    2.1446 H         1 <0>         0.1340
     33 H6         -4.2409   -0.9717    2.1752 H         1 <0>         0.1409
     34 H7         -4.3783   -0.7065   -2.1030 H         1 <0>         0.1252
     35 H8         -2.0825    0.1760   -2.1109 H         1 <0>         0.1447
     36 H9         -9.3927   -4.3483    0.4711 H         1 <0>         0.1333
     37 H10       -11.1422   -5.0705    2.0420 H         1 <0>         0.1579
     38 H11       -10.2890   -1.9361    4.6268 H         1 <0>         0.1588
     39 H12        -8.5017   -1.1100    3.1527 H         1 <0>         0.1379
     40 H13       -10.4110   -1.4411   -0.2513 H         1 <0>         0.1357
     41 H14       -12.3306   -2.0822   -1.6477 H         1 <0>         0.1434
     42 H15        -9.7412   -4.3013   -4.2187 H         1 <0>         0.1424
     43 H16        -7.8079   -3.6609   -2.8410 H         1 <0>         0.1331
@<TRIPOS>BOND
     1    1    2 1
     2    1   29 1
     3    1   30 1
     4    1   31 1
     5    2    3 2
     6    2    4 1
     7    4    9 ar
     8    4    5 ar
     9    5    6 ar
    10    5   32 1
    11    6    7 ar
    12    6   33 1
    13    7    8 ar
    14    7   10 1
    15    8    9 ar
    16    8   34 1
    17    9   35 1
    18   10   15 2
    19   10   11 1
    20   11   12 1
    21   11   13 1
    22   13   14 2
    23   13   22 1
    24   14   15 1
    25   14   16 1
    26   16   21 ar
    27   16   17 ar
    28   17   18 ar
    29   17   36 1
    30   18   19 ar
    31   18   37 1
    32   19   20 ar
    33   20   21 ar
    34   20   38 1
    35   21   39 1
    36   22   27 ar
    37   22   23 ar
    38   23   24 ar
    39   23   40 1
    40   24   25 ar
    41   24   41 1
    42   25   26 ar
    43   25   28 1
    44   26   27 ar
    45   26   42 1
    46   27   43 1
@<TRIPOS>MOLECULE
ZINC18274812
   43    46     0     0     0
SMALL
USER_CHARGES

@<TRIPOS>ATOM
      1 C1          0.0458    2.4645   -0.3714 C.3       1 <0>        -0.4977
      2 S1          0.1034    0.6635   -0.1624 S.o       1 <0>         1.3328
      3 O1          0.9995    0.3374    0.8912 O.2       1 <0>        -0.8522
      4 C2          0.9248    0.0922   -1.6127 C.ar      1 <0>        -0.4531
      5 C3          0.1894   -0.2245   -2.7411 C.ar      1 <0>        -0.0385
      6 C4          0.8263   -0.6720   -3.8801 C.ar      1 <0>        -0.0921
      7 C5          2.2157   -0.8050   -3.8925 C.ar      1 <0>         0.0171
      8 C6          2.9515   -0.4838   -2.7508 C.ar      1 <0>        -0.1253
      9 C7          2.3027   -0.0324   -1.6200 C.ar      1 <0>        -0.0497
     10 C8          2.9049   -1.2844   -5.1094 C.2       1 <0>         0.2582
     11 N1          4.2515   -1.4590   -5.2384 N.pl3     1 <0>        -0.5486
     12 H1          4.9216   -1.2936   -4.5568 H         1 <0>         0.4252
     13 C9          4.4814   -1.9147   -6.5171 C.2       1 <0>         0.0337
     14 C10         3.2416   -2.0017   -7.1294 C.2       1 <0>         0.0807
     15 N2          2.3171   -1.6154   -6.2370 N.2       1 <0>        -0.4488
     16 C11         2.9826   -2.4473   -8.5186 C.ar      1 <0>        -0.0206
     17 C12         3.6496   -3.5590   -9.0325 C.ar      1 <0>        -0.0694
     18 C13         3.4051   -3.9700  -10.3265 C.ar      1 <0>        -0.1511
     19 C14         2.4988   -3.2799  -11.1154 C.ar      1 <0>         0.1060
     20 C15         1.8337   -2.1747  -10.6093 C.ar      1 <0>        -0.1526
     21 C16         2.0668   -1.7598   -9.3145 C.ar      1 <0>        -0.0599
     22 F1          2.2634   -3.6856  -12.3824 F         1 <0>        -0.1371
     23 C17         5.7881   -2.2443   -7.1163 C.ar      1 <0>         0.0226
     24 C18         6.1399   -1.7662   -8.3862 C.ar      1 <0>        -0.1423
     25 C19         7.3716   -2.0992   -8.9074 C.ar      1 <0>         0.1081
     26 N3          8.2131   -2.8565   -8.2286 N.ar      1 <0>        -0.4784
     27 C20         7.9224   -3.3278   -7.0303 C.ar      1 <0>         0.1071
     28 C21         6.7158   -3.0398   -6.4296 C.ar      1 <0>        -0.1652
     29 H2          1.0609    2.8540   -0.4489 H         1 <0>         0.0810
     30 H3         -0.5069    2.7075   -1.2790 H         1 <0>         0.1130
     31 H4         -0.4514    2.9143    0.4881 H         1 <0>         0.1088
     32 H5         -0.8856   -0.1215   -2.7301 H         1 <0>         0.1470
     33 H6          0.2512   -0.9192   -4.7602 H         1 <0>         0.1462
     34 H7          4.0268   -0.5845   -2.7539 H         1 <0>         0.1202
     35 H8          2.8713    0.2203   -0.7373 H         1 <0>         0.1322
     36 H9          4.3566   -4.0971   -8.4186 H         1 <0>         0.1287
     37 H10         3.9211   -4.8308  -10.7253 H         1 <0>         0.1387
     38 H11         1.1282   -1.6400  -11.2280 H         1 <0>         0.1401
     39 H12         1.5446   -0.9009   -8.9194 H         1 <0>         0.1377
     40 H13         5.4562   -1.1467   -8.9476 H         1 <0>         0.1400
     41 H14         7.6520   -1.7358   -9.8850 H         1 <0>         0.1626
     42 H15         8.6418   -3.9441   -6.5116 H         1 <0>         0.1610
     43 H16         6.4868   -3.4248   -5.4469 H         1 <0>         0.1340
@<TRIPOS>BOND
     1    1    2 1
     2    1   29 1
     3    1   30 1
     4    1   31 1
     5    2    3 2
     6    2    4 1
     7    4    9 ar
     8    4    5 ar
     9    5    6 ar
    10    5   32 1
    11    6    7 ar
    12    6   33 1
    13    7    8 ar
    14    7   10 1
    15    8    9 ar
    16    8   34 1
    17    9   35 1
    18   10   15 2
    19   10   11 1
    20   11   12 1
    21   11   13 1
    22   13   14 2
    23   13   23 1
    24   14   15 1
    25   14   16 1
    26   16   21 ar
    27   16   17 ar
    28   17   18 ar
    29   17   36 1
    30   18   19 ar
    31   18   37 1
    32   19   20 ar
    33   19   22 1
    34   20   21 ar
    35   20   38 1
    36   21   39 1
    37   23   28 ar
    38   23   24 ar
    39   24   25 ar
    40   24   40 1
    41   25   26 ar
    42   25   41 1
    43   26   27 ar
    44   27   28 ar
    45   27   42 1
    46   28   43 1
@<TRIPOS>MOLECULE
ZINC18274812
   43    46     0     0     0
SMALL
USER_CHARGES

@<TRIPOS>ATOM
      1 C1          0.0761    2.5207   -0.3946 C.3       1 <0>        -0.4977
      2 S1          0.1067    0.7194   -0.1829 S.o       1 <0>         1.3328
      3 O1          0.9925    0.3819    0.8757 O.2       1 <0>        -0.8523
      4 C2          0.9273    0.1342   -1.6283 C.ar      1 <0>        -0.4535
      5 C3          0.1933   -0.1734   -2.7600 C.ar      1 <0>        -0.0382
      6 C4          0.8295   -0.6320   -3.8950 C.ar      1 <0>        -0.0929
      7 C5          2.2169   -0.7850   -3.8999 C.ar      1 <0>         0.0183
      8 C6          2.9514   -0.4724   -2.7550 C.ar      1 <0>        -0.1257
      9 C7          2.3033   -0.0102   -1.6282 C.ar      1 <0>        -0.0496
     10 C8          2.9053   -1.2765   -5.1125 C.2       1 <0>         0.2536
     11 N1          4.2517   -1.4710   -5.2346 N.pl3     1 <0>        -0.5504
     12 H1          4.9205   -1.3136   -4.5499 H         1 <0>         0.4255
     13 C9          4.4817   -1.9314   -6.5089 C.2       1 <0>         0.0556
     14 C10         3.2446   -2.0022   -7.1288 C.2       1 <0>         0.0602
     15 N2          2.3192   -1.6008   -6.2417 N.2       1 <0>        -0.4443
     16 C11         2.9879   -2.4463   -8.5176 C.ar      1 <0>         0.0401
     17 C12         3.6482   -3.5593   -9.0502 C.ar      1 <0>        -0.1549
     18 C13         3.3789   -3.9386  -10.3482 C.ar      1 <0>         0.1021
     19 N3          2.5133   -3.2676  -11.0845 N.ar      1 <0>        -0.4831
     20 C14         1.8693   -2.2129  -10.6212 C.ar      1 <0>         0.1008
     21 C15         2.0741   -1.7682   -9.3321 C.ar      1 <0>        -0.1466
     22 C16         5.7882   -2.2812   -7.1001 C.ar      1 <0>        -0.0406
     23 C17         6.1350   -1.8042   -8.3665 C.ar      1 <0>        -0.0561
     24 C18         7.3568   -2.1344   -8.9137 C.ar      1 <0>        -0.1471
     25 C19         8.2399   -2.9383   -8.2101 C.ar      1 <0>         0.1131
     26 C20         7.9012   -3.4146   -6.9533 C.ar      1 <0>        -0.1492
     27 C21         6.6848   -3.0860   -6.3932 C.ar      1 <0>        -0.0767
     28 F1          9.4352   -3.2593   -8.7516 F         1 <0>        -0.1334
     29 H2          1.0971    2.8954   -0.4674 H         1 <0>         0.0810
     30 H3         -0.4683    2.7703   -1.3054 H         1 <0>         0.1130
     31 H4         -0.4189    2.9788    0.4616 H         1 <0>         0.1087
     32 H5         -0.8802   -0.0546   -2.7549 H         1 <0>         0.1468
     33 H6          0.2554   -0.8725   -4.7775 H         1 <0>         0.1457
     34 H7          4.0251   -0.5889   -2.7522 H         1 <0>         0.1204
     35 H8          2.8708    0.2356   -0.7429 H         1 <0>         0.1321
     36 H9          4.3583   -4.1127   -8.4536 H         1 <0>         0.1329
     37 H10         3.8834   -4.7962  -10.7681 H         1 <0>         0.1577
     38 H11         1.1696   -1.6933  -11.2591 H         1 <0>         0.1590
     39 H12         1.5402   -0.9072   -8.9580 H         1 <0>         0.1385
     40 H13         5.4474   -1.1783   -8.9159 H         1 <0>         0.1360
     41 H14         7.6261   -1.7662   -9.8926 H         1 <0>         0.1436
     42 H15         8.5933   -4.0406   -6.4097 H         1 <0>         0.1423
     43 H16         6.4240   -3.4537   -5.4118 H         1 <0>         0.1327
@<TRIPOS>BOND
     1    1    2 1
     2    1   29 1
     3    1   30 1
     4    1   31 1
     5    2    3 2
     6    2    4 1
     7    4    9 ar
     8    4    5 ar
     9    5    6 ar
    10    5   32 1
    11    6    7 ar
    12    6   33 1
    13    7    8 ar
    14    7   10 1
    15    8    9 ar
    16    8   34 1
    17    9   35 1
    18   10   15 2
    19   10   11 1
    20   11   12 1
    21   11   13 1
    22   13   14 2
    23   13   22 1
    24   14   15 1
    25   14   16 1
    26   16   21 ar
    27   16   17 ar
    28   17   18 ar
    29   17   36 1
    30   18   19 ar
    31   18   37 1
    32   19   20 ar
    33   20   21 ar
    34   20   38 1
    35   21   39 1
    36   22   27 ar
    37   22   23 ar
    38   23   24 ar
    39   23   40 1
    40   24   25 ar
    41   24   41 1
    42   25   26 ar
    43   25   28 1
    44   26   27 ar
    45   26   42 1
    46   27   43 1
@<TRIPOS>MOLECULE
ZINC01999261
   42    44     0     0     0
SMALL
USER_CHARGES

@<TRIPOS>ATOM
      1 C1          0.3614    2.2037    0.8714 C.3       1 <0>        -0.1489
      2 C2          0.1478    0.7026    0.6659 C.3       1 <0>        -0.1242
      3 C3          0.9202   -0.0734    1.7346 C.3       1 <0>        -0.1098
      4 C4          0.7066   -1.5744    1.5291 C.3       1 <0>         0.0178
      5 C5          1.4675   -2.3388    2.5817 C.2       1 <0>        -0.4608
      6 C6          2.8046   -2.7038    2.5188 C.2       1 <0>         0.5042
      7 N1          3.1094   -3.3776    3.6591 N.am      1 <0>        -0.3732
      8 N2          1.9545   -3.4388    4.4495 N.pl3     1 <0>        -0.3728
      9 C7          0.9562   -2.7966    3.7875 C.2       1 <0>         0.5037
     10 O1         -0.2971   -2.6371    4.2201 O.3       1 <0>        -0.6529
     11 C8          1.8487   -4.0488    5.7035 C.ar      1 <0>         0.1803
     12 C9          0.8001   -4.9205    5.9672 C.ar      1 <0>        -0.1100
     13 C10         0.6986   -5.5212    7.2067 C.ar      1 <0>        -0.1045
     14 C11         1.6392   -5.2552    8.1848 C.ar      1 <0>        -0.1378
     15 C12         2.6842   -4.3873    7.9256 C.ar      1 <0>        -0.1048
     16 C13         2.7953   -3.7885    6.6861 C.ar      1 <0>        -0.1325
     17 C14         4.3579   -3.9162    3.9861 C.ar      1 <0>         0.1798
     18 C15         4.4551   -5.2291    4.4290 C.ar      1 <0>        -0.1316
     19 C16         5.6896   -5.7579    4.7511 C.ar      1 <0>        -0.1052
     20 C17         6.8280   -4.9817    4.6335 C.ar      1 <0>        -0.1373
     21 C18         6.7346   -3.6741    4.1933 C.ar      1 <0>        -0.1050
     22 C19         5.5040   -3.1413    3.8632 C.ar      1 <0>        -0.1096
     23 O2          3.6441   -2.4400    1.5145 O.2       1 <0>        -0.6522
     24 H1          1.4238    2.4339    0.7908 H         1 <0>         0.0501
     25 H2         -0.1889    2.7565    0.1100 H         1 <0>         0.0449
     26 H3          0.0015    2.4900    1.8596 H         1 <0>         0.0498
     27 H4         -0.9146    0.4724    0.7464 H         1 <0>         0.0555
     28 H5          0.5077    0.4163   -0.3223 H         1 <0>         0.0558
     29 H6          1.9826    0.1568    1.6540 H         1 <0>         0.0538
     30 H7          0.5603    0.2129    2.7228 H         1 <0>         0.0514
     31 H8         -0.3557   -1.8046    1.6096 H         1 <0>         0.0492
     32 H9          1.0665   -1.8607    0.5409 H         1 <0>         0.0461
     33 H10         0.0648   -5.1282    5.2040 H         1 <0>         0.1296
     34 H11        -0.1166   -6.1992    7.4124 H         1 <0>         0.1246
     35 H12         1.5573   -5.7259    9.1533 H         1 <0>         0.1202
     36 H13         3.4170   -4.1814    8.6918 H         1 <0>         0.1220
     37 H14         3.6143   -3.1146    6.4827 H         1 <0>         0.1189
     38 H15         3.5663   -5.8356    4.5217 H         1 <0>         0.1191
     39 H16         5.7659   -6.7786    5.0955 H         1 <0>         0.1221
     40 H17         7.7922   -5.3975    4.8864 H         1 <0>         0.1203
     41 H18         7.6256   -3.0704    4.1029 H         1 <0>         0.1245
     42 H19         5.4322   -2.1215    3.5149 H         1 <0>         0.1294
@<TRIPOS>BOND
     1    1    2 1
     2    1   24 1
     3    1   25 1
     4    1   26 1
     5    2    3 1
     6    2   27 1
     7    2   28 1
     8    3    4 1
     9    3   29 1
    10    3   30 1
    11    4   31 1
    12    4   32 1
    13    4    5 1
    14    5    6 1
    15    5    9 2
    16    6    7 am
    17    6   23 2
    18    7    8 1
    19    7   17 1
    20    8    9 1
    21    8   11 1
    22    9   10 1
    23   11   16 ar
    24   11   12 ar
    25   12   13 ar
    26   12   33 1
    27   13   14 ar
    28   13   34 1
    29   14   15 ar
    30   14   35 1
    31   15   16 ar
    32   15   36 1
    33   16   37 1
    34   17   22 ar
    35   17   18 ar
    36   18   19 ar
    37   18   38 1
    38   19   20 ar
    39   19   39 1
    40   20   21 ar
    41   20   40 1
    42   21   22 ar
    43   21   41 1
    44   22   42 1
@<TRIPOS>MOLECULE
ZINC00393900
   29    29     0     0     0
SMALL
USER_CHARGES
(4-allyl-2-methoxy-phenyl) acetate
@<TRIPOS>ATOM
      1 C1         -6.6825   -0.0062   -5.4299 C.3       1 <0>        -0.1437
      2 C2         -5.7522    0.5019   -4.3588 C.2       1 <0>         0.4564
      3 O1         -6.1587    1.2720   -3.5211 O.2       1 <0>        -0.4974
      4 O2         -4.4719    0.0991   -4.3353 O.3       1 <0>        -0.2842
      5 C3         -3.7164    0.5044   -3.2797 C.ar      1 <0>         0.0457
      6 C4         -2.8681    1.5926   -3.4099 C.ar      1 <0>        -0.0757
      7 C5         -2.1048    2.0064   -2.3344 C.ar      1 <0>        -0.1379
      8 C6         -2.1767    1.3300   -1.1306 C.ar      1 <0>        -0.0324
      9 C7         -3.0206    0.2439   -0.9938 C.ar      1 <0>        -0.1944
     10 C8         -3.7930   -0.1728   -2.0664 C.ar      1 <0>         0.1301
     11 O3         -4.6234   -1.2413   -1.9336 O.3       1 <0>        -0.3114
     12 C9         -4.6499   -1.8880   -0.6596 C.3       1 <0>         0.0256
     13 C10        -1.3375    1.7818    0.0368 C.3       1 <0>        -0.0577
     14 C11        -0.0113    1.0667    0.0087 C.2       1 <0>        -0.1519
     15 C12         1.1037    1.7542    0.0095 C.2       1 <0>        -0.1861
     16 H1         -7.1669   -0.9204   -5.0867 H         1 <0>         0.1079
     17 H2         -7.4396    0.7487   -5.6417 H         1 <0>         0.1050
     18 H3         -6.1138   -0.2146   -6.3362 H         1 <0>         0.0962
     19 H4         -2.8067    2.1200   -4.3504 H         1 <0>         0.1389
     20 H5         -1.4474    2.8572   -2.4360 H         1 <0>         0.1338
     21 H6         -3.0784   -0.2796   -0.0510 H         1 <0>         0.1368
     22 H7         -3.6536   -2.2598   -0.4201 H         1 <0>         0.0589
     23 H8         -4.9649   -1.1757    0.1029 H         1 <0>         0.0580
     24 H9         -5.3513   -2.7218   -0.6899 H         1 <0>         0.1038
     25 H10        -1.8554    1.5505    0.9676 H         1 <0>         0.0849
     26 H11        -1.1719    2.8571   -0.0294 H         1 <0>         0.0828
     27 H12         0.0198   -0.0126   -0.0165 H         1 <0>         0.1097
     28 H13         1.0727    2.8335    0.0348 H         1 <0>         0.0982
     29 H14         2.0541    1.2418   -0.0151 H         1 <0>         0.1000
@<TRIPOS>BOND
     1    1    2 1
     2    1   16 1
     3    1   17 1
     4    1   18 1
     5    2    3 2
     6    2    4 1
     7    4    5 1
     8    5   10 ar
     9    5    6 ar
    10    6    7 ar
    11    6   19 1
    12    7    8 ar
    13    7   20 1
    14    8    9 ar
    15    8   13 1
    16    9   10 ar
    17    9   21 1
    18   10   11 1
    19   11   12 1
    20   12   22 1
    21   12   23 1
    22   12   24 1
    23   13   14 1
    24   13   25 1
    25   13   26 1
    26   14   15 2
    27   14   27 1
    28   15   28 1
    29   15   29 1
@<TRIPOS>MOLECULE
ZINC00899824
   47    48     0     0     0
SMALL
USER_CHARGES

@<TRIPOS>ATOM
      1 C1         -0.0173    1.4248    0.0099 C.3       1 <0>         0.0223
      2 O1          0.0021   -0.0041    0.0020 O.3       1 <0>        -0.3062
      3 C2          0.6062   -0.6075   -1.0564 C.ar      1 <0>         0.1006
      4 C3          1.1701    0.1578   -2.0573 C.ar      1 <0>        -0.1693
      5 C4          1.7915   -0.4674   -3.1460 C.ar      1 <0>        -0.0548
      6 C5          1.8369   -1.8658   -3.2124 C.ar      1 <0>        -0.1153
      7 C6          1.2717   -2.6208   -2.2092 C.ar      1 <0>        -0.1104
      8 C7          0.6608   -1.9995   -1.1274 C.ar      1 <0>         0.0921
      9 O2          0.1105   -2.7497   -0.1383 O.3       1 <0>        -0.4848
     10 C8          2.3926    0.3403   -4.2140 C.2       1 <0>        -0.0031
     11 C9          2.9934   -0.2669   -5.2666 C.2       1 <0>        -0.2426
     12 C10         3.5700    0.5078   -6.2910 C.2       1 <0>         0.3746
     13 C11         4.2380   -0.1673   -7.4611 C.3       1 <0>        -0.2163
     14 C12         4.7690    0.8780   -8.4080 C.2       1 <0>         0.3746
     15 O3          4.6195    2.0570   -8.1569 O.2       1 <0>        -0.4254
     16 C13         5.4382    0.4879   -9.5835 C.2       1 <0>        -0.2426
     17 C14         5.9159    1.4282  -10.4353 C.2       1 <0>        -0.0031
     18 C15         6.6137    1.0215  -11.6609 C.ar      1 <0>        -0.0549
     19 C16         6.7822   -0.3375  -11.9554 C.ar      1 <0>        -0.1153
     20 C17         7.4373   -0.7158  -13.1059 C.ar      1 <0>        -0.1104
     21 C18         7.9326    0.2469  -13.9763 C.ar      1 <0>         0.0920
     22 C19         7.7694    1.6023  -13.6901 C.ar      1 <0>         0.1006
     23 C20         7.1082    1.9913  -12.5425 C.ar      1 <0>        -0.1693
     24 O4          8.2569    2.5409  -14.5450 O.3       1 <0>        -0.3062
     25 C21         8.0541    3.9101  -14.1894 C.3       1 <0>         0.0223
     26 O5          8.5781   -0.1327  -15.1090 O.3       1 <0>        -0.4848
     27 O6          3.5292    1.7203   -6.2316 O.2       1 <0>        -0.4254
     28 H1          1.0053    1.8021    0.0021 H         1 <0>         0.0579
     29 H2         -0.5445    1.7859   -0.8732 H         1 <0>         0.0575
     30 H3         -0.5275    1.7763    0.9067 H         1 <0>         0.1046
     31 H4          1.1319    1.2357   -2.0014 H         1 <0>         0.1391
     32 H5          2.3148   -2.3516   -4.0503 H         1 <0>         0.1371
     33 H6          1.3073   -3.6990   -2.2614 H         1 <0>         0.1423
     34 H7         -0.8182   -2.9751   -0.2859 H         1 <0>         0.3908
     35 H8          2.3563    1.4184   -4.1613 H         1 <0>         0.1367
     36 H9          3.0298   -1.3450   -5.3193 H         1 <0>         0.1356
     37 H10         5.0615   -0.7848   -7.1027 H         1 <0>         0.1288
     38 H11         5.5711   -0.5604   -9.8068 H         1 <0>         0.1356
     39 H12         5.7830    2.4765  -10.2120 H         1 <0>         0.1368
     40 H13         6.3989   -1.0882  -11.2802 H         1 <0>         0.1371
     41 H14         7.5667   -1.7639  -13.3320 H         1 <0>         0.1423
     42 H15         6.9767    3.0405  -12.3226 H         1 <0>         0.1391
     43 H16         6.9855    4.1110  -14.1123 H         1 <0>         0.0575
     44 H17         8.5317    4.1110  -13.2305 H         1 <0>         0.0580
     45 H18         8.4902    4.5526  -14.9543 H         1 <0>         0.1045
     46 H19         7.9975   -0.2431  -15.8744 H         1 <0>         0.3910
     47 H20         3.5134   -0.7940   -7.9810 H         1 <0>         0.1286
@<TRIPOS>BOND
     1    1    2 1
     2    1   28 1
     3    1   29 1
     4    1   30 1
     5    2    3 1
     6    3    8 ar
     7    3    4 ar
     8    4    5 ar
     9    4   31 1
    10    5    6 ar
    11    5   10 1
    12    6    7 ar
    13    6   32 1
    14    7    8 ar
    15    7   33 1
    16    8    9 1
    17    9   34 1
    18   10   11 2
    19   10   35 1
    20   11   12 1
    21   11   36 1
    22   12   13 1
    23   12   27 2
    24   13   14 1
    25   13   37 1
    26   13   47 1
    27   14   15 2
    28   14   16 1
    29   16   17 2
    30   16   38 1
    31   17   18 1
    32   17   39 1
    33   18   23 ar
    34   18   19 ar
    35   19   20 ar
    36   19   40 1
    37   20   21 ar
    38   20   41 1
    39   21   22 ar
    40   21   26 1
    41   22   23 ar
    42   22   24 1
    43   23   42 1
    44   24   25 1
    45   25   43 1
    46   25   44 1
    47   25   45 1
    48   26   46 1
@<TRIPOS>MOLECULE
ZINC02570895
   40    42     0     0     0
SMALL
USER_CHARGES

@<TRIPOS>ATOM
      1 C1          0.0405    1.5033    0.0105 C.3       1 <0>        -0.1224
      2 C2          0.0481   -0.0036    0.0022 C.ar      1 <0>        -0.0617
      3 C3         -0.4654   -0.6891   -1.0843 C.ar      1 <0>        -0.1180
      4 C4         -0.4609   -2.0687   -1.0981 C.ar      1 <0>        -0.0762
      5 C5          0.0630   -2.7726   -0.0133 C.ar      1 <0>        -0.0606
      6 C6          0.5793   -2.0754    1.0794 C.ar      1 <0>        -0.0985
      7 C7          0.5738   -0.6957    1.0787 C.ar      1 <0>        -0.1165
      8 C8          0.0704   -4.2518   -0.0214 C.2       1 <0>         0.1497
      9 C9          0.0778   -5.0559   -1.1264 C.2       1 <0>        -0.2047
     10 C10         0.0841   -6.3814   -0.6911 C.2       1 <0>        -0.0034
     11 N1          0.0806   -6.3920    0.6183 N.2       1 <0>        -0.2184
     12 N2          0.0772   -5.0674    1.0740 N.pl3     1 <0>        -0.3181
     13 C11         0.0780   -4.6538    2.4124 C.ar      1 <0>         0.1993
     14 C12        -0.7877   -3.6523    2.8316 C.ar      1 <0>        -0.1310
     15 C13        -0.7845   -3.2467    4.1518 C.ar      1 <0>        -0.0008
     16 C14         0.0799   -3.8365    5.0557 C.ar      1 <0>        -0.6729
     17 C15         0.9432   -4.8341    4.6414 C.ar      1 <0>         0.0013
     18 C16         0.9405   -5.2485    3.3238 C.ar      1 <0>        -0.1237
     19 S1          0.0817   -3.3155    6.7389 S.o2      1 <0>         2.7035
     20 O1          1.3615   -3.6412    7.2635 O.2       1 <0>        -0.9570
     21 O2         -0.4336   -1.9913    6.7547 O.2       1 <0>        -0.9571
     22 N3         -1.0144   -4.2595    7.5449 N.pl3     1 <0>        -1.2487
     23 C17         0.0927   -7.5984   -1.5799 C.3       1 <0>         0.5581
     24 F1          1.4144   -7.9678   -1.8518 F         1 <0>        -0.1637
     25 F2         -0.5625   -8.6523   -0.9339 F         1 <0>        -0.1639
     26 F3         -0.5656   -7.3049   -2.7789 F         1 <0>        -0.1610
     27 H1          0.9639    1.8738   -0.4347 H         1 <0>         0.0767
     28 H2         -0.8113    1.8655   -0.5652 H         1 <0>         0.0714
     29 H3         -0.0366    1.8607    1.0374 H         1 <0>         0.0715
     30 H4         -0.8709   -0.1431   -1.9232 H         1 <0>         0.1331
     31 H5         -0.8624   -2.6027   -1.9467 H         1 <0>         0.1336
     32 H6          0.9862   -2.6145    1.9221 H         1 <0>         0.1246
     33 H7          0.9772   -0.1548    1.9220 H         1 <0>         0.1315
     34 H8          0.0784   -4.7241   -2.1542 H         1 <0>         0.1732
     35 H9         -1.4626   -3.1908    2.1259 H         1 <0>         0.1459
     36 H10        -1.4576   -2.4679    4.4785 H         1 <0>         0.1580
     37 H11         1.6174   -5.2926    5.3496 H         1 <0>         0.1579
     38 H12         1.6117   -6.0309    3.0018 H         1 <0>         0.1479
     39 H13        -1.5085   -4.9443    7.0675 H         1 <0>         0.4179
     40 H14        -1.1624   -4.1277    8.4945 H         1 <0>         0.4235
@<TRIPOS>BOND
     1    1    2 1
     2    1   27 1
     3    1   28 1
     4    1   29 1
     5    2    7 ar
     6    2    3 ar
     7    3    4 ar
     8    3   30 1
     9    4    5 ar
    10    4   31 1
    11    5    6 ar
    12    5    8 1
    13    6    7 ar
    14    6   32 1
    15    7   33 1
    16    8   12 1
    17    8    9 2
    18    9   10 1
    19    9   34 1
    20   10   11 2
    21   10   23 1
    22   11   12 1
    23   12   13 1
    24   13   18 ar
    25   13   14 ar
    26   14   15 ar
    27   14   35 1
    28   15   16 ar
    29   15   36 1
    30   16   17 ar
    31   16   19 1
    32   17   18 ar
    33   17   37 1
    34   18   38 1
    35   19   20 2
    36   19   21 2
    37   19   22 1
    38   22   39 1
    39   22   40 1
    40   23   24 1
    41   23   25 1
    42   23   26 1
@<TRIPOS>MOLECULE
ZINC00007455
   36    38     0     0     0
SMALL
USER_CHARGES

@<TRIPOS>ATOM
      1 C1         -0.0225    1.8097    0.0120 C.3       1 <0>        -0.6496
      2 S1          0.0021   -0.0041    0.0020 S.o2      1 <0>         2.4981
      3 O1          0.8352   -0.4880    1.0465 O.2       1 <0>        -0.9340
      4 O2         -1.3147   -0.5105   -0.1678 O.2       1 <0>        -0.9341
      5 C2          0.8454   -0.4373   -1.4831 C.ar      1 <0>        -0.6507
      6 C3          0.1298   -0.6119   -2.6551 C.ar      1 <0>        -0.0202
      7 C4          0.7818   -0.9504   -3.8215 C.ar      1 <0>        -0.1172
      8 C5          2.1716   -1.1177   -3.8185 C.ar      1 <0>         0.0092
      9 C6          2.8876   -0.9392   -2.6290 C.ar      1 <0>        -0.1081
     10 C7          2.2206   -0.5956   -1.4726 C.ar      1 <0>        -0.0190
     11 C8          2.8747   -1.4788   -5.0567 C.2       1 <0>        -0.0568
     12 C9          3.7864   -0.7210   -5.7283 C.2       1 <0>        -0.1387
     13 C10         4.2326   -1.4690   -6.9092 C.2       1 <0>         0.5050
     14 O3          5.0462   -1.0718   -7.7204 O.2       1 <0>        -0.4360
     15 O4          3.6087   -2.6593   -6.9612 O.3       1 <0>        -0.3106
     16 C11         2.7349   -2.7668   -5.8340 C.3       1 <0>         0.0732
     17 C12         4.2486    0.6295   -5.3334 C.ar      1 <0>        -0.0365
     18 C13         3.3544    1.7001   -5.3220 C.ar      1 <0>        -0.0956
     19 C14         3.7910    2.9559   -4.9532 C.ar      1 <0>        -0.1186
     20 C15         5.1127    3.1546   -4.5957 C.ar      1 <0>        -0.1084
     21 C16         6.0044    2.0969   -4.6056 C.ar      1 <0>        -0.1162
     22 C17         5.5784    0.8350   -4.9660 C.ar      1 <0>        -0.0916
     23 H1          1.0001    2.1870    0.0043 H         1 <0>         0.1324
     24 H2         -0.5497    2.1708   -0.8711 H         1 <0>         0.1323
     25 H3         -0.5327    2.1613    0.9088 H         1 <0>         0.1353
     26 H4         -0.9425   -0.4828   -2.6556 H         1 <0>         0.1495
     27 H5          0.2220   -1.0866   -4.7350 H         1 <0>         0.1396
     28 H6          3.9600   -1.0668   -2.6182 H         1 <0>         0.1374
     29 H7          2.7720   -0.4536   -0.5549 H         1 <0>         0.1489
     30 H8          3.0268   -3.6125   -5.2113 H         1 <0>         0.1274
     31 H9          1.7060   -2.8891   -6.1723 H         1 <0>         0.1261
     32 H10         2.3226    1.5463   -5.6015 H         1 <0>         0.1218
     33 H11         3.0997    3.7856   -4.9439 H         1 <0>         0.1270
     34 H12         5.4498    4.1395   -4.3082 H         1 <0>         0.1262
     35 H13         7.0351    2.2584   -4.3262 H         1 <0>         0.1285
     36 H14         6.2742    0.0090   -4.9684 H         1 <0>         0.1241
@<TRIPOS>BOND
     1    1    2 1
     2    1   23 1
     3    1   24 1
     4    1   25 1
     5    2    3 2
     6    2    4 2
     7    2    5 1
     8    5   10 ar
     9    5    6 ar
    10    6    7 ar
    11    6   26 1
    12    7    8 ar
    13    7   27 1
    14    8    9 ar
    15    8   11 1
    16    9   10 ar
    17    9   28 1
    18   10   29 1
    19   11   16 1
    20   11   12 2
    21   12   13 1
    22   12   17 1
    23   13   14 2
    24   13   15 1
    25   15   16 1
    26   16   30 1
    27   16   31 1
    28   17   22 ar
    29   17   18 ar
    30   18   19 ar
    31   18   32 1
    32   19   20 ar
    33   19   33 1
    34   20   21 ar
    35   20   34 1
    36   21   22 ar
    37   21   35 1
    38   22   36 1
@<TRIPOS>MOLECULE
ZINC03975277
   23    24     0     0     0
SMALL
USER_CHARGES

@<TRIPOS>ATOM
      1 C1          1.1654    2.0956    0.0022 C.ar      1 <0>        -0.0583
      2 C2         -0.0167    1.3822    0.0096 C.ar      1 <0>        -0.0473
      3 C3          0.0021   -0.0041    0.0020 C.ar      1 <0>        -0.0763
      4 C4          1.2023   -0.6925   -0.0127 C.ar      1 <0>        -0.0424
      5 C5          2.3972    0.0061   -0.0203 C.ar      1 <0>         0.1296
      6 C6          2.3807    1.4118   -0.0130 C.ar      1 <0>        -0.0873
      7 C7          3.6649    2.1286   -0.0212 C.2       1 <0>        -0.0563
      8 C8          4.7834    1.4298    0.2985 C.2       1 <0>        -0.1687
      9 C9          4.6737   -0.0271    0.6656 C.3       1 <0>         0.1061
     10 H1          5.6032   -0.5327    0.4037 H         1 <0>         0.1807
     11 O1          3.5901   -0.6386   -0.0352 O.3       1 <0>        -0.2732
     12 C10         4.4368   -0.1527    2.1720 C.3       1 <0>         0.4283
     13 F1          4.3576   -1.5053    2.5204 F         1 <0>        -0.1790
     14 F2          5.4966    0.4454    2.8621 F         1 <0>        -0.1549
     15 F3          3.2396    0.4870    2.5107 F         1 <0>        -0.1839
     16 C11         6.0493    2.0678    0.2866 C.2       1 <0>         0.4879
     17 O2          6.1347    3.2444   -0.0103 O.co2     1 <0>        -0.6216
     18 Cl1         1.2094   -2.4284   -0.0222 Cl        1 <0>        -0.0420
     19 Cl2        -1.5342    2.2252    0.0214 Cl        1 <0>        -0.0596
     20 H2          1.1490    3.1755    0.0077 H         1 <0>         0.1501
     21 H3         -0.9287   -0.5518    0.0080 H         1 <0>         0.1503
     22 H4          3.7161    3.1776   -0.2733 H         1 <0>         0.1595
     23 O3          7.1595    1.3700    0.6046 O.co2     1 <0>        -0.7418
@<TRIPOS>BOND
     1    1    6 ar
     2    1    2 ar
     3    1   20 1
     4    2    3 ar
     5    2   19 1
     6    3    4 ar
     7    3   21 1
     8    4    5 ar
     9    4   18 1
    10    5   11 1
    11    5    6 ar
    12    6    7 1
    13    7    8 2
    14    7   22 1
    15    8    9 1
    16    8   16 1
    17    9   10 1
    18    9   11 1
    19    9   12 1
    20   12   13 1
    21   12   14 1
    22   12   15 1
    23   16   17 2
    24   16   23 1
@<TRIPOS>MOLECULE
ZINC05481517
   46    47     0     0     0
SMALL
USER_CHARGES

@<TRIPOS>ATOM
      1 C1         -0.0187    1.5258    0.0104 C.3       1 <0>        -0.1496
      2 C2          0.0021   -0.0041    0.0020 C.3       1 <0>        -0.0204
      3 C3          0.7421   -0.5109    1.2415 C.3       1 <0>        -0.1426
      4 C4         -1.4333   -0.5336    0.0129 C.3       1 <0>        -0.1428
      5 C5          0.7074   -0.4901   -1.2379 C.ar      1 <0>        -0.0921
      6 C6          1.2151    0.4185   -2.1418 C.ar      1 <0>        -0.0600
      7 C7          1.8688   -0.0328   -3.2899 C.ar      1 <0>        -0.0226
      8 C8          2.0055   -1.4034   -3.5176 C.ar      1 <0>        -0.0816
      9 C9          1.4951   -2.3054   -2.6087 C.ar      1 <0>        -0.0904
     10 C10         0.8502   -1.8524   -1.4654 C.ar      1 <0>         0.1437
     11 O1          0.3533   -2.7448   -0.5692 O.3       1 <0>        -0.4824
     12 C11         1.6421   -3.7851   -2.8534 C.3       1 <0>        -0.0206
     13 C12         2.3895   -4.0127   -4.1689 C.3       1 <0>        -0.1500
     14 C13         2.4296   -4.4165   -1.7036 C.3       1 <0>        -0.1430
     15 C14         0.2564   -4.4285   -2.9362 C.3       1 <0>        -0.1429
     16 C15         2.4142    0.9378   -4.2619 C.2       1 <0>         0.1124
     17 N1          2.4009    2.2644   -4.2406 N.2       1 <0>        -0.2662
     18 N2          2.9187    2.9513   -5.1631 N.2       1 <0>        -0.2793
     19 C16         3.5081    2.3871   -6.2109 C.2       1 <0>         0.0197
     20 S1          3.2878    0.6584   -5.7996 S.3       1 <0>         0.0399
     21 S2          4.2900    3.1283   -7.6051 S.3       1 <0>         0.0563
     22 C17         4.1209    4.9097   -7.3075 C.3       1 <0>        -0.1514
     23 H1          1.0039    1.9031    0.0027 H         1 <0>         0.0604
     24 H2         -0.5459    1.8868   -0.8726 H         1 <0>         0.0596
     25 H3         -0.5289    1.8773    0.9072 H         1 <0>         0.0620
     26 H4          0.2319   -0.1594    2.1383 H         1 <0>         0.0566
     27 H5          0.7568   -1.6008    1.2356 H         1 <0>         0.0755
     28 H6          1.7647   -0.1336    1.2338 H         1 <0>         0.0522
     29 H7         -1.9605   -0.1726   -0.8702 H         1 <0>         0.0555
     30 H8         -1.4185   -1.6235    0.0069 H         1 <0>         0.0583
     31 H9         -1.9435   -0.1821    0.9097 H         1 <0>         0.0631
     32 H10         1.1070    1.4780   -1.9623 H         1 <0>         0.1454
     33 H11         2.5103   -1.7564   -4.4047 H         1 <0>         0.1347
     34 H12        -0.5596   -3.0111   -0.7442 H         1 <0>         0.3867
     35 H13         3.3767   -3.5543   -4.1099 H         1 <0>         0.0590
     36 H14         2.4958   -5.0830   -4.3459 H         1 <0>         0.0634
     37 H15         1.8284   -3.5629   -4.9881 H         1 <0>         0.0583
     38 H16         1.8972   -4.2543   -0.7664 H         1 <0>         0.0764
     39 H17         2.5360   -5.4867   -1.8806 H         1 <0>         0.0567
     40 H18         3.4168   -3.9581   -1.6446 H         1 <0>         0.0522
     41 H19        -0.3046   -3.9788   -3.7554 H         1 <0>         0.0556
     42 H20         0.3628   -5.4988   -3.1133 H         1 <0>         0.0633
     43 H21        -0.2760   -4.2664   -1.9991 H         1 <0>         0.0588
     44 H22         3.0640    5.1686   -7.2435 H         1 <0>         0.0957
     45 H23         4.6161    5.1704   -6.3721 H         1 <0>         0.0956
     46 H24         4.5809    5.4604   -8.1280 H         1 <0>         0.1209
@<TRIPOS>BOND
     1    1    2 1
     2    1   23 1
     3    1   24 1
     4    1   25 1
     5    2    3 1
     6    2    4 1
     7    2    5 1
     8    3   26 1
     9    3   27 1
    10    3   28 1
    11    4   29 1
    12    4   30 1
    13    4   31 1
    14    5   10 ar
    15    5    6 ar
    16    6    7 ar
    17    6   32 1
    18    7    8 ar
    19    7   16 1
    20    8    9 ar
    21    8   33 1
    22    9   10 ar
    23    9   12 1
    24   10   11 1
    25   11   34 1
    26   12   13 1
    27   12   14 1
    28   12   15 1
    29   13   35 1
    30   13   36 1
    31   13   37 1
    32   14   38 1
    33   14   39 1
    34   14   40 1
    35   15   41 1
    36   15   42 1
    37   15   43 1
    38   16   20 1
    39   16   17 2
    40   17   18 1
    41   18   19 2
    42   19   20 1
    43   19   21 1
    44   21   22 1
    45   22   44 1
    46   22   45 1
    47   22   46 1
@<TRIPOS>MOLECULE
ZINC28218857
   37    38     0     0     0
SMALL
USER_CHARGES
(2S)-2-[4-[[(1R,2S)-2-hydroxycyclopentyl]methyl]phenyl]propanoic acid
@<TRIPOS>ATOM
      1 C1         -1.3493   -1.6626    1.2559 C.3       1 <0>        -0.1189
      2 C2         -1.2926   -0.7753    0.0108 C.3       1 <0>        -0.1068
      3 H1         -2.1333   -0.0659    0.0094 H         1 <0>         0.0753
      4 C3          0.0021   -0.0041    0.0020 C.ar      1 <0>        -0.0372
      5 C4         -0.0167    1.3781    0.0096 C.ar      1 <0>        -0.1258
      6 C5          1.1710    2.0855    0.0021 C.ar      1 <0>        -0.1213
      7 C6          2.3773    1.4107   -0.0150 C.ar      1 <0>        -0.1018
      8 C7          2.3960    0.0285   -0.0212 C.ar      1 <0>        -0.1203
      9 C8          1.2084   -0.6789   -0.0132 C.ar      1 <0>        -0.0799
     10 C9          3.6720    2.1819   -0.0238 C.3       1 <0>        -0.0687
     11 C10         4.0966    2.4492   -1.4692 C.3       1 <0>        -0.0805
     12 H2          4.0878    1.4718   -1.9738 H         1 <0>         0.0899
     13 C11         3.1493    3.4808   -2.1305 C.3       1 <0>        -0.1198
     14 C12         4.0228    4.0676   -3.2670 C.3       1 <0>        -0.1212
     15 C13         5.4345    4.1568   -2.6514 C.3       1 <0>        -0.1507
     16 C14         5.4815    3.1278   -1.5083 C.3       1 <0>         0.1177
     17 H3          5.7768    3.5680   -0.5445 H         1 <0>         0.0528
     18 O1          6.4960    2.1552   -1.7666 O.3       1 <0>        -0.6008
     19 C15        -1.3730   -1.6360   -1.2236 C.2       1 <0>         0.4684
     20 O2         -0.4714   -1.6245   -2.0279 O.co2     1 <0>        -0.6295
     21 O3         -2.4461   -2.4156   -1.4295 O.co2     1 <0>        -0.7697
     22 H4         -2.2944   -2.2255    1.2623 H         1 <0>         0.0638
     23 H5         -1.2907   -1.0343    2.1569 H         1 <0>         0.0422
     24 H6         -0.5036   -2.3660    1.2437 H         1 <0>         0.0483
     25 H7         -0.9592    1.9054    0.0170 H         1 <0>         0.1132
     26 H8          1.1563    3.1654    0.0077 H         1 <0>         0.1110
     27 H9          3.3386   -0.4987   -0.0327 H         1 <0>         0.1125
     28 H10         1.2231   -1.7588   -0.0184 H         1 <0>         0.1162
     29 H11         3.5323    3.1389    0.5003 H         1 <0>         0.0638
     30 H12         4.4515    1.5957    0.4849 H         1 <0>         0.0688
     31 H13         2.2524    2.9667   -2.5063 H         1 <0>         0.0760
     32 H14         2.8545    4.2367   -1.3878 H         1 <0>         0.0678
     33 H15         3.9934    3.3947   -4.1367 H         1 <0>         0.0675
     34 H16         3.6347    5.0558   -3.5548 H         1 <0>         0.0639
     35 H17         6.1853    3.9231   -3.4206 H         1 <0>         0.0710
     36 H18         5.6047    5.1745   -2.2702 H         1 <0>         0.0646
     37 H19         7.5501    2.4633   -1.8289 H         1 <0>         0.3981
@<TRIPOS>BOND
     1    1    2 1
     2    1   22 1
     3    1   23 1
     4    1   24 1
     5    2    3 1
     6    2    4 1
     7    2   19 1
     8    4    9 ar
     9    4    5 ar
    10    5    6 ar
    11    5   25 1
    12    6    7 ar
    13    6   26 1
    14    7    8 ar
    15    7   10 1
    16    8    9 ar
    17    8   27 1
    18    9   28 1
    19   10   11 1
    20   10   29 1
    21   10   30 1
    22   11   12 1
    23   11   16 1
    24   11   13 1
    25   13   14 1
    26   13   31 1
    27   13   32 1
    28   14   15 1
    29   14   33 1
    30   14   34 1
    31   15   16 1
    32   15   35 1
    33   15   36 1
    34   16   17 1
    35   16   18 1
    36   18   37 1
    37   19   20 2
    38   19   21 1
@<TRIPOS>MOLECULE
ZINC28220807
   37    38     0     0     0
SMALL
USER_CHARGES
(2R)-2-[4-[[(1R,2S)-2-hydroxycyclopentyl]methyl]phenyl]propanoic acid
@<TRIPOS>ATOM
      1 C1         -0.0187    1.5258    0.0104 C.3       1 <0>        -0.1187
      2 C2          0.0021   -0.0041    0.0020 C.3       1 <0>        -0.1070
      3 H1         -1.0243   -0.3997    0.0097 H         1 <0>         0.0754
      4 C3          0.7309   -0.5033    1.2229 C.ar      1 <0>        -0.0376
      5 C4          2.0534   -0.1572    1.4281 C.ar      1 <0>        -0.0804
      6 C5          2.7206   -0.6111    2.5504 C.ar      1 <0>        -0.1197
      7 C6          2.0683   -1.4198    3.4623 C.ar      1 <0>        -0.1017
      8 C7          0.7474   -1.7702    3.2545 C.ar      1 <0>        -0.1222
      9 C8          0.0787   -1.3120    2.1348 C.ar      1 <0>        -0.1246
     10 C9          2.7975   -1.9198    4.6827 C.3       1 <0>        -0.0690
     11 C10         3.4693   -3.2568    4.3634 C.3       1 <0>        -0.0792
     12 H2          2.6806   -3.9010    3.9475 H         1 <0>         0.0881
     13 C11         4.6567   -3.0482    3.3910 C.3       1 <0>        -0.1211
     14 C12         5.5406   -4.2916    3.6592 C.3       1 <0>        -0.1212
     15 C13         5.4348   -4.5093    5.1828 C.3       1 <0>        -0.1506
     16 C14         4.1179   -3.8514    5.6305 C.3       1 <0>         0.1177
     17 H3          4.2568   -3.1134    6.4343 H         1 <0>         0.0529
     18 O1          3.2533   -4.8310    6.2093 O.3       1 <0>        -0.6017
     19 C15         0.7074   -0.4901   -1.2379 C.2       1 <0>         0.4687
     20 O2          1.7002   -1.1719   -1.1401 O.co2     1 <0>        -0.6298
     21 O3          0.2329   -0.1655   -2.4508 O.co2     1 <0>        -0.7695
     22 H4         -0.5507    1.8901   -0.8808 H         1 <0>         0.0637
     23 H5          1.0133    1.9066    0.0026 H         1 <0>         0.0481
     24 H6         -0.5336    1.8805    0.9154 H         1 <0>         0.0422
     25 H7          2.5643    0.4710    0.7134 H         1 <0>         0.1161
     26 H8          3.7527   -0.3376    2.7126 H         1 <0>         0.1118
     27 H9          0.2379   -2.4023    3.9667 H         1 <0>         0.1117
     28 H10        -0.9532   -1.5860    1.9722 H         1 <0>         0.1133
     29 H11         3.5623   -1.1867    4.9789 H         1 <0>         0.0645
     30 H12         2.0820   -2.0566    5.5070 H         1 <0>         0.0680
     31 H13         4.2817   -3.0084    2.3577 H         1 <0>         0.0783
     32 H14         5.1669   -2.1041    3.6325 H         1 <0>         0.0684
     33 H15         5.1495   -5.1488    3.0915 H         1 <0>         0.0671
     34 H16         6.5732   -4.0826    3.3427 H         1 <0>         0.0646
     35 H17         5.4279   -5.5877    5.3995 H         1 <0>         0.0706
     36 H18         6.2964   -4.0408    5.6809 H         1 <0>         0.0648
     37 H19         3.5570   -5.3608    7.1242 H         1 <0>         0.3980
@<TRIPOS>BOND
     1    1    2 1
     2    1   22 1
     3    1   23 1
     4    1   24 1
     5    2    3 1
     6    2    4 1
     7    2   19 1
     8    4    9 ar
     9    4    5 ar
    10    5    6 ar
    11    5   25 1
    12    6    7 ar
    13    6   26 1
    14    7    8 ar
    15    7   10 1
    16    8    9 ar
    17    8   27 1
    18    9   28 1
    19   10   11 1
    20   10   29 1
    21   10   30 1
    22   11   12 1
    23   11   16 1
    24   11   13 1
    25   13   14 1
    26   13   31 1
    27   13   32 1
    28   14   15 1
    29   14   33 1
    30   14   34 1
    31   15   16 1
    32   15   35 1
    33   15   36 1
    34   16   17 1
    35   16   18 1
    36   18   37 1
    37   19   20 2
    38   19   21 1
@<TRIPOS>MOLECULE
ZINC44127101
   29    30     0     0     0
SMALL
USER_CHARGES

@<TRIPOS>ATOM
      1 C1         -0.0187    1.5258    0.0104 C.3       1 <0>        -0.1479
      2 C2          0.0021   -0.0041    0.0020 C.3       1 <0>        -0.0787
      3 C3          0.7309   -0.5033    1.2229 C.ar      1 <0>        -0.1100
      4 C4          2.1007   -0.7088    1.1719 C.ar      1 <0>        -0.0904
      5 C5          2.7864   -1.1673    2.2811 C.ar      1 <0>        -0.1331
      6 C6          2.1025   -1.4243    3.4562 C.ar      1 <0>         0.1095
      7 C7          0.7128   -1.2152    3.5113 C.ar      1 <0>        -0.1089
      8 C8          0.0323   -0.7478    2.3866 C.ar      1 <0>        -0.0705
      9 C9          0.0112   -1.4942    4.7722 C.2       1 <0>        -0.0529
     10 C10         0.7586   -1.6149    5.9015 C.2       1 <0>        -0.2059
     11 C11         2.2533   -1.4412    5.8287 C.3       1 <0>         0.1103
     12 H1          2.7231   -2.0282    6.6179 H         1 <0>         0.1697
     13 O1          2.7454   -1.8757    4.5606 O.3       1 <0>        -0.2897
     14 C12         2.6008    0.0362    6.0222 C.3       1 <0>         0.4266
     15 F1          2.1401    0.4638    7.2720 F         1 <0>        -0.1602
     16 F2          3.9884    0.2015    5.9553 F         1 <0>        -0.1843
     17 F3          1.9918    0.7941    5.0163 F         1 <0>        -0.1821
     18 C13         0.1362   -1.9014    7.1377 C.2       1 <0>         0.5209
     19 O2         -1.0797   -2.0417    7.1935 O.co2     1 <0>        -0.6833
     20 O3          0.8127   -2.0096    8.1536 O.co2     1 <0>        -0.6832
     21 H2          1.0039    1.9031    0.0027 H         1 <0>         0.0549
     22 H3         -0.5459    1.8868   -0.8726 H         1 <0>         0.0548
     23 H4         -0.5289    1.8773    0.9072 H         1 <0>         0.0567
     24 H5         -1.0205   -0.3814    0.0098 H         1 <0>         0.0707
     25 H6          0.5123   -0.3556   -0.8948 H         1 <0>         0.0695
     26 H7          2.6376   -0.5091    0.2563 H         1 <0>         0.1264
     27 H8          3.8536   -1.3250    2.2306 H         1 <0>         0.1316
     28 H9         -1.0343   -0.5828    2.4256 H         1 <0>         0.1295
     29 H10        -1.0632   -1.6002    4.8007 H         1 <0>         0.1502
@<TRIPOS>BOND
     1    1    2 1
     2    1   21 1
     3    1   22 1
     4    1   23 1
     5    2    3 1
     6    2   24 1
     7    2   25 1
     8    3    8 ar
     9    3    4 ar
    10    4    5 ar
    11    4   26 1
    12    5    6 ar
    13    5   27 1
    14    6   13 1
    15    6    7 ar
    16    7    8 ar
    17    7    9 1
    18    8   28 1
    19    9   10 2
    20    9   29 1
    21   10   11 1
    22   10   18 1
    23   11   12 1
    24   11   13 1
    25   11   14 1
    26   14   15 1
    27   14   16 1
    28   14   17 1
    29   18   19 2
    30   18   20 1
@<TRIPOS>MOLECULE
ZINC01548581
   50    50     0     0     0
SMALL
USER_CHARGES
1-(4-hydroxy-3,5-ditert-butyl-phenyl)hex-5-yn-1-one
@<TRIPOS>ATOM
      1 C1         -0.0127    1.0858    0.0080 C.3       1 <0>        -0.1489
      2 C2         -0.7288    1.5792    1.2668 C.3       1 <0>        -0.0213
      3 C3         -0.7496    3.1091    1.2752 C.3       1 <0>        -0.1425
      4 C4         -2.1642    1.0497    1.2777 C.3       1 <0>        -0.1423
      5 C5          0.0000    1.0800    2.4877 C.ar      1 <0>        -0.1053
      6 C6          1.1241    0.3077    2.3456 C.ar      1 <0>        -0.0529
      7 C7          1.8007   -0.1551    3.4810 C.ar      1 <0>        -0.1773
      8 C8          1.3249    0.1738    4.7563 C.ar      1 <0>        -0.0657
      9 C9          0.1999    0.9467    4.8874 C.ar      1 <0>        -0.1060
     10 C10        -0.4653    1.4082    3.7566 C.ar      1 <0>         0.1518
     11 O1         -1.5750    2.1769    3.8917 O.3       1 <0>        -0.4837
     12 C11        -0.3130    1.3019    6.2592 C.3       1 <0>        -0.0207
     13 C12         0.5963    0.6796    7.3206 C.3       1 <0>        -0.1489
     14 C13        -0.3209    2.8231    6.4227 C.3       1 <0>        -0.1432
     15 C14        -1.7354    0.7636    6.4270 C.3       1 <0>        -0.1430
     16 C15         3.0048   -0.9830    3.3347 C.2       1 <0>         0.3964
     17 O2          3.4149   -1.2670    2.2291 O.2       1 <0>        -0.4491
     18 C16         3.7309   -1.4797    4.5583 C.3       1 <0>        -0.1584
     19 C17         4.9411   -2.3123    4.1302 C.3       1 <0>        -0.1084
     20 C18         5.6783   -2.8166    5.3725 C.3       1 <0>        -0.0125
     21 C19         6.8426   -3.6176    4.9607 C.1       1 <0>        -0.1922
     22 C20         7.7712   -4.2565    4.6323 C.1       1 <0>        -0.2047
     23 H1          0.0021   -0.0041    0.0020 H         1 <0>         0.0589
     24 H2          1.0099    1.4631    0.0003 H         1 <0>         0.0596
     25 H3         -0.5399    1.4469   -0.8751 H         1 <0>         0.0617
     26 H4         -1.2768    3.4701    0.3922 H         1 <0>         0.0561
     27 H5         -1.2598    3.4606    2.1720 H         1 <0>         0.0751
     28 H6          0.2730    3.4864    1.2675 H         1 <0>         0.0516
     29 H7         -2.1494   -0.0402    1.2717 H         1 <0>         0.0549
     30 H8         -2.6744    1.4012    2.1745 H         1 <0>         0.0575
     31 H9         -2.6914    1.4107    0.3946 H         1 <0>         0.0627
     32 H10         1.4872    0.0571    1.3599 H         1 <0>         0.1413
     33 H11         1.8433   -0.1804    5.6351 H         1 <0>         0.1391
     34 H12        -2.3994    1.6734    3.9344 H         1 <0>         0.3870
     35 H13         1.6096    1.0631    7.2011 H         1 <0>         0.0596
     36 H14         0.2253    0.9365    8.3128 H         1 <0>         0.0621
     37 H15         0.6019   -0.4042    7.2042 H         1 <0>         0.0589
     38 H16        -0.9687    3.2665    5.6665 H         1 <0>         0.0751
     39 H17        -0.6919    3.0800    7.4149 H         1 <0>         0.0559
     40 H18         0.6924    3.2066    6.3031 H         1 <0>         0.0518
     41 H19        -1.7298   -0.3202    6.3106 H         1 <0>         0.0552
     42 H20        -2.1064    1.0205    7.4192 H         1 <0>         0.0625
     43 H21        -2.3832    1.2069    5.6708 H         1 <0>         0.0575
     44 H22         4.0388   -0.6995    5.1028 H         1 <0>         0.0924
     45 H23         3.0584   -2.0962    5.1546 H         1 <0>         0.1021
     46 H24         4.6055   -3.1627    3.5367 H         1 <0>         0.0742
     47 H25         5.6137   -1.6958    3.5339 H         1 <0>         0.0739
     48 H26         6.0139   -1.9662    5.9660 H         1 <0>         0.0875
     49 H27         5.0057   -3.4331    5.9688 H         1 <0>         0.0878
     50 H28         8.6017   -4.8279    4.3385 H         1 <0>         0.2172
@<TRIPOS>BOND
     1    1    2 1
     2    1   23 1
     3    1   24 1
     4    1   25 1
     5    2    3 1
     6    2    4 1
     7    2    5 1
     8    3   26 1
     9    3   27 1
    10    3   28 1
    11    4   29 1
    12    4   30 1
    13    4   31 1
    14    5   10 ar
    15    5    6 ar
    16    6    7 ar
    17    6   32 1
    18    7    8 ar
    19    7   16 1
    20    8    9 ar
    21    8   33 1
    22    9   10 ar
    23    9   12 1
    24   10   11 1
    25   11   34 1
    26   12   13 1
    27   12   14 1
    28   12   15 1
    29   13   35 1
    30   13   36 1
    31   13   37 1
    32   14   38 1
    33   14   39 1
    34   14   40 1
    35   15   41 1
    36   15   42 1
    37   15   43 1
    38   16   17 2
    39   16   18 1
    40   18   19 1
    41   18   44 1
    42   18   45 1
    43   19   20 1
    44   19   46 1
    45   19   47 1
    46   20   21 1
    47   20   48 1
    48   20   49 1
    49   21   22 3
    50   22   50 1
@<TRIPOS>MOLECULE
ZINC00001281
   29    30     0     0     0
SMALL
USER_CHARGES

@<TRIPOS>ATOM
      1 C1         -0.1806    1.0357    0.2000 C.ar      1 <0>        -0.1222
      2 C2          0.9245    1.8481    0.0217 C.ar      1 <0>        -0.1361
      3 C3          2.1862    1.2928   -0.0570 C.ar      1 <0>        -0.1180
      4 C4          2.3450   -0.0840    0.0433 C.ar      1 <0>         0.1573
      5 C5          1.2329   -0.8970    0.2224 C.ar      1 <0>        -0.0156
      6 C6         -0.0262   -0.3347    0.3002 C.ar      1 <0>        -0.1119
      7 C7          1.4001   -2.3907    0.3312 C.3       1 <0>        -0.1565
      8 C8          1.7182   -2.7580    1.7577 C.2       1 <0>         0.5052
      9 O1          1.8014   -1.8875    2.6073 O.co2     1 <0>        -0.6883
     10 O2          1.8923   -3.9257    2.0622 O.co2     1 <0>        -0.7010
     11 N1          3.6199   -0.6493   -0.0363 N.pl3     1 <0>        -0.6799
     12 C9          3.9705   -1.4310   -1.1417 C.ar      1 <0>         0.2371
     13 C10         3.3529   -1.2194   -2.3686 C.ar      1 <0>        -0.0923
     14 C11         3.7019   -1.9940   -3.4588 C.ar      1 <0>        -0.0712
     15 C12         4.6640   -2.9789   -3.3298 C.ar      1 <0>        -0.1540
     16 C13         5.2803   -3.1928   -2.1105 C.ar      1 <0>        -0.0674
     17 C14         4.9413   -2.4177   -1.0174 C.ar      1 <0>        -0.0897
     18 Cl1         5.7217   -2.6815    0.5107 Cl        1 <0>        -0.0512
     19 Cl2         2.1442    0.0160   -2.5315 Cl        1 <0>        -0.0473
     20 H1         -1.1659    1.4731    0.2657 H         1 <0>         0.1132
     21 H2          0.8003    2.9181   -0.0565 H         1 <0>         0.1137
     22 H3          3.0486    1.9277   -0.1966 H         1 <0>         0.1147
     23 H4         -0.8913   -0.9662    0.4394 H         1 <0>         0.1149
     24 H5          0.4765   -2.8828    0.0266 H         1 <0>         0.0630
     25 H6          2.2146   -2.7133   -0.3173 H         1 <0>         0.0663
     26 H7          4.2621   -0.4997    0.6751 H         1 <0>         0.4125
     27 H8          3.2224   -1.8301   -4.4125 H         1 <0>         0.1341
     28 H9          4.9344   -3.5828   -4.1833 H         1 <0>         0.1345
     29 H10         6.0307   -3.9634   -2.0133 H         1 <0>         0.1361
@<TRIPOS>BOND
     1    1    6 ar
     2    1    2 ar
     3    1   20 1
     4    2    3 ar
     5    2   21 1
     6    3    4 ar
     7    3   22 1
     8    4    5 ar
     9    4   11 1
    10    5    6 ar
    11    5    7 1
    12    6   23 1
    13    7    8 1
    14    7   24 1
    15    7   25 1
    16    8    9 2
    17    8   10 1
    18   11   12 1
    19   11   26 1
    20   12   17 ar
    21   12   13 ar
    22   13   14 ar
    23   13   19 1
    24   14   15 ar
    25   14   27 1
    26   15   16 ar
    27   15   28 1
    28   16   17 ar
    29   16   29 1
    30   17   18 1
@<TRIPOS>MOLECULE
ZINC01636901
   33    35     0     0     0
SMALL
USER_CHARGES
1-phenothiazin-10-ylpropan-2-ol
@<TRIPOS>ATOM
      1 C1          0.1692   -2.0447    1.4339 C.3       1 <0>        -0.1851
      2 C2          0.0228   -0.5218    1.4416 C.3       1 <0>         0.0837
      3 H1          0.8637   -0.0786    1.9750 H         1 <0>         0.0562
      4 C3          0.0021   -0.0041    0.0020 C.3       1 <0>         0.1283
      5 N1         -0.0178    1.4608    0.0101 N.pl3     1 <0>        -0.5765
      6 C4         -1.2497    2.1238    0.0196 C.ar      1 <0>         0.2077
      7 C5         -2.3221    1.6237   -0.6963 C.ar      1 <0>        -0.1431
      8 C6         -3.5372    2.2859   -0.6780 C.ar      1 <0>        -0.0821
      9 C7         -3.6911    3.4462    0.0563 C.ar      1 <0>        -0.1373
     10 C8         -2.6261    3.9548    0.7820 C.ar      1 <0>        -0.0620
     11 C9         -1.4111    3.2969    0.7671 C.ar      1 <0>        -0.1445
     12 S1         -0.0353    3.9203    1.6820 S.3       1 <0>         0.0024
     13 C10         1.3395    3.3339    0.7417 C.ar      1 <0>        -0.1463
     14 C11         1.1956    2.1571    0.0022 C.ar      1 <0>         0.1891
     15 C12         2.2672    1.6864   -0.7405 C.ar      1 <0>        -0.1515
     16 C13         3.4644    2.3811   -0.7443 C.ar      1 <0>        -0.0826
     17 C14         3.6012    3.5443   -0.0110 C.ar      1 <0>        -0.1357
     18 C15         2.5367    4.0237    0.7349 C.ar      1 <0>        -0.0609
     19 O1         -1.1971   -0.1638    2.0941 O.3       1 <0>        -0.5558
     20 H2          0.1839   -2.4135    2.4595 H         1 <0>         0.0637
     21 H3         -0.6718   -2.4879    0.9005 H         1 <0>         0.0663
     22 H4          1.0997   -2.3178    0.9362 H         1 <0>         0.0672
     23 H5         -0.8878   -0.3767   -0.5053 H         1 <0>         0.0891
     24 H6          0.8920   -0.3525   -0.5222 H         1 <0>         0.0941
     25 H7         -2.2096    0.7173   -1.2727 H         1 <0>         0.1251
     26 H8         -4.3707    1.8930   -1.2412 H         1 <0>         0.1283
     27 H9         -4.6425    3.9573    0.0644 H         1 <0>         0.1297
     28 H10        -2.7451    4.8612    1.3569 H         1 <0>         0.1319
     29 H11         2.1681    0.7778   -1.3157 H         1 <0>         0.1283
     30 H12         4.2970    2.0118   -1.3246 H         1 <0>         0.1301
     31 H13         4.5387    4.0803   -0.0196 H         1 <0>         0.1312
     32 H14         2.6422    4.9326    1.3085 H         1 <0>         0.1337
     33 H15        -1.2536   -0.4606    3.0127 H         1 <0>         0.3772
@<TRIPOS>BOND
     1    1    2 1
     2    1   20 1
     3    1   21 1
     4    1   22 1
     5    2    3 1
     6    2    4 1
     7    2   19 1
     8    4    5 1
     9    4   23 1
    10    4   24 1
    11    5   14 1
    12    5    6 1
    13    6   11 ar
    14    6    7 ar
    15    7    8 ar
    16    7   25 1
    17    8    9 ar
    18    8   26 1
    19    9   10 ar
    20    9   27 1
    21   10   11 ar
    22   10   28 1
    23   11   12 1
    24   12   13 1
    25   13   18 ar
    26   13   14 ar
    27   14   15 ar
    28   15   16 ar
    29   15   29 1
    30   16   17 ar
    31   16   30 1
    32   17   18 ar
    33   17   31 1
    34   18   32 1
    35   19   33 1
@<TRIPOS>MOLECULE
ZINC03593541
   33    35     0     0     0
SMALL
USER_CHARGES
1-phenothiazin-10-ylpropan-2-ol
@<TRIPOS>ATOM
      1 C1          2.0397    1.1274   -1.2607 C.3       1 <0>        -0.1842
      2 C2          1.2864    1.5618   -0.0018 C.3       1 <0>         0.0850
      3 H1          1.1856    2.6471    0.0050 H         1 <0>         0.0993
      4 C3          2.0636    1.1140    1.2377 C.3       1 <0>         0.0888
      5 N1          1.3422    1.5299    2.4430 N.pl3     1 <0>        -0.5744
      6 C4          1.6222    2.7799    3.0054 C.ar      1 <0>         0.1892
      7 C5          2.9144    3.2729    3.0136 C.ar      1 <0>        -0.1508
      8 C6          3.1802    4.5118    3.5701 C.ar      1 <0>        -0.0829
      9 C7          2.1604    5.2671    4.1167 C.ar      1 <0>        -0.1349
     10 C8          0.8608    4.7869    4.1101 C.ar      1 <0>        -0.0613
     11 C9          0.5905    3.5506    3.5553 C.ar      1 <0>        -0.1460
     12 S1         -1.0557    2.9119    3.5315 S.3       1 <0>         0.0081
     13 C10        -0.7835    1.1674    3.5549 C.ar      1 <0>        -0.1417
     14 C11         0.3969    0.6634    3.0024 C.ar      1 <0>         0.2034
     15 C12         0.6228   -0.7041    3.0149 C.ar      1 <0>        -0.1556
     16 C13        -0.3164   -1.5553    3.5710 C.ar      1 <0>        -0.0821
     17 C14        -1.4821   -1.0515    4.1157 C.ar      1 <0>        -0.1367
     18 C15        -1.7181    0.3136    4.1086 C.ar      1 <0>        -0.0598
     19 O1         -0.0110    0.9628    0.0073 O.3       1 <0>        -0.5477
     20 H2          1.4860    1.4464   -2.1437 H         1 <0>         0.0700
     21 H3          3.0293    1.5842   -1.2677 H         1 <0>         0.0679
     22 H4          2.1405    0.0421   -1.2675 H         1 <0>         0.0605
     23 H5          2.1644    0.0287    1.2309 H         1 <0>         0.0847
     24 H6          3.0532    1.5708    1.2307 H         1 <0>         0.0899
     25 H7          3.7169    2.6884    2.5883 H         1 <0>         0.1278
     26 H8          4.1916    4.8907    3.5775 H         1 <0>         0.1302
     27 H9          2.3766    6.2325    4.5499 H         1 <0>         0.1314
     28 H10         0.0626    5.3764    4.5364 H         1 <0>         0.1340
     29 H11         1.5316   -1.1054    2.5912 H         1 <0>         0.1259
     30 H12        -0.1368   -2.6202    3.5794 H         1 <0>         0.1290
     31 H13        -2.2097   -1.7225    4.5478 H         1 <0>         0.1304
     32 H14        -2.6288    0.7087    4.5340 H         1 <0>         0.1329
     33 H15         0.0021   -0.0041    0.0020 H         1 <0>         0.3697
@<TRIPOS>BOND
     1    1    2 1
     2    1   20 1
     3    1   21 1
     4    1   22 1
     5    2    3 1
     6    2    4 1
     7    2   19 1
     8    4    5 1
     9    4   23 1
    10    4   24 1
    11    5   14 1
    12    5    6 1
    13    6   11 ar
    14    6    7 ar
    15    7    8 ar
    16    7   25 1
    17    8    9 ar
    18    8   26 1
    19    9   10 ar
    20    9   27 1
    21   10   11 ar
    22   10   28 1
    23   11   12 1
    24   12   13 1
    25   13   18 ar
    26   13   14 ar
    27   14   15 ar
    28   15   16 ar
    29   15   29 1
    30   16   17 ar
    31   16   30 1
    32   17   18 ar
    33   17   31 1
    34   18   32 1
    35   19   33 1
@<TRIPOS>MOLECULE
ZINC00056582
   35    36     0     0     0
SMALL
USER_CHARGES

@<TRIPOS>ATOM
      1 C1         -0.0184    1.5028    0.0103 C.3       1 <0>        -0.1049
      2 C2          0.0021   -0.0041    0.0020 C.ar      1 <0>        -0.0802
      3 C3          0.0058   -0.6885   -1.1962 C.ar      1 <0>        -0.1165
      4 C4          0.0259   -2.0791   -1.2097 C.ar      1 <0>         0.1488
      5 C5          0.0449   -2.7781   -0.0153 C.ar      1 <0>        -0.1553
      6 C6          0.0389   -2.0905    1.1864 C.ar      1 <0>        -0.0785
      7 C7          0.0230   -0.7049    1.1985 C.ar      1 <0>         0.0505
      8 O1          0.0225   -0.0339    2.3812 O.3       1 <0>        -0.4914
      9 C8          0.0545   -2.8521    2.4867 C.3       1 <0>        -0.1066
     10 C9          0.0784   -4.2852    0.0124 C.3       1 <0>        -0.0745
     11 C10        -0.3568   -4.8361   -1.3477 C.3       1 <0>        -0.1321
     12 C11         0.4167   -4.0876   -2.4407 C.3       1 <0>         0.0460
     13 O2          0.0230   -2.7150   -2.4113 O.3       1 <0>        -0.2734
     14 C12         1.9196   -4.1985   -2.1763 C.3       1 <0>        -0.1525
     15 C13         0.0927   -4.6798   -3.7880 C.2       1 <0>         0.5161
     16 O3         -0.4106   -3.9850   -4.6543 O.co2     1 <0>        -0.6706
     17 O4          0.3338   -5.8538   -4.0118 O.co2     1 <0>        -0.6816
     18 C14        -0.0125    0.0741   -2.4958 C.3       1 <0>        -0.1056
     19 H1          1.0042    1.8801    0.0026 H         1 <0>         0.0687
     20 H2         -0.5455    1.8639   -0.8728 H         1 <0>         0.0692
     21 H3         -0.5286    1.8543    0.9071 H         1 <0>         0.0628
     22 H4         -0.8609    0.1466    2.7307 H         1 <0>         0.3739
     23 H5          1.0859   -3.0205    2.7967 H         1 <0>         0.0686
     24 H6         -0.4653   -2.2755    3.2518 H         1 <0>         0.0629
     25 H7         -0.4456   -3.8112    2.3521 H         1 <0>         0.0671
     26 H8          1.0917   -4.6215    0.2325 H         1 <0>         0.0752
     27 H9         -0.5994   -4.6489    0.7847 H         1 <0>         0.0759
     28 H10        -0.1314   -5.9011   -1.4019 H         1 <0>         0.0870
     29 H11        -1.4271   -4.6792   -1.4822 H         1 <0>         0.0672
     30 H12         2.2128   -5.2483   -2.1804 H         1 <0>         0.0734
     31 H13         2.4658   -3.6656   -2.9547 H         1 <0>         0.0564
     32 H14         2.1510   -3.7605   -1.2053 H         1 <0>         0.0491
     33 H15         1.0107    0.2732   -2.8147 H         1 <0>         0.0645
     34 H16        -0.5217   -0.5171   -3.2569 H         1 <0>         0.0786
     35 H17        -0.5396    1.0179   -2.3559 H         1 <0>         0.0621
@<TRIPOS>BOND
     1    1    2 1
     2    1   19 1
     3    1   20 1
     4    1   21 1
     5    2    7 ar
     6    2    3 ar
     7    3    4 ar
     8    3   18 1
     9    4   13 1
    10    4    5 ar
    11    5    6 ar
    12    5   10 1
    13    6    7 ar
    14    6    9 1
    15    7    8 1
    16    8   22 1
    17    9   23 1
    18    9   24 1
    19    9   25 1
    20   10   11 1
    21   10   26 1
    22   10   27 1
    23   11   12 1
    24   11   28 1
    25   11   29 1
    26   12   13 1
    27   12   14 1
    28   12   15 1
    29   14   30 1
    30   14   31 1
    31   14   32 1
    32   15   16 2
    33   15   17 1
    34   18   33 1
    35   18   34 1
    36   18   35 1
@<TRIPOS>MOLECULE
ZINC03861683
   35    36     0     0     0
SMALL
USER_CHARGES

@<TRIPOS>ATOM
      1 C1         -0.0184    1.5028    0.0103 C.3       1 <0>        -0.1048
      2 C2          0.0021   -0.0041    0.0020 C.ar      1 <0>        -0.0802
      3 C3          0.0058   -0.6885   -1.1962 C.ar      1 <0>        -0.1165
      4 C4          0.0234   -2.0792   -1.2096 C.ar      1 <0>         0.1483
      5 C5          0.0353   -2.7782   -0.0153 C.ar      1 <0>        -0.1551
      6 C6          0.0347   -2.0906    1.1864 C.ar      1 <0>        -0.0785
      7 C7          0.0230   -0.7049    1.1985 C.ar      1 <0>         0.0504
      8 O1          0.0266   -0.0338    2.3812 O.3       1 <0>        -0.4910
      9 C8          0.0517   -2.8521    2.4867 C.3       1 <0>        -0.1051
     10 C9          0.0431   -4.2857    0.0126 C.3       1 <0>        -0.0733
     11 C10         0.4796   -4.8247   -1.3519 C.3       1 <0>        -0.1320
     12 C11        -0.3249   -4.0977   -2.4370 C.3       1 <0>         0.0452
     13 O2          0.0315   -2.7149   -2.4113 O.3       1 <0>        -0.2725
     14 C12        -1.8215   -4.2494   -2.1576 C.3       1 <0>        -0.1521
     15 C13         0.0017   -4.6811   -3.7876 C.2       1 <0>         0.5160
     16 O3         -0.2096   -5.8612   -4.0091 O.co2     1 <0>        -0.6816
     17 O4          0.4773   -3.9729   -4.6587 O.co2     1 <0>        -0.6704
     18 C14        -0.0098    0.0742   -2.4958 C.3       1 <0>        -0.1043
     19 H1          1.0042    1.8801    0.0026 H         1 <0>         0.0691
     20 H2         -0.5455    1.8639   -0.8728 H         1 <0>         0.0689
     21 H3         -0.5286    1.8543    0.9071 H         1 <0>         0.0626
     22 H4         -0.8557    0.1493    2.7322 H         1 <0>         0.3734
     23 H5          1.0833   -3.0237    2.7939 H         1 <0>         0.0687
     24 H6         -0.4642   -2.2739    3.2533 H         1 <0>         0.0633
     25 H7         -0.4518   -3.8097    2.3536 H         1 <0>         0.0655
     26 H8          0.7383   -4.6307    0.7781 H         1 <0>         0.0743
     27 H9         -0.9583   -4.6494    0.2427 H         1 <0>         0.0750
     28 H10         1.5438   -4.6388   -1.4970 H         1 <0>         0.0673
     29 H11         0.2827   -5.8955   -1.4040 H         1 <0>         0.0871
     30 H12        -2.0550   -3.8177   -1.1844 H         1 <0>         0.0488
     31 H13        -2.3897   -3.7317   -2.9304 H         1 <0>         0.0563
     32 H14        -2.0860   -5.3068   -2.1590 H         1 <0>         0.0734
     33 H15         1.0140    0.2714   -2.8136 H         1 <0>         0.0665
     34 H16        -0.5192   -0.5162   -3.2574 H         1 <0>         0.0756
     35 H17        -0.5354    1.0188   -2.3565 H         1 <0>         0.0617
@<TRIPOS>BOND
     1    1    2 1
     2    1   19 1
     3    1   20 1
     4    1   21 1
     5    2    7 ar
     6    2    3 ar
     7    3    4 ar
     8    3   18 1
     9    4   13 1
    10    4    5 ar
    11    5    6 ar
    12    5   10 1
    13    6    7 ar
    14    6    9 1
    15    7    8 1
    16    8   22 1
    17    9   23 1
    18    9   24 1
    19    9   25 1
    20   10   11 1
    21   10   26 1
    22   10   27 1
    23   11   12 1
    24   11   28 1
    25   11   29 1
    26   12   13 1
    27   12   14 1
    28   12   15 1
    29   14   30 1
    30   14   31 1
    31   14   32 1
    32   15   16 2
    33   15   17 1
    34   18   33 1
    35   18   34 1
    36   18   35 1
@<TRIPOS>MOLECULE
ZINC00105216
   30    31     0     0     0
SMALL
USER_CHARGES

@<TRIPOS>ATOM
      1 C1         -0.0187    1.5258    0.0104 C.3       1 <0>        -0.1185
      2 C2          0.0021   -0.0041    0.0020 C.3       1 <0>        -0.1364
      3 H1         -1.0205   -0.3814    0.0098 H         1 <0>         0.0713
      4 C3          0.7074   -0.4901   -1.2379 C.ar      1 <0>        -0.0233
      5 C4          2.0367   -0.1325   -1.4560 C.ar      1 <0>        -0.0492
      6 C5          2.7027   -0.5545   -2.5653 C.ar      1 <0>        -0.1340
      7 C6          2.0432   -1.3636   -3.5068 C.ar      1 <0>        -0.0210
      8 C7          2.6987   -1.8182   -4.6628 C.ar      1 <0>        -0.1462
      9 C8          2.0264   -2.6031   -5.5556 C.ar      1 <0>         0.1082
     10 C9          0.6925   -2.9604   -5.3345 C.ar      1 <0>        -0.2006
     11 C10         0.0299   -2.5361   -4.2254 C.ar      1 <0>        -0.0655
     12 C11         0.6914   -1.7275   -3.2846 C.ar      1 <0>        -0.0750
     13 C12         0.0385   -1.2762   -2.1250 C.ar      1 <0>        -0.1205
     14 O1          2.6617   -3.0423   -6.6736 O.3       1 <0>        -0.3228
     15 C13         1.9067   -3.8599   -7.5700 C.3       1 <0>         0.0296
     16 C14         0.7309   -0.5033    1.2229 C.2       1 <0>         0.5002
     17 O2          0.3210   -0.2204    2.3358 O.co2     1 <0>        -0.6976
     18 O3          1.7305   -1.1901    1.0978 O.co2     1 <0>        -0.6861
     19 H2          1.0039    1.9031    0.0027 H         1 <0>         0.0479
     20 H3         -0.5459    1.8868   -0.8726 H         1 <0>         0.0406
     21 H4         -0.5289    1.8773    0.9072 H         1 <0>         0.0604
     22 H5          2.5458    0.4890   -0.7342 H         1 <0>         0.1214
     23 H6          3.7325   -0.2690   -2.7216 H         1 <0>         0.1221
     24 H7          3.7285   -1.5483   -4.8448 H         1 <0>         0.1285
     25 H8          0.1814   -3.5818   -6.0549 H         1 <0>         0.1229
     26 H9         -1.0004   -2.8192   -4.0679 H         1 <0>         0.1257
     27 H10        -0.9902   -1.5485   -1.9405 H         1 <0>         0.1191
     28 H11         2.5306   -4.1410   -8.4184 H         1 <0>         0.0948
     29 H12         1.5744   -4.7583   -7.0499 H         1 <0>         0.0524
     30 H13         1.0391   -3.3040   -7.9254 H         1 <0>         0.0519
@<TRIPOS>BOND
     1    1    2 1
     2    1   19 1
     3    1   20 1
     4    1   21 1
     5    2    3 1
     6    2    4 1
     7    2   16 1
     8    4   13 ar
     9    4    5 ar
    10    5    6 ar
    11    5   22 1
    12    6    7 ar
    13    6   23 1
    14    7   12 ar
    15    7    8 ar
    16    8    9 ar
    17    8   24 1
    18    9   10 ar
    19    9   14 1
    20   10   11 ar
    21   10   25 1
    22   11   12 ar
    23   11   26 1
    24   12   13 ar
    25   13   27 1
    26   14   15 1
    27   15   28 1
    28   15   29 1
    29   15   30 1
    30   16   17 2
    31   16   18 1
@<TRIPOS>MOLECULE
ZINC01721694
   34    36     0     0     0
SMALL
USER_CHARGES

@<TRIPOS>ATOM
      1 C1         -0.0167    1.3784    0.0096 C.ar      1 <0>        -0.0906
      2 C2          1.1695    2.0865    0.0021 C.ar      1 <0>        -0.1485
      3 C3          2.3802    1.4093   -0.0131 C.ar      1 <0>         0.1135
      4 C4          2.3963    0.0221   -0.0206 C.ar      1 <0>        -0.1497
      5 C5          1.2074   -0.6814   -0.0130 C.ar      1 <0>        -0.0544
      6 C6          0.0021   -0.0041    0.0020 C.ar      1 <0>        -0.0989
      7 C7         -1.2934   -0.7740    0.0107 C.3       1 <0>         0.1459
      8 H1         -2.0884   -0.1596   -0.4119 H         1 <0>         0.0955
      9 C8         -1.6523   -1.1651    1.4500 C.3       1 <0>         0.0781
     10 H2         -1.6925   -0.2724    2.0742 H         1 <0>         0.0788
     11 C9         -3.0230   -1.8463    1.4351 C.3       1 <0>        -0.1047
     12 C10        -3.0563   -2.8969    0.3541 C.ar      1 <0>        -0.1928
     13 C11        -4.0412   -3.8770    0.4055 C.ar      1 <0>         0.1579
     14 C12        -4.1040   -4.8558   -0.5725 C.ar      1 <0>        -0.2038
     15 C13        -3.1812   -4.8578   -1.6080 C.ar      1 <0>         0.1578
     16 C14        -2.1992   -3.8826   -1.6593 C.ar      1 <0>        -0.1851
     17 C15        -2.1333   -2.9006   -0.6762 C.ar      1 <0>         0.1755
     18 O1         -1.1481   -1.9685   -0.7585 O.3       1 <0>        -0.2923
     19 O2         -3.2403   -5.8154   -2.5703 O.3       1 <0>        -0.4922
     20 O3         -4.9456   -3.8749    1.4197 O.3       1 <0>        -0.4923
     21 O4         -0.6705   -2.0677    1.9630 O.3       1 <0>        -0.5467
     22 O5          3.5484    2.1036   -0.0209 O.3       1 <0>        -0.4998
     23 H3         -0.9594    1.9052    0.0259 H         1 <0>         0.1284
     24 H4          1.1543    3.1664    0.0076 H         1 <0>         0.1320
     25 H5          3.3375   -0.5074   -0.0328 H         1 <0>         0.1309
     26 H6          1.2194   -1.7613   -0.0189 H         1 <0>         0.1349
     27 H7         -3.2056   -2.3150    2.4021 H         1 <0>         0.0942
     28 H8         -3.7957   -1.1023    1.2417 H         1 <0>         0.0855
     29 H9         -4.8702   -5.6158   -0.5291 H         1 <0>         0.1378
     30 H10        -1.4811   -3.8848   -2.4660 H         1 <0>         0.1406
     31 H11        -3.7933   -5.5785   -3.3274 H         1 <0>         0.3961
     32 H12        -5.7434   -3.3608    1.2342 H         1 <0>         0.3936
     33 H13        -0.8371   -2.3556    2.8710 H         1 <0>         0.3820
     34 H14         3.8951    2.3001    0.8601 H         1 <0>         0.3927
@<TRIPOS>BOND
     1    1    6 ar
     2    1    2 ar
     3    1   23 1
     4    2    3 ar
     5    2   24 1
     6    3    4 ar
     7    3   22 1
     8    4    5 ar
     9    4   25 1
    10    5    6 ar
    11    5   26 1
    12    6    7 1
    13    7    8 1
    14    7   18 1
    15    7    9 1
    16    9   10 1
    17    9   11 1
    18    9   21 1
    19   11   12 1
    20   11   27 1
    21   11   28 1
    22   12   17 ar
    23   12   13 ar
    24   13   14 ar
    25   13   20 1
    26   14   15 ar
    27   14   29 1
    28   15   16 ar
    29   15   19 1
    30   16   17 ar
    31   16   30 1
    32   17   18 1
    33   19   31 1
    34   20   32 1
    35   21   33 1
    36   22   34 1
@<TRIPOS>MOLECULE
ZINC00006787
   29    30     0     0     0
SMALL
USER_CHARGES

@<TRIPOS>ATOM
      1 C1         -0.0169    1.3936    0.0097 C.ar      1 <0>        -0.0880
      2 C2          1.1682    2.0965    0.0022 C.ar      1 <0>        -0.1444
      3 C3          2.3804    1.4185   -0.0131 C.ar      1 <0>         0.1088
      4 C4          2.4043    0.0297   -0.0212 C.ar      1 <0>        -0.1437
      5 C5          1.2244   -0.6820   -0.0142 C.ar      1 <0>        -0.0943
      6 C6          0.0021   -0.0041    0.0020 C.ar      1 <0>        -0.0701
      7 C7         -1.2624   -0.7604    0.0105 C.2       1 <0>        -0.0946
      8 C8         -1.2417   -2.1029    0.0031 C.2       1 <0>        -0.1125
      9 C9         -2.5067   -2.8595    0.0116 C.ar      1 <0>        -0.0208
     10 C10        -3.7282   -2.1821    0.0216 C.ar      1 <0>        -0.1505
     11 C11        -4.9138   -2.8974    0.0296 C.ar      1 <0>         0.1270
     12 C12        -4.8898   -4.2848    0.0277 C.ar      1 <0>        -0.1731
     13 C13        -3.6788   -4.9623    0.0183 C.ar      1 <0>         0.1263
     14 C14        -2.4878   -4.2561    0.0039 C.ar      1 <0>        -0.1438
     15 O1         -3.6617   -6.3213    0.0174 O.3       1 <0>        -0.4960
     16 O2         -6.1029   -2.2395    0.0398 O.3       1 <0>        -0.4960
     17 O3          3.5463    2.1158   -0.0204 O.3       1 <0>        -0.4996
     18 H1         -0.9588    1.9217    0.0260 H         1 <0>         0.1307
     19 H2          1.1546    3.1764    0.0077 H         1 <0>         0.1317
     20 H3          3.3492   -0.4932   -0.0334 H         1 <0>         0.1314
     21 H4          1.2440   -1.7618   -0.0209 H         1 <0>         0.1307
     22 H5         -2.2059   -0.2349    0.0227 H         1 <0>         0.1259
     23 H6         -0.2983   -2.6284   -0.0091 H         1 <0>         0.1276
     24 H7         -3.7479   -1.1023    0.0234 H         1 <0>         0.1351
     25 H8         -5.8166   -4.8392    0.0340 H         1 <0>         0.1362
     26 H9         -1.5459   -4.7843   -0.0083 H         1 <0>         0.1350
     27 H10        -3.6634   -6.7141   -0.8663 H         1 <0>         0.3942
     28 H11        -6.4539   -2.0477   -0.8406 H         1 <0>         0.3942
     29 H12         3.8923    2.3129    0.8608 H         1 <0>         0.3928
@<TRIPOS>BOND
     1    1    6 ar
     2    1    2 ar
     3    1   18 1
     4    2    3 ar
     5    2   19 1
     6    3    4 ar
     7    3   17 1
     8    4    5 ar
     9    4   20 1
    10    5    6 ar
    11    5   21 1
    12    6    7 1
    13    7    8 2
    14    7   22 1
    15    8    9 1
    16    8   23 1
    17    9   14 ar
    18    9   10 ar
    19   10   11 ar
    20   10   24 1
    21   11   12 ar
    22   11   16 1
    23   12   13 ar
    24   12   25 1
    25   13   14 ar
    26   13   15 1
    27   14   26 1
    28   15   27 1
    29   16   28 1
    30   17   29 1
@<TRIPOS>MOLECULE
ZINC38141759
   32    32     0     0     0
SMALL
USER_CHARGES

@<TRIPOS>ATOM
      1 C1         -0.0187    1.5258    0.0104 C.3       1 <0>        -0.1161
      2 C2          0.0021   -0.0041    0.0020 C.3       1 <0>        -0.1322
      3 H1          0.5123   -0.3556   -0.8948 H         1 <0>         0.0665
      4 C3          0.7309   -0.5033    1.2229 C.ar      1 <0>        -0.0395
      5 C4          0.2630   -0.1872    2.4847 C.ar      1 <0>        -0.1030
      6 C5          0.9315   -0.6452    3.6046 C.ar      1 <0>        -0.1208
      7 C6          2.0678   -1.4195    3.4627 C.ar      1 <0>        -0.1043
      8 C7          2.5353   -1.7363    2.2010 C.ar      1 <0>        -0.1200
      9 C8          1.8643   -1.2820    1.0811 C.ar      1 <0>        -0.1243
     10 C9          2.7973   -1.9179    4.6836 C.3       1 <0>        -0.0680
     11 C10         2.2317   -3.2785    5.0956 C.3       1 <0>        -0.0934
     12 C11         2.5261   -4.3059    4.0007 C.3       1 <0>        -0.1501
     13 C12         2.8845   -3.7270    6.4047 C.3       1 <0>        -0.1454
     14 C13        -1.4117   -0.5257    0.0127 C.2       1 <0>         0.5043
     15 O1         -1.7102   -1.4919   -0.6684 O.co2     1 <0>        -0.6985
     16 O2         -2.2571    0.0185    0.7025 O.co2     1 <0>        -0.6908
     17 H2          1.0039    1.9031    0.0027 H         1 <0>         0.0363
     18 H3         -0.5459    1.8868   -0.8726 H         1 <0>         0.0472
     19 H4         -0.5289    1.8773    0.9072 H         1 <0>         0.0598
     20 H5         -0.6248    0.4177    2.5955 H         1 <0>         0.1300
     21 H6          0.5663   -0.3977    4.5903 H         1 <0>         0.1130
     22 H7          3.4233   -2.3410    2.0902 H         1 <0>         0.1123
     23 H8          2.2274   -1.5326    0.0953 H         1 <0>         0.1149
     24 H9          3.8586   -2.0192    4.4567 H         1 <0>         0.0652
     25 H10         2.6665   -1.2077    5.5001 H         1 <0>         0.0657
     26 H11         1.1540   -3.1964    5.2365 H         1 <0>         0.0710
     27 H12         2.1232   -5.2752    4.2942 H         1 <0>         0.0494
     28 H13         2.0610   -3.9864    3.0682 H         1 <0>         0.0643
     29 H14         3.6038   -4.3880    3.8598 H         1 <0>         0.0501
     30 H15         2.6748   -2.9951    7.1847 H         1 <0>         0.0522
     31 H16         2.4816   -4.6963    6.6982 H         1 <0>         0.0523
     32 H17         3.9623   -3.8091    6.2637 H         1 <0>         0.0520
@<TRIPOS>BOND
     1    1    2 1
     2    1   17 1
     3    1   18 1
     4    1   19 1
     5    2    3 1
     6    2    4 1
     7    2   14 1
     8    4    9 ar
     9    4    5 ar
    10    5    6 ar
    11    5   20 1
    12    6    7 ar
    13    6   21 1
    14    7    8 ar
    15    7   10 1
    16    8    9 ar
    17    8   22 1
    18    9   23 1
    19   10   11 1
    20   10   24 1
    21   10   25 1
    22   11   12 1
    23   11   13 1
    24   11   26 1
    25   12   27 1
    26   12   28 1
    27   12   29 1
    28   13   30 1
    29   13   31 1
    30   13   32 1
    31   14   15 2
    32   14   16 1
@<TRIPOS>MOLECULE
ZINC00000435
   35    36     0     0     0
SMALL
USER_CHARGES

@<TRIPOS>ATOM
      1 C1         -0.0187    1.5258    0.0104 C.3       1 <0>        -0.1157
      2 C2          0.0021   -0.0041    0.0020 C.3       1 <0>        -0.1322
      3 H1          0.5123   -0.3556   -0.8948 H         1 <0>         0.0662
      4 C3          0.7309   -0.5033    1.2229 C.ar      1 <0>        -0.0348
      5 C4          0.2630   -0.1872    2.4847 C.ar      1 <0>        -0.1026
      6 C5          0.9315   -0.6452    3.6046 C.ar      1 <0>        -0.0909
      7 C6          2.0678   -1.4195    3.4627 C.ar      1 <0>        -0.1181
      8 C7          2.5353   -1.7363    2.2010 C.ar      1 <0>        -0.1191
      9 C8          1.8643   -1.2820    1.0811 C.ar      1 <0>        -0.1285
     10 C9          2.7973   -1.9179    4.6836 C.3       1 <0>        -0.0548
     11 C10         2.2317   -3.2785    5.0956 C.3       1 <0>        -0.1478
     12 H2          2.2662   -3.9671    4.2514 H         1 <0>         0.1016
     13 C11         3.0428   -3.8510    6.2765 C.3       1 <0>        -0.1160
     14 C12         1.9720   -4.5421    7.1583 C.3       1 <0>        -0.1202
     15 C13         0.7636   -3.5824    7.0245 C.3       1 <0>        -0.1843
     16 C14         0.8045   -3.1214    5.5774 C.2       1 <0>         0.3575
     17 O1         -0.1274   -2.7064    4.9312 O.2       1 <0>        -0.4118
     18 C15        -1.4117   -0.5257    0.0127 C.2       1 <0>         0.5045
     19 O2         -1.7102   -1.4919   -0.6684 O.co2     1 <0>        -0.6991
     20 O3         -2.2571    0.0185    0.7025 O.co2     1 <0>        -0.6898
     21 H3          1.0039    1.9031    0.0027 H         1 <0>         0.0360
     22 H4         -0.5459    1.8868   -0.8726 H         1 <0>         0.0470
     23 H5         -0.5289    1.8773    0.9072 H         1 <0>         0.0597
     24 H6         -0.6248    0.4177    2.5955 H         1 <0>         0.1286
     25 H7          0.5663   -0.3977    4.5903 H         1 <0>         0.1074
     26 H8          3.4233   -2.3410    2.0902 H         1 <0>         0.1113
     27 H9          2.2274   -1.5326    0.0953 H         1 <0>         0.1144
     28 H10         3.8586   -2.0192    4.4567 H         1 <0>         0.0772
     29 H11         2.6665   -1.2077    5.5001 H         1 <0>         0.0684
     30 H12         3.7742   -4.5775    5.9223 H         1 <0>         0.0743
     31 H13         3.5340   -3.0494    6.8281 H         1 <0>         0.0747
     32 H14         1.7274   -5.5301    6.7683 H         1 <0>         0.0724
     33 H15         2.3045   -4.6046    8.1945 H         1 <0>         0.0759
     34 H16        -0.1672   -4.1115    7.2290 H         1 <0>         0.0884
     35 H17         0.8757   -2.7330    7.6983 H         1 <0>         0.1001
@<TRIPOS>BOND
     1    1    2 1
     2    1   21 1
     3    1   22 1
     4    1   23 1
     5    2    3 1
     6    2    4 1
     7    2   18 1
     8    4    9 ar
     9    4    5 ar
    10    5    6 ar
    11    5   24 1
    12    6    7 ar
    13    6   25 1
    14    7    8 ar
    15    7   10 1
    16    8    9 ar
    17    8   26 1
    18    9   27 1
    19   10   11 1
    20   10   28 1
    21   10   29 1
    22   11   12 1
    23   11   16 1
    24   11   13 1
    25   13   14 1
    26   13   30 1
    27   13   31 1
    28   14   15 1
    29   14   32 1
    30   14   33 1
    31   15   16 1
    32   15   34 1
    33   15   35 1
    34   16   17 2
    35   18   19 2
    36   18   20 1
@<TRIPOS>MOLECULE
ZINC01846128
   35    36     0     0     0
SMALL
USER_CHARGES

@<TRIPOS>ATOM
      1 C1         -0.0187    1.5258    0.0104 C.3       1 <0>        -0.1169
      2 C2          0.0021   -0.0041    0.0020 C.3       1 <0>        -0.1343
      3 H1          0.5123   -0.3556   -0.8948 H         1 <0>         0.0684
      4 C3         -1.4117   -0.5257    0.0127 C.ar      1 <0>        -0.0236
      5 C4         -2.2591   -0.2043    1.0565 C.ar      1 <0>        -0.0782
      6 C5         -3.5560   -0.6827    1.0663 C.ar      1 <0>        -0.0918
      7 C6         -4.0056   -1.4823    0.0321 C.ar      1 <0>        -0.1184
      8 C7         -3.1585   -1.8029   -1.0121 C.ar      1 <0>        -0.1206
      9 C8         -1.8629   -1.3209   -1.0241 C.ar      1 <0>        -0.1340
     10 C9         -5.4191   -2.0047    0.0433 C.3       1 <0>        -0.0556
     11 C10        -6.3366   -1.0086   -0.6687 C.3       1 <0>        -0.1462
     12 H2         -5.9538   -0.7979   -1.6673 H         1 <0>         0.1010
     13 C11        -7.7659   -1.5820   -0.7620 C.3       1 <0>        -0.1173
     14 C12        -8.6740   -0.3453   -0.5433 C.3       1 <0>        -0.1201
     15 C13        -7.8857    0.4602    0.5193 C.3       1 <0>        -0.1848
     16 C14        -6.4286    0.2738    0.1316 C.2       1 <0>         0.3618
     17 O1         -5.5133    1.0108    0.4100 O.2       1 <0>        -0.4188
     18 C15         0.7309   -0.5033    1.2229 C.2       1 <0>         0.5005
     19 O2          0.1557   -1.2165    2.0272 O.co2     1 <0>        -0.6864
     20 O3          1.8959   -0.1939    1.4064 O.co2     1 <0>        -0.7004
     21 H3          1.0039    1.9031    0.0027 H         1 <0>         0.0584
     22 H4         -0.5459    1.8868   -0.8726 H         1 <0>         0.0394
     23 H5         -0.5289    1.8773    0.9072 H         1 <0>         0.0472
     24 H6         -1.9079    0.4204    1.8645 H         1 <0>         0.1136
     25 H7         -4.2179   -0.4322    1.8822 H         1 <0>         0.1049
     26 H8         -3.5096   -2.4278   -1.8199 H         1 <0>         0.1090
     27 H9         -1.2022   -1.5684   -1.8418 H         1 <0>         0.1106
     28 H10        -5.4557   -2.9647   -0.4717 H         1 <0>         0.0774
     29 H11        -5.7512   -2.1322    1.0737 H         1 <0>         0.0685
     30 H12        -7.9408   -2.0162   -1.7464 H         1 <0>         0.0745
     31 H13        -7.9331   -2.3230    0.0197 H         1 <0>         0.0755
     32 H14        -8.7781    0.2271   -1.4650 H         1 <0>         0.0719
     33 H15        -9.6492   -0.6436   -0.1587 H         1 <0>         0.0761
     34 H16        -8.1586    1.5146    0.4773 H         1 <0>         0.0877
     35 H17        -8.0694    0.0578    1.5155 H         1 <0>         0.1009
@<TRIPOS>BOND
     1    1    2 1
     2    1   21 1
     3    1   22 1
     4    1   23 1
     5    2    3 1
     6    2    4 1
     7    2   18 1
     8    4    9 ar
     9    4    5 ar
    10    5    6 ar
    11    5   24 1
    12    6    7 ar
    13    6   25 1
    14    7    8 ar
    15    7   10 1
    16    8    9 ar
    17    8   26 1
    18    9   27 1
    19   10   11 1
    20   10   28 1
    21   10   29 1
    22   11   12 1
    23   11   16 1
    24   11   13 1
    25   13   14 1
    26   13   30 1
    27   13   31 1
    28   14   15 1
    29   14   32 1
    30   14   33 1
    31   15   16 1
    32   15   34 1
    33   15   35 1
    34   16   17 2
    35   18   19 2
    36   18   20 1
@<TRIPOS>MOLECULE
ZINC01846129
   35    36     0     0     0
SMALL
USER_CHARGES

@<TRIPOS>ATOM
      1 C1         -0.0187    1.5258    0.0104 C.3       1 <0>        -0.1154
      2 C2          0.0021   -0.0041    0.0020 C.3       1 <0>        -0.1324
      3 H1          0.5123   -0.3556   -0.8948 H         1 <0>         0.0663
      4 C3          0.7309   -0.5033    1.2229 C.ar      1 <0>        -0.0344
      5 C4          0.2630   -0.1872    2.4847 C.ar      1 <0>        -0.1078
      6 C5          0.9315   -0.6452    3.6046 C.ar      1 <0>        -0.1174
      7 C6          2.0678   -1.4195    3.4627 C.ar      1 <0>        -0.1183
      8 C7          2.5353   -1.7363    2.2010 C.ar      1 <0>        -0.0922
      9 C8          1.8643   -1.2820    1.0811 C.ar      1 <0>        -0.1236
     10 C9          2.7973   -1.9179    4.6836 C.3       1 <0>        -0.0545
     11 C10         2.2317   -3.2785    5.0956 C.3       1 <0>        -0.1486
     12 H2          1.1519   -3.2086    5.2268 H         1 <0>         0.1029
     13 C11         2.8928   -3.7489    6.4078 C.3       1 <0>        -0.1162
     14 C12         3.0530   -5.2780    6.2121 C.3       1 <0>        -0.1204
     15 C13         3.4096   -5.3835    4.7085 C.3       1 <0>        -0.1841
     16 C14         2.5590   -4.3157    4.0417 C.2       1 <0>         0.3602
     17 O1          2.2085   -4.2972    2.8862 O.2       1 <0>        -0.4162
     18 C15        -1.4117   -0.5257    0.0127 C.2       1 <0>         0.5047
     19 O2         -1.7102   -1.4919   -0.6684 O.co2     1 <0>        -0.6977
     20 O3         -2.2571    0.0185    0.7025 O.co2     1 <0>        -0.6917
     21 H3          1.0039    1.9031    0.0027 H         1 <0>         0.0360
     22 H4         -0.5459    1.8868   -0.8726 H         1 <0>         0.0469
     23 H5         -0.5289    1.8773    0.9072 H         1 <0>         0.0597
     24 H6         -0.6248    0.4177    2.5955 H         1 <0>         0.1296
     25 H7          0.5663   -0.3977    4.5903 H         1 <0>         0.1125
     26 H8          3.4233   -2.3410    2.0902 H         1 <0>         0.1064
     27 H9          2.2274   -1.5326    0.0953 H         1 <0>         0.1135
     28 H10         3.8586   -2.0192    4.4567 H         1 <0>         0.0678
     29 H11         2.6665   -1.2077    5.5001 H         1 <0>         0.0780
     30 H12         3.8660   -3.2754    6.5375 H         1 <0>         0.0747
     31 H13         2.2464   -3.5375    7.2596 H         1 <0>         0.0750
     32 H14         3.8627   -5.6653    6.8306 H         1 <0>         0.0760
     33 H15         2.1183   -5.7962    6.4261 H         1 <0>         0.0728
     34 H16         4.4688   -5.1789    4.5531 H         1 <0>         0.0999
     35 H17         3.1512   -6.3703    4.3243 H         1 <0>         0.0881
@<TRIPOS>BOND
     1    1    2 1
     2    1   21 1
     3    1   22 1
     4    1   23 1
     5    2    3 1
     6    2    4 1
     7    2   18 1
     8    4    9 ar
     9    4    5 ar
    10    5    6 ar
    11    5   24 1
    12    6    7 ar
    13    6   25 1
    14    7    8 ar
    15    7   10 1
    16    8    9 ar
    17    8   26 1
    18    9   27 1
    19   10   11 1
    20   10   28 1
    21   10   29 1
    22   11   12 1
    23   11   16 1
    24   11   13 1
    25   13   14 1
    26   13   30 1
    27   13   31 1
    28   14   15 1
    29   14   32 1
    30   14   33 1
    31   15   16 1
    32   15   34 1
    33   15   35 1
    34   16   17 2
    35   18   19 2
    36   18   20 1
@<TRIPOS>MOLECULE
ZINC01846130
   35    36     0     0     0
SMALL
USER_CHARGES

@<TRIPOS>ATOM
      1 C1         -0.0187    1.5258    0.0104 C.3       1 <0>        -0.1167
      2 C2          0.0021   -0.0041    0.0020 C.3       1 <0>        -0.1347
      3 H1          0.5123   -0.3556   -0.8948 H         1 <0>         0.0686
      4 C3         -1.4117   -0.5257    0.0127 C.ar      1 <0>        -0.0231
      5 C4         -2.2591   -0.2043    1.0565 C.ar      1 <0>        -0.0837
      6 C5         -3.5560   -0.6827    1.0663 C.ar      1 <0>        -0.1189
      7 C6         -4.0056   -1.4823    0.0321 C.ar      1 <0>        -0.1187
      8 C7         -3.1585   -1.8029   -1.0121 C.ar      1 <0>        -0.0931
      9 C8         -1.8629   -1.3209   -1.0241 C.ar      1 <0>        -0.1290
     10 C9         -5.4191   -2.0047    0.0433 C.3       1 <0>        -0.0554
     11 C10        -6.3366   -1.0086   -0.6687 C.3       1 <0>        -0.1467
     12 H2         -6.2300   -0.0198   -0.2227 H         1 <0>         0.1018
     13 C11        -7.8030   -1.4773   -0.5676 C.3       1 <0>        -0.1174
     14 C12        -8.4060   -1.1002   -1.9446 C.3       1 <0>        -0.1202
     15 C13        -7.2299   -1.3876   -2.9107 C.3       1 <0>        -0.1847
     16 C14        -5.9937   -0.9514   -2.1427 C.2       1 <0>         0.3629
     17 O1         -4.9345   -0.6202   -2.6187 O.2       1 <0>        -0.4205
     18 C15         0.7309   -0.5033    1.2229 C.2       1 <0>         0.5006
     19 O2          0.1557   -1.2165    2.0272 O.co2     1 <0>        -0.6866
     20 O3          1.8959   -0.1939    1.4064 O.co2     1 <0>        -0.7003
     21 H3          1.0039    1.9031    0.0027 H         1 <0>         0.0585
     22 H4         -0.5459    1.8868   -0.8726 H         1 <0>         0.0397
     23 H5         -0.5289    1.8773    0.9072 H         1 <0>         0.0466
     24 H6         -1.9079    0.4204    1.8645 H         1 <0>         0.1147
     25 H7         -4.2179   -0.4322    1.8822 H         1 <0>         0.1101
     26 H8         -3.5096   -2.4278   -1.8199 H         1 <0>         0.1039
     27 H9         -1.2022   -1.5684   -1.8418 H         1 <0>         0.1097
     28 H10        -5.4557   -2.9647   -0.4717 H         1 <0>         0.0676
     29 H11        -5.7512   -2.1322    1.0737 H         1 <0>         0.0783
     30 H12        -7.8508   -2.5548   -0.4107 H         1 <0>         0.0754
     31 H13        -8.3194   -0.9493    0.2341 H         1 <0>         0.0751
     32 H14        -9.2631   -1.7318   -2.1786 H         1 <0>         0.0761
     33 H15        -8.6812   -0.0458   -1.9717 H         1 <0>         0.0721
     34 H16        -7.1789   -2.4515   -3.1424 H         1 <0>         0.1005
     35 H17        -7.3362   -0.8028   -3.8243 H         1 <0>         0.0875
@<TRIPOS>BOND
     1    1    2 1
     2    1   21 1
     3    1   22 1
     4    1   23 1
     5    2    3 1
     6    2    4 1
     7    2   18 1
     8    4    9 ar
     9    4    5 ar
    10    5    6 ar
    11    5   24 1
    12    6    7 ar
    13    6   25 1
    14    7    8 ar
    15    7   10 1
    16    8    9 ar
    17    8   26 1
    18    9   27 1
    19   10   11 1
    20   10   28 1
    21   10   29 1
    22   11   12 1
    23   11   16 1
    24   11   13 1
    25   13   14 1
    26   13   30 1
    27   13   31 1
    28   14   15 1
    29   14   32 1
    30   14   33 1
    31   15   16 1
    32   15   34 1
    33   15   35 1
    34   16   17 2
    35   18   19 2
    36   18   20 1
@<TRIPOS>MOLECULE
ZINC11678783
   47    48     0     0     0
SMALL
USER_CHARGES
(5E)-2-amino-5-[(3,5-ditert-butyl-4-hydroxy-phenyl)methylene]thiazol-4-one
@<TRIPOS>ATOM
      1 C1          0.3555   -2.5483    0.0833 C.3       1 <0>        -0.1485
      2 C2          1.6764   -1.8707   -0.2868 C.3       1 <0>        -0.0117
      3 C3          2.1617   -2.4025   -1.6368 C.3       1 <0>        -0.1415
      4 C4          2.7234   -2.1738    0.7870 C.3       1 <0>        -0.1424
      5 C5          1.4682   -0.3810   -0.3791 C.ar      1 <0>        -0.1251
      6 C6          0.2228    0.1546   -0.1411 C.ar      1 <0>        -0.0502
      7 C7          0.0308    1.5392   -0.2272 C.ar      1 <0>        -0.1375
      8 C8          1.1084    2.3714   -0.5555 C.ar      1 <0>        -0.0027
      9 C9          2.3495    1.8249   -0.7916 C.ar      1 <0>        -0.1758
     10 C10         2.5343    0.4497   -0.7051 C.ar      1 <0>         0.2002
     11 O1          3.7604   -0.0839   -0.9393 O.3       1 <0>        -0.5052
     12 C11         3.5100    2.7189   -1.1454 C.3       1 <0>        -0.0245
     13 C12         3.0417    4.1752   -1.1736 C.3       1 <0>        -0.1445
     14 C13         4.6148    2.5586   -0.0991 C.3       1 <0>        -0.1536
     15 C14         4.0516    2.3305   -2.5226 C.3       1 <0>        -0.1544
     16 C15        -1.2968    2.1158    0.0197 C.2       1 <0>         0.0720
     17 C16        -1.4132    3.2838    0.7007 C.2       1 <0>        -0.2457
     18 C17        -0.3837    4.0696    1.4205 C.2       1 <0>         0.5436
     19 O2          0.7806    3.7073    1.4763 O.2       1 <0>        -0.4538
     20 N1         -0.7927    5.1808    1.9923 N.2       1 <0>        -0.6702
     21 C18        -2.0535    5.5810    1.9459 C.2       1 <0>         0.5060
     22 S1         -2.8541    4.3035    0.9884 S.3       1 <0>        -0.0767
     23 N2         -2.6100    6.7036    2.4990 N.pl3     1 <0>        -0.7841
     24 H1          0.0066   -2.1659    1.0539 H         1 <0>         0.0573
     25 H2          0.5075   -3.6357    0.1507 H         1 <0>         0.0589
     26 H3         -0.3972   -2.3304   -0.6887 H         1 <0>         0.0578
     27 H4          3.1114   -1.9153   -1.9029 H         1 <0>         0.0709
     28 H5          1.4089   -2.1846   -2.4087 H         1 <0>         0.0499
     29 H6          2.3137   -3.4899   -1.5694 H         1 <0>         0.0534
     30 H7          3.6731   -1.6867    0.5210 H         1 <0>         0.0709
     31 H8          2.8753   -3.2612    0.8544 H         1 <0>         0.0534
     32 H9          2.3745   -1.7915    1.7576 H         1 <0>         0.0499
     33 H10        -0.6049   -0.4917    0.1114 H         1 <0>         0.1342
     34 H11         0.9659    3.4398   -0.6233 H         1 <0>         0.1297
     35 H12         4.6053    0.5715   -1.1974 H         1 <0>         0.4222
     36 H13         3.8887    4.8278   -1.4318 H         1 <0>         0.0585
     37 H14         2.6523    4.4544   -0.1834 H         1 <0>         0.0699
     38 H15         2.2474    4.2904   -1.9258 H         1 <0>         0.0552
     39 H16         5.4618    3.2111   -0.3574 H         1 <0>         0.0656
     40 H17         4.9514    1.5116   -0.0788 H         1 <0>         0.0568
     41 H18         4.2254    2.8378    0.8910 H         1 <0>         0.0689
     42 H19         4.8987    2.9830   -2.7808 H         1 <0>         0.0667
     43 H20         3.2573    2.4458   -3.2748 H         1 <0>         0.0644
     44 H21         4.3882    1.2835   -2.5023 H         1 <0>         0.0581
     45 H22        -2.1970    1.6011   -0.3473 H         1 <0>         0.1462
     46 H23        -3.6844    6.9036    2.3740 H         1 <0>         0.4553
     47 H24        -1.9825    7.4052    3.0683 H         1 <0>         0.4527
@<TRIPOS>BOND
     1    1    2 1
     2    1   24 1
     3    1   25 1
     4    1   26 1
     5    2    3 1
     6    2    4 1
     7    2    5 1
     8    3   27 1
     9    3   28 1
    10    3   29 1
    11    4   30 1
    12    4   31 1
    13    4   32 1
    14    5   10 ar
    15    5    6 ar
    16    6    7 ar
    17    6   33 1
    18    7    8 ar
    19    7   16 1
    20    8    9 ar
    21    8   34 1
    22    9   10 ar
    23    9   12 1
    24   10   11 1
    25   11   35 1
    26   12   13 1
    27   12   14 1
    28   12   15 1
    29   13   36 1
    30   13   37 1
    31   13   38 1
    32   14   39 1
    33   14   40 1
    34   14   41 1
    35   15   42 1
    36   15   43 1
    37   15   44 1
    38   16   17 2
    39   16   45 1
    40   17   22 1
    41   17   18 1
    42   18   19 2
    43   18   20 1
    44   20   21 2
    45   21   22 1
    46   21   23 1
    47   23   46 1
    48   23   47 1
@<TRIPOS>MOLECULE
ZINC13817033
   62    63     0     0     0
SMALL
USER_CHARGES
(E)-1-[2,4-dihydroxy-3-[(2R)-2-isopropenyl-5-methyl-hex-4-enyl]-6-methoxy-phenyl]-3-(2,4-dihydroxyphenyl)prop-2-en-1-one
@<TRIPOS>ATOM
      1 C1         -9.4739   -1.7996    0.5743 C.3       1 <0>        -0.1201
      2 C2         -9.6410   -0.3110    0.4095 C.2       1 <0>        -0.1385
      3 C3         -8.9451    0.5125    1.1536 C.2       1 <0>        -0.1564
      4 C4         -8.0858   -0.0233    2.2696 C.3       1 <0>        -0.0882
      5 C5         -6.6395    0.4309    2.0628 C.3       1 <0>        -0.0385
      6 H1         -6.3022    0.1290    1.0712 H         1 <0>         0.0774
      7 C6         -5.7457   -0.2142    3.1239 C.3       1 <0>        -0.0556
      8 C7         -4.3049    0.1251    2.8408 C.ar      1 <0>        -0.1622
      9 C8         -3.5744   -0.6466    1.9460 C.ar      1 <0>         0.1789
     10 C9         -2.2461   -0.3423    1.6782 C.ar      1 <0>        -0.2493
     11 C10        -1.6400    0.7334    2.3012 C.ar      1 <0>         0.1872
     12 C11        -2.3698    1.5154    3.2105 C.ar      1 <0>        -0.2173
     13 C12        -3.7138    1.2039    3.4720 C.ar      1 <0>         0.2049
     14 O1         -4.4290    1.9565    4.3456 O.3       1 <0>        -0.4771
     15 C13        -1.7310    2.6588    3.8823 C.2       1 <0>         0.4559
     16 O2         -1.0937    2.4855    4.9065 O.2       1 <0>        -0.4538
     17 C14        -1.8571    3.9623    3.3376 C.2       1 <0>        -0.2294
     18 C15        -1.3571    5.0263    4.0067 C.2       1 <0>         0.0030
     19 C16        -1.4876    6.3743    3.4434 C.ar      1 <0>        -0.1194
     20 C17        -2.1241    6.5631    2.2100 C.ar      1 <0>        -0.0618
     21 C18        -2.2483    7.8192    1.6897 C.ar      1 <0>        -0.1568
     22 C19        -1.7364    8.9184    2.3733 C.ar      1 <0>         0.1410
     23 C20        -1.0981    8.7493    3.5937 C.ar      1 <0>        -0.1779
     24 C21        -0.9692    7.4826    4.1360 C.ar      1 <0>         0.1533
     25 O3         -0.3456    7.3111    5.3288 O.3       1 <0>        -0.4899
     26 O4         -1.8618   10.1617    1.8433 O.3       1 <0>        -0.4953
     27 O5         -0.3421    1.0288    2.0386 O.3       1 <0>        -0.3085
     28 C22         0.3395    0.1860    1.1074 C.3       1 <0>         0.0252
     29 O6         -4.1619   -1.7039    1.3305 O.3       1 <0>        -0.4882
     30 C23        -6.5617    1.9309    2.1848 C.2       1 <0>        -0.0942
     31 C24        -6.0185    2.6388    1.2256 C.2       1 <0>        -0.2045
     32 C25        -7.1088    2.6166    3.4102 C.3       1 <0>        -0.1132
     33 C26       -10.6085    0.2303   -0.6112 C.3       1 <0>        -0.1170
     34 H2        -10.1201   -2.1509    1.3787 H         1 <0>         0.0637
     35 H3         -9.7453   -2.3007   -0.3549 H         1 <0>         0.0595
     36 H4         -8.4355   -2.0239    0.8182 H         1 <0>         0.0676
     37 H5         -8.9872    1.5755    0.9673 H         1 <0>         0.1073
     38 H6         -8.1281   -1.1125    2.2698 H         1 <0>         0.0736
     39 H7         -8.4524    0.3547    3.2240 H         1 <0>         0.0736
     40 H8         -5.8757   -1.2961    3.0995 H         1 <0>         0.0732
     41 H9         -6.0210    0.1628    4.1088 H         1 <0>         0.0758
     42 H10        -1.6850   -0.9472    0.9813 H         1 <0>         0.1416
     43 H11        -4.3819    1.6479    5.2608 H         1 <0>         0.3947
     44 H12        -2.3524    4.1053    2.3885 H         1 <0>         0.1313
     45 H13        -0.8619    4.8832    4.9558 H         1 <0>         0.1395
     46 H14        -2.5202    5.7146    1.6718 H         1 <0>         0.1385
     47 H15        -2.7428    7.9604    0.7400 H         1 <0>         0.1367
     48 H16        -0.7021    9.6054    4.1198 H         1 <0>         0.1410
     49 H17         0.6070    7.1615    5.2567 H         1 <0>         0.3977
     50 H18        -1.1262   10.4218    1.2721 H         1 <0>         0.3967
     51 H19         0.3417   -0.8387    1.4788 H         1 <0>         0.0597
     52 H20         1.3664    0.5316    0.9886 H         1 <0>         0.1053
     53 H21        -0.1698    0.2223    0.1443 H         1 <0>         0.0605
     54 H22        -4.0127   -2.5500    1.7742 H         1 <0>         0.3952
     55 H23        -5.9628    3.7138    1.3131 H         1 <0>         0.0920
     56 H24        -5.6264    2.1474    0.3475 H         1 <0>         0.0889
     57 H25        -7.4432    1.8669    4.1272 H         1 <0>         0.0569
     58 H26        -6.3289    3.2294    3.8623 H         1 <0>         0.0739
     59 H27        -7.9499    3.2495    3.1273 H         1 <0>         0.0564
     60 H28       -10.5924    1.3199   -0.5852 H         1 <0>         0.0591
     61 H29       -10.3193   -0.1137   -1.6042 H         1 <0>         0.0622
     62 H30       -11.6138   -0.1238   -0.3825 H         1 <0>         0.0645
@<TRIPOS>BOND
     1    1    2 1
     2    1   34 1
     3    1   35 1
     4    1   36 1
     5    2    3 2
     6    2   33 1
     7    3    4 1
     8    3   37 1
     9    4    5 1
    10    4   38 1
    11    4   39 1
    12    5    6 1
    13    5    7 1
    14    5   30 1
    15    7    8 1
    16    7   40 1
    17    7   41 1
    18    8   13 ar
    19    8    9 ar
    20    9   10 ar
    21    9   29 1
    22   10   11 ar
    23   10   42 1
    24   11   12 ar
    25   11   27 1
    26   12   13 ar
    27   12   15 1
    28   13   14 1
    29   14   43 1
    30   15   16 2
    31   15   17 1
    32   17   18 2
    33   17   44 1
    34   18   19 1
    35   18   45 1
    36   19   24 ar
    37   19   20 ar
    38   20   21 ar
    39   20   46 1
    40   21   22 ar
    41   21   47 1
    42   22   23 ar
    43   22   26 1
    44   23   24 ar
    45   23   48 1
    46   24   25 1
    47   25   49 1
    48   26   50 1
    49   27   28 1
    50   28   51 1
    51   28   52 1
    52   28   53 1
    53   29   54 1
    54   30   31 2
    55   30   32 1
    56   31   55 1
    57   31   56 1
    58   32   57 1
    59   32   58 1
    60   32   59 1
    61   33   60 1
    62   33   61 1
    63   33   62 1
@<TRIPOS>MOLECULE
ZINC13441230
   55    57     0     0     0
SMALL
USER_CHARGES
2-[1-(4-chlorobenzoyl)-5-methoxy-2-methyl-indol-3-yl]-N-[(1R)-2-methoxy-1-methyl-ethyl]acetamide
@<TRIPOS>ATOM
      1 C1         -1.1865   -3.5156   -0.0080 C.3       1 <0>        -0.1030
      2 C2         -0.4223   -2.2168   -0.0066 C.2       1 <0>         0.1172
      3 C3          0.9137   -2.1098   -0.0185 C.2       1 <0>        -0.1390
      4 C4          1.2335   -0.6781   -0.0121 C.ar      1 <0>        -0.0355
      5 C5          2.4265    0.0461   -0.0186 C.ar      1 <0>        -0.1097
      6 C6          2.3869    1.4270   -0.0091 C.ar      1 <0>         0.1116
      7 C7          1.1648    2.0931    0.0076 C.ar      1 <0>        -0.1757
      8 C8         -0.0184    1.3870    0.0136 C.ar      1 <0>        -0.0836
      9 C9          0.0015   -0.0022    0.0039 C.ar      1 <0>         0.0770
     10 N1         -0.9915   -0.9666    0.0069 N.am      1 <0>        -0.5050
     11 C10        -2.3158   -0.7168    0.0210 C.2       1 <0>         0.6030
     12 O1         -2.9198   -0.7002    1.0753 O.2       1 <0>        -0.4286
     13 C11        -3.0329   -0.4635   -1.2447 C.ar      1 <0>        -0.1659
     14 C12        -2.3637   -0.5800   -2.4652 C.ar      1 <0>        -0.0418
     15 C13        -3.0404   -0.3482   -3.6440 C.ar      1 <0>        -0.1207
     16 C14        -4.3780    0.0112   -3.6189 C.ar      1 <0>         0.0038
     17 C15        -5.0456    0.1344   -2.4114 C.ar      1 <0>        -0.1235
     18 C16        -4.3816   -0.1008   -1.2262 C.ar      1 <0>        -0.0383
     19 Cl1        -5.2213    0.3079   -5.1070 Cl        1 <0>        -0.0526
     20 O2          3.5459    2.1380   -0.0153 O.3       1 <0>        -0.3169
     21 C17         3.4331    3.5625   -0.0049 C.3       1 <0>         0.0272
     22 C18         1.9022   -3.2472   -0.0348 C.3       1 <0>        -0.0663
     23 C19         2.2188   -3.6172   -1.4610 C.2       1 <0>         0.5145
     24 O3          1.6935   -3.0164   -2.3742 O.2       1 <0>        -0.5280
     25 N2          3.0857   -4.6157   -1.7215 N.am      1 <0>        -0.7265
     26 C20         3.3935   -4.9753   -3.1080 C.3       1 <0>         0.1474
     27 H1          3.3917   -4.0770   -3.7253 H         1 <0>         0.0995
     28 C21         2.3379   -5.9534   -3.6275 C.3       1 <0>        -0.1592
     29 C22         4.7732   -5.6338   -3.1698 C.3       1 <0>         0.0503
     30 O4          4.7428   -6.8714   -2.4560 O.3       1 <0>        -0.3881
     31 C23         5.9889   -7.5709   -2.4522 C.3       1 <0>         0.0306
     32 H2         -1.3808   -3.8218   -1.0359 H         1 <0>         0.0855
     33 H3         -0.5988   -4.2835    0.4950 H         1 <0>         0.0919
     34 H4         -2.1328   -3.3809    0.5160 H         1 <0>         0.0696
     35 H5          3.3751   -0.4700   -0.0312 H         1 <0>         0.1320
     36 H6          1.1438    3.1729    0.0152 H         1 <0>         0.1350
     37 H7         -0.9614    1.9135    0.0214 H         1 <0>         0.1220
     38 H8         -1.3197   -0.8557   -2.4858 H         1 <0>         0.1448
     39 H9         -2.5254   -0.4429   -4.5885 H         1 <0>         0.1450
     40 H10        -6.0884    0.4149   -2.3984 H         1 <0>         0.1462
     41 H11        -4.9033   -0.0052   -0.2854 H         1 <0>         0.1475
     42 H12         4.4289    4.0058   -0.0114 H         1 <0>         0.1002
     43 H13         2.8839    3.8900   -0.8877 H         1 <0>         0.0551
     44 H14         2.9006    3.8783    0.8922 H         1 <0>         0.0551
     45 H15         2.8169   -2.9410    0.4728 H         1 <0>         0.1048
     46 H16         1.4734   -4.1086    0.4774 H         1 <0>         0.1031
     47 H17         3.5058   -5.0962   -0.9911 H         1 <0>         0.4044
     48 H18         2.3398   -6.8517   -3.0102 H         1 <0>         0.0666
     49 H19         1.3550   -5.4844   -3.5835 H         1 <0>         0.0595
     50 H20         2.5670   -6.2210   -4.6591 H         1 <0>         0.0624
     51 H21         5.0404   -5.8206   -4.2099 H         1 <0>         0.0651
     52 H22         5.5122   -4.9719   -2.7181 H         1 <0>         0.0572
     53 H23         6.7531   -6.9493   -1.9856 H         1 <0>         0.0423
     54 H24         5.8828   -8.4990   -1.8905 H         1 <0>         0.0878
     55 H25         6.2812   -7.7980   -3.4774 H         1 <0>         0.0425
@<TRIPOS>BOND
     1    1    2 1
     2    1   32 1
     3    1   33 1
     4    1   34 1
     5    2   10 1
     6    2    3 2
     7    3    4 1
     8    3   22 1
     9    4    9 ar
    10    4    5 ar
    11    5    6 ar
    12    5   35 1
    13    6    7 ar
    14    6   20 1
    15    7    8 ar
    16    7   36 1
    17    8    9 ar
    18    8   37 1
    19    9   10 1
    20   10   11 am
    21   11   12 2
    22   11   13 1
    23   13   18 ar
    24   13   14 ar
    25   14   15 ar
    26   14   38 1
    27   15   16 ar
    28   15   39 1
    29   16   17 ar
    30   16   19 1
    31   17   18 ar
    32   17   40 1
    33   18   41 1
    34   20   21 1
    35   21   42 1
    36   21   43 1
    37   21   44 1
    38   22   23 1
    39   22   45 1
    40   22   46 1
    41   23   24 2
    42   23   25 am
    43   25   26 1
    44   25   47 1
    45   26   27 1
    46   26   28 1
    47   26   29 1
    48   28   48 1
    49   28   49 1
    50   28   50 1
    51   29   30 1
    52   29   51 1
    53   29   52 1
    54   30   31 1
    55   31   53 1
    56   31   54 1
    57   31   55 1
@<TRIPOS>MOLECULE
ZINC14711629
   62    64     0     0     0
SMALL
USER_CHARGES
(2S)-2-(2,4-dihydroxyphenyl)-7-hydroxy-8-[(2R)-2-isopropenyl-5-methyl-hex-4-enyl]-5-methoxy-chroman-4-one
@<TRIPOS>ATOM
      1 C1          6.6800    4.2333    3.4176 C.3       1 <0>        -0.1174
      2 C2          7.4033    3.5596    2.2801 C.2       1 <0>        -0.1366
      3 C3          7.2441    2.2762    2.0712 C.2       1 <0>        -0.1589
      4 C4          6.2523    1.4960    2.8952 C.3       1 <0>        -0.0856
      5 C5          5.2804    0.7654    1.9664 C.3       1 <0>        -0.0382
      6 H1          4.8150    1.4829    1.2905 H         1 <0>         0.0736
      7 C6          4.1994    0.0751    2.8005 C.3       1 <0>        -0.0520
      8 C7          3.1601   -0.5178    1.8843 C.ar      1 <0>        -0.1829
      9 C8          3.2453   -1.8540    1.5133 C.ar      1 <0>         0.2289
     10 C9          2.2962   -2.4174    0.6698 C.ar      1 <0>        -0.2820
     11 C10         1.2529   -1.6468    0.1876 C.ar      1 <0>         0.2319
     12 C11         1.1641   -0.2953    0.5555 C.ar      1 <0>        -0.2939
     13 C12         2.1246    0.2703    1.4149 C.ar      1 <0>         0.2346
     14 O1          2.0417    1.5693    1.7867 O.3       1 <0>        -0.2927
     15 C13         1.3021    2.4716    0.9643 C.3       1 <0>         0.1493
     16 H2          1.8153    2.5989    0.0111 H         1 <0>         0.0973
     17 C14        -0.1020    1.9002    0.7180 C.3       1 <0>        -0.1816
     18 C15         0.0746    0.5478    0.0512 C.2       1 <0>         0.4029
     19 O2         -0.6484    0.1829   -0.8530 O.2       1 <0>        -0.4277
     20 C16         1.1880    3.8051    1.6569 C.ar      1 <0>        -0.1268
     21 C17         1.2570    3.8753    3.0353 C.ar      1 <0>        -0.0581
     22 C18         1.1584    5.0970    3.6729 C.ar      1 <0>        -0.1536
     23 C19         0.9785    6.2559    2.9306 C.ar      1 <0>         0.1331
     24 C20         0.9034    6.1875    1.5482 C.ar      1 <0>        -0.1712
     25 C21         1.0083    4.9608    0.9104 C.ar      1 <0>         0.1415
     26 O3          0.9355    4.8906   -0.4448 O.3       1 <0>        -0.4929
     27 O4          0.8756    7.4567    3.5586 O.3       1 <0>        -0.4959
     28 O5          0.3230   -2.1936   -0.6342 O.3       1 <0>        -0.2858
     29 C22         0.4804   -3.5751   -0.9638 C.3       1 <0>         0.0209
     30 O6          4.2662   -2.6163    1.9794 O.3       1 <0>        -0.4813
     31 C23         6.0314   -0.2661    1.1645 C.2       1 <0>        -0.0949
     32 C24         5.9490   -0.2665   -0.1429 C.2       1 <0>        -0.2047
     33 C25         6.8771   -1.2970    1.8666 C.3       1 <0>        -0.1119
     34 C26         8.3098    4.3622    1.3829 C.3       1 <0>        -0.1170
     35 H3          7.0354    3.8281    4.3650 H         1 <0>         0.0645
     36 H4          6.8724    5.3057    3.3861 H         1 <0>         0.0576
     37 H5          5.6090    4.0535    3.3245 H         1 <0>         0.0664
     38 H6          7.8235    1.7772    1.3086 H         1 <0>         0.1067
     39 H7          5.6967    2.1791    3.5378 H         1 <0>         0.0730
     40 H8          6.7829    0.7692    3.5102 H         1 <0>         0.0715
     41 H9          3.7288    0.8039    3.4603 H         1 <0>         0.0770
     42 H10         4.6516   -0.7168    3.3976 H         1 <0>         0.0759
     43 H11         2.3724   -3.4578    0.3904 H         1 <0>         0.1429
     44 H12        -0.6166    2.5230    0.1286 H         1 <0>         0.0972
     45 H13        -0.6258    1.7810    1.6664 H         1 <0>         0.1139
     46 H14         1.3925    2.9741    3.6149 H         1 <0>         0.1406
     47 H15         1.2166    5.1498    4.7500 H         1 <0>         0.1361
     48 H16         0.7631    7.0881    0.9689 H         1 <0>         0.1402
     49 H17         0.0385    4.7678   -0.7847 H         1 <0>         0.3953
     50 H18        -0.0300    7.7016    3.7931 H         1 <0>         0.3957
     51 H19         0.4523   -4.1716   -0.0520 H         1 <0>         0.0598
     52 H20        -0.3282   -3.8851   -1.6258 H         1 <0>         0.1064
     53 H21         1.4370   -3.7223   -1.4650 H         1 <0>         0.0609
     54 H22         4.0738   -3.0630    2.8152 H         1 <0>         0.3966
     55 H23         6.4872   -1.0058   -0.7176 H         1 <0>         0.0918
     56 H24         5.3429    0.4723   -0.6461 H         1 <0>         0.0881
     57 H25         6.7517   -1.1968    2.9447 H         1 <0>         0.0577
     58 H26         6.5665   -2.2946    1.5558 H         1 <0>         0.0720
     59 H27         7.9249   -1.1454    1.6070 H         1 <0>         0.0565
     60 H28         8.7410    3.7092    0.6241 H         1 <0>         0.0588
     61 H29         7.7354    5.1519    0.8987 H         1 <0>         0.0645
     62 H30         9.1088    4.8060    1.9768 H         1 <0>         0.0624
@<TRIPOS>BOND
     1    1    2 1
     2    1   35 1
     3    1   36 1
     4    1   37 1
     5    2    3 2
     6    2   34 1
     7    3    4 1
     8    3   38 1
     9    4    5 1
    10    4   39 1
    11    4   40 1
    12    5    6 1
    13    5    7 1
    14    5   31 1
    15    7    8 1
    16    7   41 1
    17    7   42 1
    18    8   13 ar
    19    8    9 ar
    20    9   10 ar
    21    9   30 1
    22   10   11 ar
    23   10   43 1
    24   11   12 ar
    25   11   28 1
    26   12   18 1
    27   12   13 ar
    28   13   14 1
    29   14   15 1
    30   15   16 1
    31   15   17 1
    32   15   20 1
    33   17   18 1
    34   17   44 1
    35   17   45 1
    36   18   19 2
    37   20   25 ar
    38   20   21 ar
    39   21   22 ar
    40   21   46 1
    41   22   23 ar
    42   22   47 1
    43   23   24 ar
    44   23   27 1
    45   24   25 ar
    46   24   48 1
    47   25   26 1
    48   26   49 1
    49   27   50 1
    50   28   29 1
    51   29   51 1
    52   29   52 1
    53   29   53 1
    54   30   54 1
    55   31   32 2
    56   31   33 1
    57   32   55 1
    58   32   56 1
    59   33   57 1
    60   33   58 1
    61   33   59 1
    62   34   60 1
    63   34   61 1
    64   34   62 1
@<TRIPOS>MOLECULE
ZINC14711632
   62    64     0     0     0
SMALL
USER_CHARGES
(2S)-2-(2,4-dihydroxyphenyl)-7-hydroxy-8-[(2S)-2-isopropenyl-5-methyl-hex-4-enyl]-5-methoxy-chroman-4-one
@<TRIPOS>ATOM
      1 C1          9.9905    1.1899    2.6220 C.3       1 <0>        -0.1193
      2 C2          9.5228    1.9402    1.4016 C.2       1 <0>        -0.1380
      3 C3          8.2449    2.0013    1.1201 C.2       1 <0>        -0.1580
      4 C4          7.2510    1.2423    1.9610 C.3       1 <0>        -0.0858
      5 C5          6.3843    0.3632    1.0571 C.3       1 <0>        -0.0379
      6 H1          7.0248   -0.2805    0.4541 H         1 <0>         0.0775
      7 C6          5.4604   -0.4996    1.9189 C.3       1 <0>        -0.0519
      8 C7          4.7037   -1.4601    1.0379 C.ar      1 <0>        -0.1812
      9 C8          5.2672   -2.6857    0.7056 C.ar      1 <0>         0.2193
     10 C9          4.5844   -3.5834   -0.1054 C.ar      1 <0>        -0.2857
     11 C10         3.3304   -3.2610   -0.5935 C.ar      1 <0>         0.2320
     12 C11         2.7578   -2.0225   -0.2646 C.ar      1 <0>        -0.2934
     13 C12         3.4505   -1.1183    0.5623 C.ar      1 <0>         0.2442
     14 O1          2.9014    0.0726    0.8985 O.3       1 <0>        -0.2863
     15 C13         1.8808    0.6170    0.0622 C.3       1 <0>         0.1497
     16 H2          2.3086    0.8916   -0.9019 H         1 <0>         0.0974
     17 C14         0.7802   -0.4336   -0.1460 C.3       1 <0>        -0.1827
     18 C15         1.4343   -1.6501   -0.7762 C.2       1 <0>         0.4035
     19 O2          0.8904   -2.2819   -1.6584 O.2       1 <0>        -0.4282
     20 C16         1.2917    1.8391    0.7183 C.ar      1 <0>        -0.1243
     21 C17         1.3483    1.9804    2.0918 C.ar      1 <0>        -0.0582
     22 C18         0.8142    3.1024    2.6957 C.ar      1 <0>        -0.1532
     23 C19         0.2093    4.0853    1.9248 C.ar      1 <0>         0.1327
     24 C20         0.1463    3.9432    0.5474 C.ar      1 <0>        -0.1711
     25 C21         0.6881    2.8190   -0.0568 C.ar      1 <0>         0.1405
     26 O3          0.6283    2.6771   -1.4070 O.3       1 <0>        -0.4929
     27 O4         -0.3212    5.1859    2.5199 O.3       1 <0>        -0.4961
     28 O5          2.6593   -4.1355   -1.3835 O.3       1 <0>        -0.2857
     29 C22         3.3069   -5.3757   -1.6744 C.3       1 <0>         0.0208
     30 O6          6.4974   -3.0092    1.1777 O.3       1 <0>        -0.4869
     31 C23         5.5553    1.2372    0.1515 C.2       1 <0>        -0.0964
     32 C24         5.5644    1.0343   -1.1426 C.2       1 <0>        -0.2078
     33 C25         4.7159    2.3446    0.7348 C.3       1 <0>        -0.1112
     34 C26        10.5252    2.6203    0.5051 C.3       1 <0>        -0.1174
     35 H3         10.0902    0.1314    2.3816 H         1 <0>         0.0655
     36 H4         10.9558    1.5823    2.9420 H         1 <0>         0.0594
     37 H5          9.2639    1.3133    3.4250 H         1 <0>         0.0651
     38 H6          7.9036    2.5956    0.2854 H         1 <0>         0.1068
     39 H7          6.6167    1.9472    2.4986 H         1 <0>         0.0710
     40 H8          7.7837    0.6149    2.6755 H         1 <0>         0.0734
     41 H9          4.7548    0.1405    2.4485 H         1 <0>         0.0794
     42 H10         6.0550   -1.0599    2.6405 H         1 <0>         0.0741
     43 H11         5.0324   -4.5339   -0.3547 H         1 <0>         0.1429
     44 H12         0.0720   -0.0602   -0.7451 H         1 <0>         0.0965
     45 H13         0.3392   -0.7044    0.8133 H         1 <0>         0.1135
     46 H14         1.8146    1.2145    2.6938 H         1 <0>         0.1405
     47 H15         0.8632    3.2124    3.7690 H         1 <0>         0.1356
     48 H16        -0.3243    4.7068   -0.0541 H         1 <0>         0.1396
     49 H17        -0.1645    2.2201   -1.7197 H         1 <0>         0.3950
     50 H18        -1.2500    5.0883    2.7705 H         1 <0>         0.3955
     51 H19         3.5017   -5.9106   -0.7449 H         1 <0>         0.0597
     52 H20         2.6635   -5.9803   -2.3136 H         1 <0>         0.1065
     53 H21         4.2494   -5.1821   -2.1866 H         1 <0>         0.0608
     54 H22         6.4815   -3.5336    1.9900 H         1 <0>         0.3994
     55 H23         6.1660    0.2407   -1.5606 H         1 <0>         0.0909
     56 H24         4.9703    1.6606   -1.7916 H         1 <0>         0.0917
     57 H25         5.2757    3.2793    0.7045 H         1 <0>         0.0593
     58 H26         3.7999    2.4507    0.1537 H         1 <0>         0.0600
     59 H27         4.4651    2.1046    1.7680 H         1 <0>         0.0638
     60 H28        10.6848    3.6425    0.8481 H         1 <0>         0.0639
     61 H29        11.4687    2.0753    0.5359 H         1 <0>         0.0616
     62 H30        10.1473    2.6349   -0.5172 H         1 <0>         0.0605
@<TRIPOS>BOND
     1    1    2 1
     2    1   35 1
     3    1   36 1
     4    1   37 1
     5    2    3 2
     6    2   34 1
     7    3    4 1
     8    3   38 1
     9    4    5 1
    10    4   39 1
    11    4   40 1
    12    5    6 1
    13    5    7 1
    14    5   31 1
    15    7    8 1
    16    7   41 1
    17    7   42 1
    18    8   13 ar
    19    8    9 ar
    20    9   10 ar
    21    9   30 1
    22   10   11 ar
    23   10   43 1
    24   11   12 ar
    25   11   28 1
    26   12   18 1
    27   12   13 ar
    28   13   14 1
    29   14   15 1
    30   15   16 1
    31   15   17 1
    32   15   20 1
    33   17   18 1
    34   17   44 1
    35   17   45 1
    36   18   19 2
    37   20   25 ar
    38   20   21 ar
    39   21   22 ar
    40   21   46 1
    41   22   23 ar
    42   22   47 1
    43   23   24 ar
    44   23   27 1
    45   24   25 ar
    46   24   48 1
    47   25   26 1
    48   26   49 1
    49   27   50 1
    50   28   29 1
    51   29   51 1
    52   29   52 1
    53   29   53 1
    54   30   54 1
    55   31   32 2
    56   31   33 1
    57   32   55 1
    58   32   56 1
    59   33   57 1
    60   33   58 1
    61   33   59 1
    62   34   60 1
    63   34   61 1
    64   34   62 1
@<TRIPOS>MOLECULE
ZINC05557530
   54    56     0     0     0
SMALL
USER_CHARGES
2-[1-(4-chlorobenzoyl)-5-methoxy-2-methyl-indol-3-yl]-N-sec-butyl-acetamide
@<TRIPOS>ATOM
      1 C1          5.8426   -4.6163   -2.7686 C.3       1 <0>        -0.1536
      2 C2          4.7731   -5.6343   -3.1697 C.3       1 <0>        -0.1321
      3 C3          3.3935   -4.9758   -3.1079 C.3       1 <0>         0.1408
      4 H1          3.3917   -4.0775   -3.7253 H         1 <0>         0.0877
      5 C4          2.3378   -5.9538   -3.6274 C.3       1 <0>        -0.1639
      6 N1          3.0857   -4.6161   -1.7215 N.am      1 <0>        -0.7288
      7 C5          2.2189   -3.6175   -1.4609 C.2       1 <0>         0.5141
      8 O1          1.6936   -3.0167   -2.3742 O.2       1 <0>        -0.5264
      9 C6          1.9022   -3.2475   -0.0348 C.3       1 <0>        -0.0669
     10 C7          0.9139   -2.1100   -0.0185 C.2       1 <0>        -0.1390
     11 C8         -0.4221   -2.2169   -0.0066 C.2       1 <0>         0.1168
     12 N2         -0.9914   -0.9667    0.0069 N.am      1 <0>        -0.5051
     13 C9          0.0015   -0.0022    0.0039 C.ar      1 <0>         0.0771
     14 C10         1.2338   -0.6783   -0.0121 C.ar      1 <0>        -0.0355
     15 C11         2.4265    0.0456   -0.0190 C.ar      1 <0>        -0.1095
     16 C12         2.3868    1.4270   -0.0099 C.ar      1 <0>         0.1118
     17 C13         1.1652    2.0929    0.0076 C.ar      1 <0>        -0.1757
     18 C14        -0.0184    1.3866    0.0136 C.ar      1 <0>        -0.0838
     19 O2          3.5459    2.1380   -0.0165 O.3       1 <0>        -0.3168
     20 C15         3.4332    3.5625   -0.0065 C.3       1 <0>         0.0272
     21 C16        -2.3158   -0.7171    0.0214 C.2       1 <0>         0.6030
     22 O3         -2.9195   -0.7007    1.0758 O.2       1 <0>        -0.4286
     23 C17        -3.0331   -0.4635   -1.2441 C.ar      1 <0>        -0.1661
     24 C18        -2.3642   -0.5795   -2.4648 C.ar      1 <0>        -0.0418
     25 C19        -3.0411   -0.3470   -3.6433 C.ar      1 <0>        -0.1207
     26 C20        -4.3786    0.0127   -3.6178 C.ar      1 <0>         0.0039
     27 C21        -5.0460    0.1350   -2.4102 C.ar      1 <0>        -0.1235
     28 C22        -4.3819   -0.1009   -1.2252 C.ar      1 <0>        -0.0383
     29 Cl1        -5.2220    0.3109   -5.1056 Cl        1 <0>        -0.0524
     30 C23        -1.1864   -3.5157   -0.0084 C.3       1 <0>        -0.1026
     31 H2          5.8132   -3.7693   -3.4541 H         1 <0>         0.0555
     32 H3          5.6509   -4.2689   -1.7534 H         1 <0>         0.0554
     33 H4          6.8255   -5.0855   -2.8126 H         1 <0>         0.0564
     34 H5          4.8025   -6.4813   -2.4842 H         1 <0>         0.0677
     35 H6          4.9647   -5.9817   -4.1849 H         1 <0>         0.0778
     36 H7          2.3396   -6.8521   -3.0101 H         1 <0>         0.0562
     37 H8          1.3549   -5.4846   -3.5834 H         1 <0>         0.0601
     38 H9          2.5668   -6.2214   -4.6590 H         1 <0>         0.0645
     39 H10         3.5057   -5.0966   -0.9911 H         1 <0>         0.3989
     40 H11         2.8170   -2.9413    0.4728 H         1 <0>         0.1045
     41 H12         1.4734   -4.1088    0.4774 H         1 <0>         0.1022
     42 H13         3.3751   -0.4705   -0.0316 H         1 <0>         0.1321
     43 H14         1.1442    3.1727    0.0149 H         1 <0>         0.1352
     44 H15        -0.9614    1.9131    0.0214 H         1 <0>         0.1221
     45 H16         2.8838    3.8897   -0.8893 H         1 <0>         0.0551
     46 H17         2.9008    3.8785    0.8906 H         1 <0>         0.0551
     47 H18         4.4289    4.0058   -0.0133 H         1 <0>         0.1003
     48 H19        -1.3202   -0.8552   -2.4857 H         1 <0>         0.1447
     49 H20        -2.5263   -0.4410   -4.5880 H         1 <0>         0.1450
     50 H21        -6.0889    0.4154   -2.3968 H         1 <0>         0.1463
     51 H22        -4.9035   -0.0060   -0.2843 H         1 <0>         0.1476
     52 H23        -1.3803   -3.8218   -1.0364 H         1 <0>         0.0852
     53 H24        -0.5988   -4.2837    0.4946 H         1 <0>         0.0914
     54 H25        -2.1328   -3.3811    0.5153 H         1 <0>         0.0696
@<TRIPOS>BOND
     1    1    2 1
     2    1   31 1
     3    1   32 1
     4    1   33 1
     5    2    3 1
     6    2   34 1
     7    2   35 1
     8    3    4 1
     9    3    5 1
    10    3    6 1
    11    5   36 1
    12    5   37 1
    13    5   38 1
    14    6    7 am
    15    6   39 1
    16    7    8 2
    17    7    9 1
    18    9   10 1
    19    9   40 1
    20    9   41 1
    21   10   14 1
    22   10   11 2
    23   11   12 1
    24   11   30 1
    25   12   13 1
    26   12   21 am
    27   13   18 ar
    28   13   14 ar
    29   14   15 ar
    30   15   16 ar
    31   15   42 1
    32   16   17 ar
    33   16   19 1
    34   17   18 ar
    35   17   43 1
    36   18   44 1
    37   19   20 1
    38   20   45 1
    39   20   46 1
    40   20   47 1
    41   21   22 2
    42   21   23 1
    43   23   28 ar
    44   23   24 ar
    45   24   25 ar
    46   24   48 1
    47   25   26 ar
    48   25   49 1
    49   26   27 ar
    50   26   29 1
    51   27   28 ar
    52   27   50 1
    53   28   51 1
    54   30   52 1
    55   30   53 1
    56   30   54 1
@<TRIPOS>MOLECULE
ZINC05557532
   54    56     0     0     0
SMALL
USER_CHARGES
2-[1-(4-chlorobenzoyl)-5-methoxy-2-methyl-indol-3-yl]-N-sec-butyl-acetamide
@<TRIPOS>ATOM
      1 C1          5.8857   -4.6675    2.6033 C.3       1 <0>        -0.1535
      2 C2          4.8220   -5.6891    3.0104 C.3       1 <0>        -0.1321
      3 C3          3.4427   -5.0275    2.9835 C.3       1 <0>         0.1408
      4 H1          3.4542   -4.1377    3.6129 H         1 <0>         0.0877
      5 C4          2.3950   -6.0107    3.5094 C.3       1 <0>        -0.1639
      6 N1          3.1097   -4.6484    1.6081 N.am      1 <0>        -0.7289
      7 C5          2.2401   -3.6449    1.3774 C.2       1 <0>         0.5141
      8 O1          1.7332   -3.0557    2.3085 O.2       1 <0>        -0.5262
      9 C6          1.8975   -3.2549   -0.0374 C.3       1 <0>        -0.0669
     10 C7          0.9113   -2.1157   -0.0196 C.2       1 <0>        -0.1385
     11 C8         -0.4249   -2.2201   -0.0079 C.2       1 <0>         0.1164
     12 N2         -0.9920   -0.9689    0.0063 N.am      1 <0>        -0.5051
     13 C9          0.0028   -0.0062    0.0038 C.ar      1 <0>         0.0770
     14 C10         1.2338   -0.6846   -0.0125 C.ar      1 <0>        -0.0358
     15 C11         2.4277    0.0373   -0.0186 C.ar      1 <0>        -0.1096
     16 C12         2.3905    1.4187   -0.0084 C.ar      1 <0>         0.1118
     17 C13         1.1700    2.0868    0.0078 C.ar      1 <0>        -0.1757
     18 C14        -0.0148    1.3826    0.0138 C.ar      1 <0>        -0.0837
     19 O2          3.5508    2.1276   -0.0138 O.3       1 <0>        -0.3168
     20 C15         3.4406    3.5524   -0.0027 C.3       1 <0>         0.0272
     21 C16        -2.3159   -0.7169    0.0204 C.2       1 <0>         0.6027
     22 O3         -2.9056   -0.5070   -1.0212 O.2       1 <0>        -0.4285
     23 C17        -3.0498   -0.6958    1.3015 C.ar      1 <0>        -0.1658
     24 C18        -2.3595   -0.8372    2.5075 C.ar      1 <0>        -0.0419
     25 C19        -3.0498   -0.8110    3.7008 C.ar      1 <0>        -0.1205
     26 C20        -4.4264   -0.6563    3.7046 C.ar      1 <0>         0.0038
     27 C21        -5.1173   -0.5213    2.5116 C.ar      1 <0>        -0.1235
     28 C22        -4.4378   -0.5402    1.3121 C.ar      1 <0>        -0.0384
     29 Cl1        -5.2891   -0.6309    5.2108 Cl        1 <0>        -0.0524
     30 C23        -1.1915   -3.5176   -0.0099 C.3       1 <0>        -0.1017
     31 H2          6.8683   -5.1389    2.6225 H         1 <0>         0.0564
     32 H3          5.6758   -4.3060    1.5967 H         1 <0>         0.0554
     33 H4          5.8708   -3.8300    3.3007 H         1 <0>         0.0555
     34 H5          5.0319   -6.0507    4.0171 H         1 <0>         0.0778
     35 H6          4.8368   -6.5267    2.3130 H         1 <0>         0.0677
     36 H7          2.3835   -6.9005    2.8799 H         1 <0>         0.0561
     37 H8          2.6428   -6.2927    4.5327 H         1 <0>         0.0645
     38 H9          1.4124   -5.5393    3.4902 H         1 <0>         0.0602
     39 H10         3.5151   -5.1196    0.8635 H         1 <0>         0.3989
     40 H11         1.4575   -4.1085   -0.5531 H         1 <0>         0.1022
     41 H12         2.8032   -2.9434   -0.5578 H         1 <0>         0.1044
     42 H13         3.3755   -0.4804   -0.0315 H         1 <0>         0.1321
     43 H14         1.1510    3.1667    0.0153 H         1 <0>         0.1352
     44 H15        -0.9568    1.9107    0.0218 H         1 <0>         0.1221
     45 H16         4.4372    3.9939   -0.0085 H         1 <0>         0.1003
     46 H17         2.8924    3.8813   -0.8855 H         1 <0>         0.0552
     47 H18         2.9083    3.8686    0.8943 H         1 <0>         0.0551
     48 H19        -1.2868   -0.9624    2.5056 H         1 <0>         0.1447
     49 H20        -2.5167   -0.9154    4.6342 H         1 <0>         0.1450
     50 H21        -6.1905   -0.4007    2.5211 H         1 <0>         0.1462
     51 H22        -4.9776   -0.4345    0.3826 H         1 <0>         0.1475
     52 H23        -1.3667   -3.8376    1.0172 H         1 <0>         0.0857
     53 H24        -2.1473   -3.3741   -0.5138 H         1 <0>         0.0685
     54 H25        -0.6150   -4.2794   -0.5346 H         1 <0>         0.0913
@<TRIPOS>BOND
     1    1    2 1
     2    1   31 1
     3    1   32 1
     4    1   33 1
     5    2    3 1
     6    2   34 1
     7    2   35 1
     8    3    4 1
     9    3    5 1
    10    3    6 1
    11    5   36 1
    12    5   37 1
    13    5   38 1
    14    6    7 am
    15    6   39 1
    16    7    8 2
    17    7    9 1
    18    9   10 1
    19    9   40 1
    20    9   41 1
    21   10   14 1
    22   10   11 2
    23   11   12 1
    24   11   30 1
    25   12   13 1
    26   12   21 am
    27   13   18 ar
    28   13   14 ar
    29   14   15 ar
    30   15   16 ar
    31   15   42 1
    32   16   17 ar
    33   16   19 1
    34   17   18 ar
    35   17   43 1
    36   18   44 1
    37   19   20 1
    38   20   45 1
    39   20   46 1
    40   20   47 1
    41   21   22 2
    42   21   23 1
    43   23   28 ar
    44   23   24 ar
    45   24   25 ar
    46   24   48 1
    47   25   26 ar
    48   25   49 1
    49   26   27 ar
    50   26   29 1
    51   27   28 ar
    52   27   50 1
    53   28   51 1
    54   30   52 1
    55   30   53 1
    56   30   54 1
@<TRIPOS>MOLECULE
ZINC13441182
   52    54     0     0     0
SMALL
USER_CHARGES
2-[1-(4-chlorobenzoyl)-5-methoxy-2-methyl-indol-3-yl]-N-(3-hydroxypropyl)acetamide
@<TRIPOS>ATOM
      1 C1         -3.6560    0.5961    0.0453 C.3       1 <0>        -0.1023
      2 C2         -2.1505    0.6607    0.0285 C.2       1 <0>         0.1178
      3 C3         -1.4284    1.7899    0.0321 C.2       1 <0>        -0.1411
      4 C4         -0.0145    1.3997    0.0084 C.ar      1 <0>        -0.0358
      5 C5          1.1852    2.1127   -0.0007 C.ar      1 <0>        -0.1101
      6 C6          2.3856    1.4290   -0.0184 C.ar      1 <0>         0.1121
      7 C7          2.3995    0.0372   -0.0266 C.ar      1 <0>        -0.1755
      8 C8          1.2204   -0.6757   -0.0172 C.ar      1 <0>        -0.0834
      9 C9          0.0034   -0.0054    0.0001 C.ar      1 <0>         0.0770
     10 N1         -1.3143   -0.4291    0.0127 N.am      1 <0>        -0.5046
     11 C10        -1.7160   -1.7156    0.0091 C.2       1 <0>         0.6003
     12 O1         -1.9957   -2.2619   -1.0397 O.2       1 <0>        -0.4249
     13 C11        -1.8162   -2.4612    1.2797 C.ar      1 <0>        -0.1629
     14 C12        -1.5922   -1.8097    2.4947 C.ar      1 <0>        -0.0452
     15 C13        -1.6929   -2.5101    3.6780 C.ar      1 <0>        -0.1209
     16 C14        -2.0037   -3.8600    3.6629 C.ar      1 <0>         0.0028
     17 C15        -2.2213   -4.5131    2.4609 C.ar      1 <0>        -0.1217
     18 C16        -2.1297   -3.8223    1.2712 C.ar      1 <0>        -0.0382
     19 Cl1        -2.1215   -4.7366    5.1567 Cl        1 <0>        -0.0518
     20 O2          3.5577    2.1182   -0.0274 O.3       1 <0>        -0.3167
     21 C17         4.7622    1.3495   -0.0451 C.3       1 <0>         0.0272
     22 C18        -1.9681    3.1969    0.0484 C.3       1 <0>        -0.0650
     23 C19        -2.1696    3.6740   -1.3668 C.2       1 <0>         0.5101
     24 O3         -1.9014    2.9435   -2.2970 O.2       1 <0>        -0.5226
     25 N2         -2.6479    4.9125   -1.5987 N.am      1 <0>        -0.7349
     26 C20        -2.8437    5.3764   -2.9745 C.3       1 <0>         0.1221
     27 C21        -3.3917    6.8048   -2.9580 C.3       1 <0>        -0.1330
     28 C22        -3.5962    7.2892   -4.3947 C.3       1 <0>         0.0783
     29 O4         -4.1080    8.6234   -4.3793 O.3       1 <0>        -0.5752
     30 H1         -4.0073    0.5742    1.0769 H         1 <0>         0.0854
     31 H2         -4.0629    1.4729   -0.4586 H         1 <0>         0.0900
     32 H3         -3.9868   -0.3054   -0.4704 H         1 <0>         0.0707
     33 H4          1.1753    3.1927    0.0056 H         1 <0>         0.1324
     34 H5          3.3428   -0.4886   -0.0400 H         1 <0>         0.1353
     35 H6          1.2421   -1.7555   -0.0237 H         1 <0>         0.1222
     36 H7         -1.3451   -0.7584    2.5075 H         1 <0>         0.1420
     37 H8         -1.5247   -2.0064    4.6184 H         1 <0>         0.1453
     38 H9         -2.4636   -5.5656    2.4556 H         1 <0>         0.1466
     39 H10        -2.3002   -4.3325    0.3347 H         1 <0>         0.1479
     40 H11         4.8018    0.7158    0.8408 H         1 <0>         0.0553
     41 H12         4.7821    0.7260   -0.9390 H         1 <0>         0.0550
     42 H13         5.6213    2.0203   -0.0508 H         1 <0>         0.1004
     43 H14        -2.9212    3.2143    0.5769 H         1 <0>         0.1040
     44 H15        -1.2595    3.8520    0.5553 H         1 <0>         0.1065
     45 H16        -2.8624    5.4968   -0.8547 H         1 <0>         0.4018
     46 H17        -1.8906    5.3589   -3.5030 H         1 <0>         0.0695
     47 H18        -3.5523    4.7213   -3.4814 H         1 <0>         0.0690
     48 H19        -4.3448    6.8223   -2.4295 H         1 <0>         0.0774
     49 H20        -2.6831    7.4599   -2.4511 H         1 <0>         0.0777
     50 H21        -2.6431    7.2718   -4.9232 H         1 <0>         0.0500
     51 H22        -4.3048    6.6341   -4.9016 H         1 <0>         0.0497
     52 H23        -4.2623    8.9956   -5.2583 H         1 <0>         0.3842
@<TRIPOS>BOND
     1    1    2 1
     2    1   30 1
     3    1   31 1
     4    1   32 1
     5    2   10 1
     6    2    3 2
     7    3    4 1
     8    3   22 1
     9    4    9 ar
    10    4    5 ar
    11    5    6 ar
    12    5   33 1
    13    6    7 ar
    14    6   20 1
    15    7    8 ar
    16    7   34 1
    17    8    9 ar
    18    8   35 1
    19    9   10 1
    20   10   11 am
    21   11   12 2
    22   11   13 1
    23   13   18 ar
    24   13   14 ar
    25   14   15 ar
    26   14   36 1
    27   15   16 ar
    28   15   37 1
    29   16   17 ar
    30   16   19 1
    31   17   18 ar
    32   17   38 1
    33   18   39 1
    34   20   21 1
    35   21   40 1
    36   21   41 1
    37   21   42 1
    38   22   23 1
    39   22   43 1
    40   22   44 1
    41   23   24 2
    42   23   25 am
    43   25   26 1
    44   25   45 1
    45   26   27 1
    46   26   46 1
    47   26   47 1
    48   27   28 1
    49   27   48 1
    50   27   49 1
    51   28   29 1
    52   28   50 1
    53   28   51 1
    54   29   52 1
@<TRIPOS>MOLECULE
ZINC00003767
   41    43     0     0     0
SMALL
USER_CHARGES

@<TRIPOS>ATOM
      1 C1         -0.0173    1.4248    0.0099 C.3       1 <0>         0.0271
      2 O1          0.0021   -0.0041    0.0020 O.3       1 <0>        -0.3216
      3 C2         -1.2004   -0.6375    0.0101 C.ar      1 <0>         0.1212
      4 C3         -2.3737    0.1039    0.0195 C.ar      1 <0>        -0.2052
      5 C4         -3.5956   -0.5361    0.0277 C.ar      1 <0>        -0.0536
      6 C5         -3.6513   -1.9286    0.0261 C.ar      1 <0>        -0.0366
      7 C6         -2.4714   -2.6703    0.0162 C.ar      1 <0>        -0.0663
      8 C7         -1.2526   -2.0245    0.0031 C.ar      1 <0>        -0.1563
      9 C8         -4.9640   -2.6201    0.0354 C.2       1 <0>        -0.2310
     10 C9         -5.8880   -2.5854    1.0286 C.2       1 <0>         0.1583
     11 O2         -6.9346   -3.3357    0.6577 O.3       1 <0>        -0.0784
     12 N1         -6.6880   -3.8813   -0.6233 N.2       1 <0>        -0.3283
     13 C10        -5.5130   -3.4669   -1.0308 C.2       1 <0>         0.1629
     14 C11        -4.8608   -3.7943   -2.3214 C.ar      1 <0>        -0.0587
     15 C12        -4.0613   -2.8472   -2.9601 C.ar      1 <0>        -0.0371
     16 C13        -3.4562   -3.1546   -4.1602 C.ar      1 <0>        -0.1510
     17 C14        -3.6423   -4.4059   -4.7328 C.ar      1 <0>         0.1372
     18 C15        -4.4379   -5.3512   -4.0991 C.ar      1 <0>        -0.2125
     19 C16        -5.0411   -5.0518   -2.8960 C.ar      1 <0>        -0.0466
     20 O3         -3.0451   -4.7057   -5.9155 O.3       1 <0>        -0.3164
     21 C17        -3.2791   -6.0110   -6.4480 C.3       1 <0>         0.0263
     22 C18        -5.7591   -1.8321    2.3274 C.3       1 <0>        -0.1349
     23 C19        -6.3186   -0.4428    2.1600 C.2       1 <0>         0.5068
     24 O4         -6.7794   -0.0966    1.0856 O.co2     1 <0>        -0.6796
     25 O5         -6.3105    0.3349    3.0990 O.co2     1 <0>        -0.6866
     26 H1          1.0053    1.8021    0.0021 H         1 <0>         0.0956
     27 H2         -0.5445    1.7859   -0.8732 H         1 <0>         0.0546
     28 H3         -0.5275    1.7763    0.9067 H         1 <0>         0.0565
     29 H4         -2.3300    1.1830    0.0207 H         1 <0>         0.1274
     30 H5         -4.5083    0.0414    0.0357 H         1 <0>         0.1421
     31 H6         -2.5114   -3.7496    0.0149 H         1 <0>         0.1243
     32 H7         -0.3379   -2.5987   -0.0087 H         1 <0>         0.1267
     33 H8         -3.9164   -1.8737   -2.5154 H         1 <0>         0.1383
     34 H9         -2.8371   -2.4213   -4.6556 H         1 <0>         0.1357
     35 H10        -4.5811   -6.3234   -4.5471 H         1 <0>         0.1315
     36 H11        -5.6559   -5.7891   -2.4013 H         1 <0>         0.1306
     37 H12        -2.7459   -6.1191   -7.3924 H         1 <0>         0.0990
     38 H13        -2.9228   -6.7607   -5.7416 H         1 <0>         0.0560
     39 H14        -4.3473   -6.1487   -6.6160 H         1 <0>         0.0560
     40 H15        -6.3125   -2.3551    3.1073 H         1 <0>         0.0884
     41 H16        -4.7077   -1.7689    2.6080 H         1 <0>         0.0982
@<TRIPOS>BOND
     1    1    2 1
     2    1   26 1
     3    1   27 1
     4    1   28 1
     5    2    3 1
     6    3    8 ar
     7    3    4 ar
     8    4    5 ar
     9    4   29 1
    10    5    6 ar
    11    5   30 1
    12    6    7 ar
    13    6    9 1
    14    7    8 ar
    15    7   31 1
    16    8   32 1
    17    9   13 1
    18    9   10 2
    19   10   11 1
    20   10   22 1
    21   11   12 1
    22   12   13 2
    23   13   14 1
    24   14   19 ar
    25   14   15 ar
    26   15   16 ar
    27   15   33 1
    28   16   17 ar
    29   16   34 1
    30   17   18 ar
    31   17   20 1
    32   18   19 ar
    33   18   35 1
    34   19   36 1
    35   20   21 1
    36   21   37 1
    37   21   38 1
    38   21   39 1
    39   22   23 1
    40   22   40 1
    41   22   41 1
    42   23   24 2
    43   23   25 1
@<TRIPOS>MOLECULE
ZINC05195818
   53    55     0     0     0
SMALL
USER_CHARGES

@<TRIPOS>ATOM
      1 C1          1.8494    1.5479    0.1386 C.3       1 <0>        -0.1235
      2 C2          2.1353    0.0688    0.1775 C.2       1 <0>        -0.1284
      3 C3          2.1550   -0.5646    1.3241 C.2       1 <0>        -0.1620
      4 C4          1.7739    0.1577    2.5906 C.3       1 <0>        -0.0432
      5 C5          0.5958   -0.5330    3.2278 C.ar      1 <0>        -0.1601
      6 C6         -0.6987   -0.1531    2.8909 C.ar      1 <0>         0.1965
      7 C7         -1.7934   -0.7752    3.4704 C.ar      1 <0>        -0.1813
      8 C8         -1.6098   -1.7922    4.3971 C.ar      1 <0>         0.1865
      9 C9         -0.3010   -2.1828    4.7300 C.ar      1 <0>        -0.2632
     10 C10         0.8018   -1.5487    4.1433 C.ar      1 <0>         0.2210
     11 O1          2.0626   -1.9248    4.4747 O.3       1 <0>        -0.4718
     12 C11        -0.1195   -3.2793    5.6981 C.2       1 <0>         0.4416
     13 O2          0.9620   -3.5236    6.2024 O.2       1 <0>        -0.4216
     14 C12        -1.3295   -4.0638    6.0200 C.ar      1 <0>        -0.2196
     15 C13        -2.5782   -3.5636    5.6159 C.ar      1 <0>         0.1695
     16 O3         -2.6788   -2.3866    4.9643 O.3       1 <0>        -0.2211
     17 C14        -3.7231   -4.2970    5.9014 C.ar      1 <0>        -0.1659
     18 C15        -3.6275   -5.4986    6.5806 C.ar      1 <0>         0.1549
     19 C16        -2.3844   -5.9886    6.9874 C.ar      1 <0>         0.0532
     20 C17        -1.2374   -5.2742    6.7080 C.ar      1 <0>         0.0073
     21 C18         0.1069   -5.7984    7.1429 C.3       1 <0>        -0.0612
     22 C19         0.4254   -5.2814    8.5222 C.2       1 <0>        -0.1450
     23 C20         0.6495   -6.1224    9.5013 C.2       1 <0>        -0.1258
     24 C21         0.5418   -7.6060    9.2598 C.3       1 <0>        -0.1235
     25 C22         1.0150   -5.6062   10.8691 C.3       1 <0>        -0.1171
     26 O4         -2.3045   -7.1693    7.6586 O.3       1 <0>        -0.4702
     27 O5         -4.7527   -6.2079    6.8546 O.3       1 <0>        -0.4784
     28 O6         -0.8925    0.8385    1.9847 O.3       1 <0>        -0.4833
     29 C23         2.3986   -0.6817   -1.1025 C.3       1 <0>        -0.1197
     30 H1          2.5480    2.0703    0.7923 H         1 <0>         0.0664
     31 H2          1.9641    1.9134   -0.8818 H         1 <0>         0.0609
     32 H3          0.8295    1.7298    0.4773 H         1 <0>         0.0724
     33 H4          2.4443   -1.6045    1.3616 H         1 <0>         0.1100
     34 H5          2.6171    0.1495    3.2813 H         1 <0>         0.0829
     35 H6          1.5072    1.1880    2.3551 H         1 <0>         0.0910
     36 H7         -2.7927   -0.4673    3.2003 H         1 <0>         0.1531
     37 H8          2.4324   -1.4419    5.2265 H         1 <0>         0.4029
     38 H9         -4.6900   -3.9285    5.5922 H         1 <0>         0.1546
     39 H10         0.0839   -6.8880    7.1597 H         1 <0>         0.0853
     40 H11         0.8719   -5.4618    6.4432 H         1 <0>         0.1055
     41 H12         0.4689   -4.2176    8.7034 H         1 <0>         0.1067
     42 H13         1.4812   -7.9765    8.8496 H         1 <0>         0.0631
     43 H14         0.3315   -8.1130   10.2015 H         1 <0>         0.0599
     44 H15        -0.2652   -7.8015    8.5537 H         1 <0>         0.0752
     45 H16         0.1079   -5.4508   11.4532 H         1 <0>         0.0656
     46 H17         1.6519   -6.3328   11.3735 H         1 <0>         0.0627
     47 H18         1.5496   -4.6614   10.7701 H         1 <0>         0.0610
     48 H19        -2.2000   -7.9412    7.0856 H         1 <0>         0.3846
     49 H20        -4.9960   -6.8412    6.1655 H         1 <0>         0.3980
     50 H21        -0.9542    0.5294    1.0705 H         1 <0>         0.4008
     51 H22         2.3406    0.0066   -1.9457 H         1 <0>         0.0626
     52 H23         3.3928   -1.1270   -1.0647 H         1 <0>         0.0654
     53 H24         1.6529   -1.4675   -1.2230 H         1 <0>         0.0648
@<TRIPOS>BOND
     1    1    2 1
     2    1   30 1
     3    1   31 1
     4    1   32 1
     5    2    3 2
     6    2   29 1
     7    3    4 1
     8    3   33 1
     9    4    5 1
    10    4   34 1
    11    4   35 1
    12    5   10 ar
    13    5    6 ar
    14    6    7 ar
    15    6   28 1
    16    7    8 ar
    17    7   36 1
    18    8   16 1
    19    8    9 ar
    20    9   10 ar
    21    9   12 1
    22   10   11 1
    23   11   37 1
    24   12   13 2
    25   12   14 1
    26   14   20 ar
    27   14   15 ar
    28   15   16 1
    29   15   17 ar
    30   17   18 ar
    31   17   38 1
    32   18   19 ar
    33   18   27 1
    34   19   20 ar
    35   19   26 1
    36   20   21 1
    37   21   22 1
    38   21   39 1
    39   21   40 1
    40   22   23 2
    41   22   41 1
    42   23   24 1
    43   23   25 1
    44   24   42 1
    45   24   43 1
    46   24   44 1
    47   25   45 1
    48   25   46 1
    49   25   47 1
    50   26   48 1
    51   27   49 1
    52   28   50 1
    53   29   51 1
    54   29   52 1
    55   29   53 1
@<TRIPOS>MOLECULE
ZINC05195818
   52    54     0     0     0
SMALL
USER_CHARGES

@<TRIPOS>ATOM
      1 C1         -0.8001    1.0338   -0.2881 C.3       1 <0>        -0.1180
      2 C2         -0.7065   -0.4686   -0.2173 C.2       1 <0>        -0.1428
      3 C3         -0.4244   -1.0545    0.9199 C.2       1 <0>        -0.1489
      4 C4         -0.3109   -0.2370    2.1808 C.3       1 <0>        -0.0380
      5 C5         -1.2269   -0.8070    3.2330 C.ar      1 <0>        -0.1827
      6 C6         -2.5400   -0.3554    3.3283 C.ar      1 <0>         0.1872
      7 C7         -3.3964   -0.8690    4.2905 C.ar      1 <0>        -0.1952
      8 C8         -2.9518   -1.8420    5.1717 C.ar      1 <0>         0.1931
      9 C9         -1.6232   -2.3040    5.0804 C.ar      1 <0>        -0.2271
     10 C10        -0.7630   -1.7793    4.0956 C.ar      1 <0>         0.2240
     11 O1          0.5149   -2.2234    3.9992 O.3       1 <0>        -0.4627
     12 C11        -1.1667   -3.2971    5.9789 C.2       1 <0>         0.3783
     13 C12        -2.0694   -3.7921    6.9428 C.2       1 <0>        -0.3009
     14 C13        -1.6617   -4.7809    7.8600 C.2       1 <0>         0.0111
     15 C14        -2.5392   -5.2517    8.7862 C.2       1 <0>        -0.0211
     16 C15        -3.8597   -4.7522    8.8322 C.2       1 <0>         0.3035
     17 O2         -4.7142   -5.2184    9.7428 O.2       1 <0>        -0.6636
     18 C16        -4.2739   -3.7712    7.9274 C.2       1 <0>        -0.3005
     19 C17        -3.3888   -3.2874    6.9824 C.2       1 <0>         0.1905
     20 O3         -3.7878   -2.3391    6.1078 O.3       1 <0>        -0.2256
     21 O4         -2.1441   -6.2069    9.6709 O.3       1 <0>        -0.4831
     22 C18        -0.2541   -5.3171    7.8143 C.3       1 <0>        -0.0611
     23 C19         0.6605   -4.3928    8.5761 C.2       1 <0>        -0.0927
     24 C20         1.4378   -4.8692    9.5168 C.2       1 <0>        -0.1774
     25 C21         1.5495   -6.3583    9.7196 C.3       1 <0>        -0.1127
     26 C22         2.2204   -3.9282   10.3961 C.3       1 <0>        -0.1040
     27 O5          0.0986   -3.7587    5.9149 O.3       1 <0>        -0.5481
     28 O6         -2.9864    0.5972    2.4714 O.3       1 <0>        -0.4876
     29 C23        -0.9376   -1.2970   -1.4548 C.3       1 <0>        -0.1158
     30 H1          0.1233    1.4735    0.0889 H         1 <0>         0.0633
     31 H2         -0.9523    1.3401   -1.3230 H         1 <0>         0.0567
     32 H3         -1.6390    1.3746    0.3188 H         1 <0>         0.0710
     33 H4         -0.2730   -2.1233    0.9537 H         1 <0>         0.1095
     34 H5          0.7176   -0.2650    2.5407 H         1 <0>         0.0798
     35 H6         -0.5948    0.7944    1.9720 H         1 <0>         0.0857
     36 H7         -4.4128   -0.5094    4.3537 H         1 <0>         0.1460
     37 H8          1.1458   -1.7258    4.5372 H         1 <0>         0.3950
     38 H9         -5.2844   -3.3920    7.9659 H         1 <0>         0.1222
     39 H10        -2.8350   -6.4791   10.2904 H         1 <0>         0.3894
     40 H11        -0.2279   -6.3083    8.2669 H         1 <0>         0.0722
     41 H12         0.0765   -5.3821    6.7777 H         1 <0>         0.1135
     42 H13         0.6750   -3.3375    8.3465 H         1 <0>         0.0987
     43 H14         0.9966   -6.8744    8.9347 H         1 <0>         0.0705
     44 H15         2.5982   -6.6529    9.6791 H         1 <0>         0.0509
     45 H16         1.1345   -6.6248   10.6916 H         1 <0>         0.0553
     46 H17         1.6252   -3.6697   11.2719 H         1 <0>         0.0576
     47 H18         3.1440   -4.4118   10.7143 H         1 <0>         0.0516
     48 H19         2.4580   -3.0225    9.8381 H         1 <0>         0.0539
     49 H20        -3.3730    0.2446    1.6582 H         1 <0>         0.3942
     50 H21        -1.1580   -0.6399   -2.2961 H         1 <0>         0.0591
     51 H22        -0.0432   -1.8802   -1.6739 H         1 <0>         0.0626
     52 H23        -1.7788   -1.9702   -1.2895 H         1 <0>         0.0635
@<TRIPOS>BOND
     1    1    2 1
     2    1   30 1
     3    1   31 1
     4    1   32 1
     5    2    3 2
     6    2   29 1
     7    3    4 1
     8    3   33 1
     9    4    5 1
    10    4   34 1
    11    4   35 1
    12    5   10 ar
    13    5    6 ar
    14    6    7 ar
    15    6   28 1
    16    7    8 ar
    17    7   36 1
    18    8   20 1
    19    8    9 ar
    20    9   10 ar
    21    9   12 1
    22   10   11 1
    23   11   37 1
    24   12   13 2
    25   12   27 1
    26   13   19 1
    27   13   14 1
    28   14   15 2
    29   14   22 1
    30   15   16 1
    31   15   21 1
    32   16   17 2
    33   16   18 1
    34   18   19 2
    35   18   38 1
    36   19   20 1
    37   21   39 1
    38   22   23 1
    39   22   40 1
    40   22   41 1
    41   23   24 2
    42   23   42 1
    43   24   25 1
    44   24   26 1
    45   25   43 1
    46   25   44 1
    47   25   45 1
    48   26   46 1
    49   26   47 1
    50   26   48 1
    51   28   49 1
    52   29   50 1
    53   29   51 1
    54   29   52 1
@<TRIPOS>MOLECULE
ZINC19281179
   31    32     0     0     0
SMALL
USER_CHARGES
N-(3-aminophenyl)-3-(trifluoromethyl)benzamide
@<TRIPOS>ATOM
      1 C1         -0.1541    9.4640    0.3648 C.ar      1 <0>        -0.1231
      2 C2         -0.1420    8.0888    0.2545 C.ar      1 <0>        -0.0545
      3 C3          1.0739    7.4037    0.2395 C.ar      1 <0>        -0.1344
      4 C4          2.2705    8.1155    0.3423 C.ar      1 <0>        -0.0093
      5 C5          2.2445    9.4906    0.4468 C.ar      1 <0>        -0.1885
      6 C6          1.0355   10.1638    0.4610 C.ar      1 <0>        -0.0453
      7 C7          3.5353   10.2611    0.5526 C.3       1 <0>         0.5101
      8 F1          3.2554   11.6281    0.6542 F         1 <0>        -0.1747
      9 F2          4.2362    9.8429    1.6887 F         1 <0>        -0.1728
     10 F3          4.3124   10.0277   -0.5871 F         1 <0>        -0.1730
     11 C8          1.0944    5.9304    0.1215 C.2       1 <0>         0.5618
     12 O1          2.1549    5.3363    0.1088 O.2       1 <0>        -0.5124
     13 N1         -0.0627    5.2457    0.0281 N.am      1 <0>        -0.6787
     14 C9         -0.0486    3.8474    0.0140 C.ar      1 <0>         0.1930
     15 C10        -1.0743    3.1352    0.6238 C.ar      1 <0>        -0.2097
     16 C11        -1.0609    1.7539    0.6108 C.ar      1 <0>        -0.0513
     17 C12        -0.0281    1.0758   -0.0078 C.ar      1 <0>        -0.2199
     18 C13         1.0033    1.7817   -0.6148 C.ar      1 <0>         0.2437
     19 C14         0.9898    3.1697   -0.6084 C.ar      1 <0>        -0.2075
     20 N2          2.0499    1.0955   -1.2349 N.pl3     1 <0>        -0.8968
     21 H1         -1.0942    9.9954    0.3765 H         1 <0>         0.1459
     22 H2         -1.0714    7.5436    0.1802 H         1 <0>         0.1377
     23 H3          3.2145    7.5910    0.3358 H         1 <0>         0.1487
     24 H4          1.0205   11.2402    0.5479 H         1 <0>         0.1466
     25 H5         -1.0182    5.7868   -0.0370 H         1 <0>         0.4322
     26 H6         -1.8830    3.6622    1.1082 H         1 <0>         0.1205
     27 H7         -1.8593    1.2029    1.0855 H         1 <0>         0.1241
     28 H8         -0.0202   -0.0042   -0.0156 H         1 <0>         0.1185
     29 H9          1.7882    3.7208   -1.0828 H         1 <0>         0.1349
     30 H10         2.8661    1.6550   -1.7153 H         1 <0>         0.4177
     31 H11         2.0580   -0.0044   -1.2429 H         1 <0>         0.4168
@<TRIPOS>BOND
     1    1    6 ar
     2    1    2 ar
     3    1   21 1
     4    2    3 ar
     5    2   22 1
     6    3    4 ar
     7    3   11 1
     8    4    5 ar
     9    4   23 1
    10    5    6 ar
    11    5    7 1
    12    6   24 1
    13    7    8 1
    14    7    9 1
    15    7   10 1
    16   11   12 2
    17   11   13 am
    18   13   14 1
    19   13   25 1
    20   14   19 ar
    21   14   15 ar
    22   15   16 ar
    23   15   26 1
    24   16   17 ar
    25   16   27 1
    26   17   18 ar
    27   17   28 1
    28   18   19 ar
    29   18   20 1
    30   19   29 1
    31   20   30 1
    32   20   31 1
@<TRIPOS>MOLECULE
ZINC01764952
   26    28     0     0     0
SMALL
USER_CHARGES
2-(2,4-dioxo-1H-pyrimidin-5-yl)isoindoline-1,3-dione
@<TRIPOS>ATOM
      1 C1          5.9052    6.7190   -0.0754 C.ar      1 <0>        -0.0941
      2 C2          6.6228    5.5426    0.0325 C.ar      1 <0>        -0.0908
      3 C3          5.9672    4.3226    0.0930 C.ar      1 <0>        -0.0421
      4 C4          4.5831    4.2836    0.0449 C.ar      1 <0>        -0.1327
      5 C5          3.8513    5.4834   -0.0651 C.ar      1 <0>        -0.1389
      6 C6          4.5200    6.6954   -0.1239 C.ar      1 <0>        -0.0401
      7 C7          2.4272    5.0876   -0.0900 C.2       1 <0>         0.5773
      8 O1          1.4822    5.8455   -0.1778 O.2       1 <0>        -0.4543
      9 N1          2.3531    3.7474    0.0002 N.am      1 <0>        -0.5030
     10 C8          3.5786    3.1998    0.0885 C.2       1 <0>         0.5780
     11 O2          3.8196    2.0133    0.1851 O.2       1 <0>        -0.4402
     12 C9          1.1507    3.0148    0.0073 C.2       1 <0>        -0.0588
     13 C10         0.3281    3.0342   -1.0678 C.2       1 <0>         0.2115
     14 N2         -0.8384    2.3133   -1.0412 N.am      1 <0>        -0.6295
     15 H1         -1.4450    2.3235   -1.8361 H         1 <0>         0.4535
     16 C11        -1.1744    1.5927    0.0439 C.2       1 <0>         0.6999
     17 O3         -2.2161    0.9654    0.0466 O.2       1 <0>        -0.5263
     18 N3         -0.3732    1.5506    1.1243 N.am      1 <0>        -0.6534
     19 H2         -0.6368    1.0023    1.9179 H         1 <0>         0.4464
     20 C12         0.7831    2.2439    1.1423 C.2       1 <0>         0.5590
     21 O4          1.5056    2.2091    2.1220 O.2       1 <0>        -0.4903
     22 H3          6.4274    7.6633   -0.1220 H         1 <0>         0.1454
     23 H4          7.7017    5.5740    0.0696 H         1 <0>         0.1455
     24 H5          6.5329    3.4065    0.1769 H         1 <0>         0.1451
     25 H6          3.9645    7.6177   -0.2082 H         1 <0>         0.1450
     26 H7          0.5886    3.6141   -1.9408 H         1 <0>         0.1881
@<TRIPOS>BOND
     1    1    6 ar
     2    1    2 ar
     3    1   22 1
     4    2    3 ar
     5    2   23 1
     6    3    4 ar
     7    3   24 1
     8    4   10 1
     9    4    5 ar
    10    5    6 ar
    11    5    7 1
    12    6   25 1
    13    7    8 2
    14    7    9 am
    15    9   10 am
    16    9   12 1
    17   10   11 2
    18   12   20 1
    19   12   13 2
    20   13   14 1
    21   13   26 1
    22   14   15 1
    23   14   16 am
    24   16   17 2
    25   16   18 am
    26   18   19 1
    27   18   20 am
    28   20   21 2
@<TRIPOS>MOLECULE
ZINC01410328
   30    32     0     0     0
SMALL
USER_CHARGES
2-[(3S)-2-oxo-3-piperidyl]isoindoline-1,3-dione
@<TRIPOS>ATOM
      1 C1          0.6111    6.0496    0.0260 C.ar      1 <0>        -0.0938
      2 C2         -0.7710    6.0308    0.0391 C.ar      1 <0>        -0.0938
      3 C3         -1.4573    4.8265    0.0396 C.ar      1 <0>        -0.0432
      4 C4         -0.7520    3.6339    0.0273 C.ar      1 <0>        -0.1384
      5 C5          0.6572    3.6531    0.0145 C.ar      1 <0>        -0.1379
      6 C6          1.3299    4.8645    0.0142 C.ar      1 <0>        -0.0425
      7 C7          1.0809    2.2370    0.0038 C.2       1 <0>         0.5808
      8 O1          2.2288    1.8406   -0.0083 O.2       1 <0>        -0.4578
      9 N1         -0.0178    1.4608    0.0101 N.am      1 <0>        -0.5626
     10 C8         -1.1372    2.2068    0.0189 C.2       1 <0>         0.5780
     11 O2         -2.2739    1.7793    0.0222 O.2       1 <0>        -0.4564
     12 C9          0.0021   -0.0041    0.0020 C.3       1 <0>         0.1318
     13 H1          1.0349   -0.3521   -0.0128 H         1 <0>         0.1398
     14 C10        -0.6915   -0.5289    1.2616 C.3       1 <0>        -0.1396
     15 C11        -0.9044   -2.0395    1.1036 C.3       1 <0>        -0.1326
     16 C12        -1.9274   -2.2758   -0.0081 C.3       1 <0>         0.1047
     17 N2         -1.5558   -1.5377   -1.2087 N.am      1 <0>        -0.7087
     18 C13        -0.7110   -0.5059   -1.2207 C.2       1 <0>         0.5148
     19 O3         -0.5080    0.0575   -2.2753 O.2       1 <0>        -0.5386
     20 H2          1.1346    6.9943    0.0255 H         1 <0>         0.1448
     21 H3         -1.3199    6.9609    0.0486 H         1 <0>         0.1446
     22 H4         -2.5373    4.8179    0.0491 H         1 <0>         0.1435
     23 H5          2.4097    4.8852    0.0047 H         1 <0>         0.1445
     24 H6         -0.0654   -0.3357    2.1327 H         1 <0>         0.0879
     25 H7         -1.6544   -0.0331    1.3839 H         1 <0>         0.0898
     26 H8         -1.2781   -2.4559    2.0391 H         1 <0>         0.0977
     27 H9          0.0386   -2.5189    0.8409 H         1 <0>         0.0794
     28 H10        -2.9093   -1.9440    0.3294 H         1 <0>         0.0733
     29 H11        -1.9698   -3.3404   -0.2384 H         1 <0>         0.0849
     30 H12        -1.9473   -1.8144   -2.0519 H         1 <0>         0.4058
@<TRIPOS>BOND
     1    1    6 ar
     2    1    2 ar
     3    1   20 1
     4    2    3 ar
     5    2   21 1
     6    3    4 ar
     7    3   22 1
     8    4   10 1
     9    4    5 ar
    10    5    6 ar
    11    5    7 1
    12    6   23 1
    13    7    8 2
    14    7    9 am
    15    9   10 am
    16    9   12 1
    17   10   11 2
    18   12   13 1
    19   12   18 1
    20   12   14 1
    21   14   15 1
    22   14   24 1
    23   14   25 1
    24   15   16 1
    25   15   26 1
    26   15   27 1
    27   16   17 1
    28   16   28 1
    29   16   29 1
    30   17   18 am
    31   17   30 1
    32   18   19 2
@<TRIPOS>MOLECULE
ZINC01410329
   30    32     0     0     0
SMALL
USER_CHARGES
2-[(3R)-2-oxo-3-piperidyl]isoindoline-1,3-dione
@<TRIPOS>ATOM
      1 C1         -3.4874    2.8517    0.0485 C.ar      1 <0>        -0.0937
      2 C2         -3.0362    4.1582    0.0509 C.ar      1 <0>        -0.0938
      3 C3         -1.6775    4.4325    0.0401 C.ar      1 <0>        -0.0431
      4 C4         -0.7661    3.3889    0.0267 C.ar      1 <0>        -0.1385
      5 C5         -1.2262    2.0566    0.0184 C.ar      1 <0>        -0.1378
      6 C6         -2.5873    1.7976    0.0357 C.ar      1 <0>        -0.0426
      7 C7         -0.0144    1.2103    0.0087 C.2       1 <0>         0.5807
      8 O1          0.0021   -0.0041    0.0020 O.2       1 <0>        -0.4577
      9 N1          1.0671    2.0103    0.0027 N.am      1 <0>        -0.5625
     10 C8          0.7097    3.3071    0.0126 C.2       1 <0>         0.5780
     11 O2          1.4720    4.2525    0.0096 O.2       1 <0>        -0.4566
     12 C9          2.4518    1.5321   -0.0122 C.3       1 <0>         0.1319
     13 H1          2.4585    0.4421   -0.0144 H         1 <0>         0.1398
     14 C10         3.1794    2.0425    1.2340 C.3       1 <0>        -0.1401
     15 C11         4.6789    1.7695    1.0656 C.3       1 <0>        -0.1325
     16 C12         5.2136    2.6519   -0.0630 C.3       1 <0>         0.1049
     17 N2          4.3850    2.5144   -1.2542 N.am      1 <0>        -0.7087
     18 C13         3.1403    2.0359   -1.2481 C.2       1 <0>         0.5145
     19 O3          2.5317    2.0060   -2.2968 O.2       1 <0>        -0.5387
     20 H2         -4.5485    2.6507    0.0571 H         1 <0>         0.1449
     21 H3         -3.7472    4.9711    0.0617 H         1 <0>         0.1446
     22 H4         -1.3308    5.4553    0.0417 H         1 <0>         0.1435
     23 H5         -2.9455    0.7787    0.0339 H         1 <0>         0.1445
     24 H6          3.0116    3.1139    1.3439 H         1 <0>         0.0901
     25 H7          2.8076    1.5205    2.1157 H         1 <0>         0.0879
     26 H8          5.2002    2.0063    1.9932 H         1 <0>         0.0977
     27 H9          4.8338    0.7196    0.8169 H         1 <0>         0.0793
     28 H10         5.2094    3.6927    0.2606 H         1 <0>         0.0734
     29 H11         6.2356    2.3553   -0.2989 H         1 <0>         0.0849
     30 H12         4.7627    2.7880   -2.1048 H         1 <0>         0.4058
@<TRIPOS>BOND
     1    1    6 ar
     2    1    2 ar
     3    1   20 1
     4    2    3 ar
     5    2   21 1
     6    3    4 ar
     7    3   22 1
     8    4   10 1
     9    4    5 ar
    10    5    6 ar
    11    5    7 1
    12    6   23 1
    13    7    8 2
    14    7    9 am
    15    9   10 am
    16    9   12 1
    17   10   11 2
    18   12   13 1
    19   12   18 1
    20   12   14 1
    21   14   15 1
    22   14   24 1
    23   14   25 1
    24   15   16 1
    25   15   26 1
    26   15   27 1
    27   16   17 1
    28   16   28 1
    29   16   29 1
    30   17   18 am
    31   17   30 1
    32   18   19 2
@<TRIPOS>MOLECULE
ZINC02391787
   36    38     0     0     0
SMALL
USER_CHARGES

@<TRIPOS>ATOM
      1 C1         -0.1178   -0.3973    1.0631 C.3       1 <0>         0.0226
      2 O1         -0.7796   -0.6477   -0.1784 O.3       1 <0>        -0.3097
      3 C2         -0.0172   -1.1204   -1.1998 C.ar      1 <0>         0.1457
      4 C3          1.3387   -1.3434   -1.0074 C.ar      1 <0>        -0.1935
      5 C4          2.1136   -1.8230   -2.0445 C.ar      1 <0>        -0.0644
      6 C5          1.5357   -2.0826   -3.2802 C.ar      1 <0>         0.0863
      7 C6          0.1786   -1.8597   -3.4719 C.ar      1 <0>        -0.0557
      8 C7         -0.5963   -1.3850   -2.4325 C.ar      1 <0>        -0.1372
      9 N1          2.3221   -2.5692   -4.3338 N.pl3     1 <0>        -0.2938
     10 C8          3.2454   -3.5719   -4.2534 C.2       1 <0>         0.1350
     11 C9          3.7816   -3.7312   -5.5005 C.2       1 <0>        -0.2030
     12 C10         3.1713   -2.8082   -6.3498 C.2       1 <0>        -0.0138
     13 N2          2.2977   -2.1184   -5.6598 N.2       1 <0>        -0.2180
     14 C11         3.4638   -2.6375   -7.8183 C.3       1 <0>         0.5579
     15 F1          2.6193   -3.4690   -8.5617 F         1 <0>        -0.1653
     16 F2          3.2473   -1.3050   -8.1852 F         1 <0>        -0.1647
     17 F3          4.7964   -2.9803   -8.0712 F         1 <0>        -0.1626
     18 C12         3.6002   -4.3421   -3.0414 C.ar      1 <0>        -0.0396
     19 C13         2.6735   -4.4887   -2.0086 C.ar      1 <0>        -0.0898
     20 C14         3.0097   -5.2085   -0.8808 C.ar      1 <0>        -0.1064
     21 C15         4.2642   -5.7845   -0.7724 C.ar      1 <0>        -0.0208
     22 C16         5.1879   -5.6424   -1.7941 C.ar      1 <0>        -0.1070
     23 C17         4.8608   -4.9296   -2.9290 C.ar      1 <0>        -0.0720
     24 Cl1         4.6808   -6.6880    0.6502 Cl        1 <0>        -0.0590
     25 H1          0.3249   -1.3225    1.4320 H         1 <0>         0.0598
     26 H2          0.6654    0.3461    0.9139 H         1 <0>         0.0596
     27 H3         -0.8389   -0.0243    1.7905 H         1 <0>         0.1057
     28 H4          1.7880   -1.1414   -0.0464 H         1 <0>         0.1431
     29 H5          3.1691   -1.9959   -1.8949 H         1 <0>         0.1359
     30 H6         -0.2714   -2.0611   -4.4328 H         1 <0>         0.1431
     31 H7         -1.6527   -1.2157   -2.5802 H         1 <0>         0.1462
     32 H8          4.5430   -4.4449   -5.7789 H         1 <0>         0.1707
     33 H9          1.6950   -4.0393   -2.0918 H         1 <0>         0.1377
     34 H10         2.2933   -5.3227   -0.0808 H         1 <0>         0.1402
     35 H11         6.1649   -6.0938   -1.7041 H         1 <0>         0.1436
     36 H12         5.5806   -4.8228   -3.7271 H         1 <0>         0.1433
@<TRIPOS>BOND
     1    1    2 1
     2    1   25 1
     3    1   26 1
     4    1   27 1
     5    2    3 1
     6    3    8 ar
     7    3    4 ar
     8    4    5 ar
     9    4   28 1
    10    5    6 ar
    11    5   29 1
    12    6    7 ar
    13    6    9 1
    14    7    8 ar
    15    7   30 1
    16    8   31 1
    17    9   13 1
    18    9   10 1
    19   10   11 2
    20   10   18 1
    21   11   12 1
    22   11   32 1
    23   12   13 2
    24   12   14 1
    25   14   15 1
    26   14   16 1
    27   14   17 1
    28   18   23 ar
    29   18   19 ar
    30   19   20 ar
    31   19   33 1
    32   20   21 ar
    33   20   34 1
    34   21   22 ar
    35   21   24 1
    36   22   23 ar
    37   22   35 1
    38   23   36 1
@<TRIPOS>MOLECULE
ZINC26673721
   39    42     0     0     0
SMALL
USER_CHARGES

@<TRIPOS>ATOM
      1 C1         -0.3289    1.2153    0.7860 C.ar      1 <0>        -0.1114
      2 C2          0.8049    1.9875    0.9745 C.ar      1 <0>        -0.0834
      3 C3          2.0604    1.4162    0.9011 C.ar      1 <0>        -0.0874
      4 C4          2.1920    0.0591    0.6413 C.ar      1 <0>        -0.0632
      5 C5          1.0441   -0.7268    0.4610 C.ar      1 <0>        -0.0516
      6 C6         -0.2162   -0.1360    0.5292 C.ar      1 <0>        -0.0941
      7 C7          1.1783   -2.1763    0.2187 C.2       1 <0>         0.1504
      8 C8          2.2907   -2.9205    0.5117 C.2       1 <0>        -0.1836
      9 C9          2.0349   -4.2367    0.1425 C.2       1 <0>         0.0122
     10 N1          0.8237   -4.3022   -0.3554 N.2       1 <0>        -0.2106
     11 N2          0.2568   -3.0198   -0.3223 N.pl3     1 <0>        -0.3056
     12 C10        -1.0252   -2.6703   -0.7655 C.ar      1 <0>         0.1922
     13 C11        -1.2024   -1.5526   -1.5703 C.ar      1 <0>        -0.1301
     14 C12        -2.4677   -1.2106   -2.0057 C.ar      1 <0>        -0.0046
     15 C13        -3.5575   -1.9796   -1.6406 C.ar      1 <0>        -0.6715
     16 C14        -3.3843   -3.0932   -0.8393 C.ar      1 <0>         0.0033
     17 C15        -2.1207   -3.4440   -0.4057 C.ar      1 <0>        -0.1197
     18 S1         -5.1702   -1.5392   -2.1971 S.o2      1 <0>         2.7037
     19 O1         -6.0879   -2.1042   -1.2709 O.2       1 <0>        -0.9557
     20 O2         -5.1355   -0.1476   -2.4826 O.2       1 <0>        -0.9530
     21 N3         -5.4182   -2.3124   -3.6405 N.pl3     1 <0>        -1.2460
     22 C16         2.9897   -5.3933    0.2896 C.3       1 <0>         0.5592
     23 F1          2.8041   -5.9954    1.5387 F         1 <0>        -0.1607
     24 F2          2.7463   -6.3302   -0.7205 F         1 <0>        -0.1601
     25 F3          4.3051   -4.9281    0.1870 F         1 <0>        -0.1595
     26 C17         3.5517   -2.3665    1.1255 C.3       1 <0>        -0.0427
     27 S2          3.7933   -0.6674    0.5310 S.3       1 <0>        -0.0781
     28 H1         -1.3059    1.6717    0.8446 H         1 <0>         0.1370
     29 H2          0.7070    3.0432    1.1798 H         1 <0>         0.1386
     30 H3          2.9401    2.0259    1.0455 H         1 <0>         0.1417
     31 H4         -1.1030   -0.7346    0.3816 H         1 <0>         0.1318
     32 H5         -0.3518   -0.9512   -1.8552 H         1 <0>         0.1468
     33 H6         -2.6062   -0.3415   -2.6316 H         1 <0>         0.1597
     34 H7         -4.2374   -3.6916   -0.5556 H         1 <0>         0.1588
     35 H8         -1.9855   -4.3166    0.2161 H         1 <0>         0.1485
     36 H9         -6.3148   -2.5733   -3.9031 H         1 <0>         0.4245
     37 H10        -4.6669   -2.5043   -4.2232 H         1 <0>         0.4184
     38 H11         3.4591   -2.3646    2.2116 H         1 <0>         0.1088
     39 H12         4.4022   -2.9809    0.8303 H         1 <0>         0.1371
@<TRIPOS>BOND
     1    1    6 ar
     2    1    2 ar
     3    1   28 1
     4    2    3 ar
     5    2   29 1
     6    3    4 ar
     7    3   30 1
     8    4   27 1
     9    4    5 ar
    10    5    6 ar
    11    5    7 1
    12    6   31 1
    13    7   11 1
    14    7    8 2
    15    8    9 1
    16    8   26 1
    17    9   10 2
    18    9   22 1
    19   10   11 1
    20   11   12 1
    21   12   17 ar
    22   12   13 ar
    23   13   14 ar
    24   13   32 1
    25   14   15 ar
    26   14   33 1
    27   15   16 ar
    28   15   18 1
    29   16   17 ar
    30   16   34 1
    31   17   35 1
    32   18   19 2
    33   18   20 2
    34   18   21 1
    35   21   36 1
    36   21   37 1
    37   22   23 1
    38   22   24 1
    39   22   25 1
    40   26   27 1
    41   26   38 1
    42   26   39 1
@<TRIPOS>MOLECULE
ZINC01845036
   26    27     0     0     0
SMALL
USER_CHARGES
1-[3-(trifluoromethyl)phenyl]-4,5-dihydropyrazol-3-amine
@<TRIPOS>ATOM
      1 C1          1.1769    1.7819    0.0004 C.ar      1 <0>        -0.0722
      2 C2         -0.0126    1.0758    0.0080 C.ar      1 <0>        -0.1293
      3 C3         -1.2205    1.7491    0.0173 C.ar      1 <0>        -0.1395
      4 C4         -1.2433    3.1298    0.0298 C.ar      1 <0>        -0.1202
      5 C5         -0.0501    3.8429    0.0218 C.ar      1 <0>         0.2468
      6 C6          1.1623    3.1623    0.0070 C.ar      1 <0>        -0.1621
      7 N1         -0.0690    5.2369    0.0281 N.pl3     1 <0>        -0.4689
      8 C7          1.1160    6.1097    0.0204 C.3       1 <0>         0.0893
      9 C8          0.5165    7.5300    0.0318 C.3       1 <0>        -0.1304
     10 C9         -0.9769    7.2939    0.0451 C.2       1 <0>         0.3283
     11 N2         -1.2130    6.0324    0.0366 N.2       1 <0>        -0.3279
     12 N3         -1.9433    8.2881    0.0583 N.pl3     1 <0>        -0.8296
     13 C10        -2.5135    0.9751    0.0192 C.3       1 <0>         0.5086
     14 F1         -2.2361   -0.3961    0.0105 F         1 <0>        -0.1765
     15 F2         -3.2469    1.2952    1.1668 F         1 <0>        -0.1763
     16 F3         -3.2577    1.3076   -1.1177 F         1 <0>        -0.1762
     17 H1          2.1183    1.2526   -0.0111 H         1 <0>         0.1373
     18 H2          0.0021   -0.0041    0.0020 H         1 <0>         0.1367
     19 H3         -2.1870    3.6549    0.0409 H         1 <0>         0.1395
     20 H4          2.0914    3.7129    0.0004 H         1 <0>         0.1299
     21 H5          1.7223    5.9417    0.9105 H         1 <0>         0.0817
     22 H6          1.7067    5.9470   -0.8812 H         1 <0>         0.0816
     23 H7          0.8265    8.0687    0.9272 H         1 <0>         0.1030
     24 H8          0.8095    8.0760   -0.8649 H         1 <0>         0.1031
     25 H9         -1.6790    9.2214    0.0596 H         1 <0>         0.4138
     26 H10        -2.8836    8.0502    0.0663 H         1 <0>         0.4097
@<TRIPOS>BOND
     1    1    6 ar
     2    1    2 ar
     3    1   17 1
     4    2    3 ar
     5    2   18 1
     6    3    4 ar
     7    3   13 1
     8    4    5 ar
     9    4   19 1
    10    5    6 ar
    11    5    7 1
    12    6   20 1
    13    7   11 1
    14    7    8 1
    15    8    9 1
    16    8   21 1
    17    8   22 1
    18    9   10 1
    19    9   23 1
    20    9   24 1
    21   10   11 2
    22   10   12 1
    23   12   25 1
    24   12   26 1
    25   13   14 1
    26   13   15 1
    27   13   16 1
@<TRIPOS>MOLECULE
ZINC27638621
   55    58     0     0     0
SMALL
USER_CHARGES

@<TRIPOS>ATOM
      1 C1         -0.8011    1.6349    0.6265 C.3       1 <0>         0.0245
      2 N1         -0.6557    0.1789    0.4967 N.3       1 <0>        -0.5440
      3 C2         -1.9683   -0.4782    0.4382 C.3       1 <0>         0.0405
      4 C3         -1.7777   -1.9655    0.1223 C.3       1 <0>         0.1162
      5 N2         -0.8402   -2.5349    1.1022 N.am      1 <0>        -0.5883
      6 C4          0.4437   -1.8501    1.3163 C.3       1 <0>         0.0878
      7 C5          0.1656   -0.3673    1.5852 C.3       1 <0>         0.0402
      8 C6         -1.1494   -3.6547    1.7855 C.2       1 <0>         0.6132
      9 O1         -2.2566   -4.1468    1.6778 O.2       1 <0>        -0.5220
     10 C7         -0.1477   -4.2819    2.6616 C.2       1 <0>         0.0260
     11 N3          1.1345   -3.9810    2.8140 N.2       1 <0>        -0.4458
     12 C8          1.9033   -4.6406    3.6439 C.2       1 <0>         0.1001
     13 C9          1.3457   -5.6915    4.3867 C.2       1 <0>        -0.1029
     14 S1         -0.3444   -5.6428    3.8037 S.3       1 <0>         0.1463
     15 C10         1.9765   -6.5850    5.3768 C.ar      1 <0>        -0.0595
     16 C11         2.7118   -6.0482    6.4369 C.ar      1 <0>        -0.0369
     17 C12         3.2992   -6.8865    7.3594 C.ar      1 <0>        -0.1483
     18 C13         3.1613   -8.2633    7.2366 C.ar      1 <0>         0.1481
     19 C14         2.4312   -8.8013    6.1845 C.ar      1 <0>        -0.2075
     20 C15         1.8355   -7.9704    5.2606 C.ar      1 <0>        -0.0514
     21 O2          3.7425   -9.0860    8.1481 O.3       1 <0>        -0.3126
     22 C16         3.5609  -10.4912    7.9623 C.3       1 <0>         0.0240
     23 C17         3.3338   -4.2840    3.7949 C.ar      1 <0>        -0.0631
     24 C18         4.2988   -5.2872    3.8804 C.ar      1 <0>        -0.0510
     25 C19         5.6291   -4.9519    4.0204 C.ar      1 <0>        -0.1496
     26 C20         6.0081   -3.6175    4.0761 C.ar      1 <0>         0.1390
     27 C21         5.0500   -2.6164    3.9917 C.ar      1 <0>        -0.2097
     28 C22         3.7185   -2.9445    3.8458 C.ar      1 <0>        -0.0457
     29 O3          7.3199   -3.2905    4.2141 O.3       1 <0>        -0.3157
     30 C23         7.6398   -1.8987    4.2645 C.3       1 <0>         0.0257
     31 H1          0.1826    2.1029    0.5907 H         1 <0>         0.0712
     32 H2         -1.4135    2.0133   -0.1919 H         1 <0>         0.0711
     33 H3         -1.2804    1.8688    1.5772 H         1 <0>         0.0262
     34 H4         -2.4712   -0.3721    1.3994 H         1 <0>         0.0405
     35 H5         -2.5724   -0.0151   -0.3419 H         1 <0>         0.0919
     36 H6         -2.7361   -2.4801    0.1906 H         1 <0>         0.1006
     37 H7         -1.3698   -2.0770   -0.8823 H         1 <0>         0.0829
     38 H8          0.9539   -2.2884    2.1740 H         1 <0>         0.1329
     39 H9          1.0651   -1.9506    0.4264 H         1 <0>         0.0788
     40 H10         1.1091    0.1761    1.6369 H         1 <0>         0.0893
     41 H11        -0.3670   -0.2628    2.5304 H         1 <0>         0.0373
     42 H12         2.8199   -4.9779    6.5329 H         1 <0>         0.1344
     43 H13         3.8681   -6.4726    8.1788 H         1 <0>         0.1388
     44 H14         2.3269   -9.8724    6.0927 H         1 <0>         0.1360
     45 H15         1.2641   -8.3894    4.4456 H         1 <0>         0.1303
     46 H16         4.0747  -11.0321    8.7570 H         1 <0>         0.1036
     47 H17         2.4971  -10.7271    7.9912 H         1 <0>         0.0585
     48 H18         3.9724  -10.7863    6.9971 H         1 <0>         0.0588
     49 H19         4.0046   -6.3254    3.8375 H         1 <0>         0.1300
     50 H20         6.3769   -5.7283    4.0871 H         1 <0>         0.1342
     51 H21         5.3482   -1.5793    4.0357 H         1 <0>         0.1317
     52 H22         2.9742   -2.1652    3.7754 H         1 <0>         0.1274
     53 H23         7.3133   -1.4173    3.3427 H         1 <0>         0.0572
     54 H24         7.1327   -1.4399    5.1133 H         1 <0>         0.0570
     55 H25         8.7172   -1.7774    4.3759 H         1 <0>         0.1016
@<TRIPOS>BOND
     1    1    2 1
     2    1   31 1
     3    1   32 1
     4    1   33 1
     5    2    7 1
     6    2    3 1
     7    3    4 1
     8    3   34 1
     9    3   35 1
    10    4    5 1
    11    4   36 1
    12    4   37 1
    13    5    6 1
    14    5    8 am
    15    6    7 1
    16    6   38 1
    17    6   39 1
    18    7   40 1
    19    7   41 1
    20    8    9 2
    21    8   10 1
    22   10   14 1
    23   10   11 2
    24   11   12 1
    25   12   13 2
    26   12   23 1
    27   13   14 1
    28   13   15 1
    29   15   20 ar
    30   15   16 ar
    31   16   17 ar
    32   16   42 1
    33   17   18 ar
    34   17   43 1
    35   18   19 ar
    36   18   21 1
    37   19   20 ar
    38   19   44 1
    39   20   45 1
    40   21   22 1
    41   22   46 1
    42   22   47 1
    43   22   48 1
    44   23   28 ar
    45   23   24 ar
    46   24   25 ar
    47   24   49 1
    48   25   26 ar
    49   25   50 1
    50   26   27 ar
    51   26   29 1
    52   27   28 ar
    53   27   51 1
    54   28   52 1
    55   29   30 1
    56   30   53 1
    57   30   54 1
    58   30   55 1
@<TRIPOS>MOLECULE
ZINC26974195
   47    48     0     0     0
SMALL
USER_CHARGES
(5Z)-2-amino-5-[(3,5-ditert-butyl-4-hydroxy-phenyl)methylene]thiazol-4-one
@<TRIPOS>ATOM
      1 C1         -1.0652   -0.3967    0.5886 C.3       1 <0>        -0.1510
      2 C2         -1.5944    0.2405    1.8750 C.3       1 <0>        -0.0141
      3 C3         -1.9857    1.6940    1.6006 C.3       1 <0>        -0.1429
      4 C4         -2.8206   -0.5347    2.3612 C.3       1 <0>        -0.1426
      5 C5         -0.5224    0.2001    2.9334 C.ar      1 <0>        -0.1139
      6 C6          0.7038   -0.3565    2.6483 C.ar      1 <0>        -0.0470
      7 C7          1.6992   -0.3934    3.6330 C.ar      1 <0>        -0.1352
      8 C8          1.4404    0.1370    4.9031 C.ar      1 <0>        -0.0552
      9 C9          0.2106    0.6913    5.1772 C.ar      1 <0>        -0.1674
     10 C10        -0.7718    0.7303    4.1942 C.ar      1 <0>         0.2007
     11 O1         -1.9808    1.2834    4.4681 O.3       1 <0>        -0.5014
     12 C11        -0.0691    1.2628    6.5433 C.3       1 <0>        -0.0289
     13 C12         1.1692    1.1011    7.4272 C.3       1 <0>        -0.1468
     14 C13        -0.4130    2.7481    6.4140 C.3       1 <0>        -0.1557
     15 C14        -1.2476    0.5196    7.1755 C.3       1 <0>        -0.1556
     16 C15         3.0092   -0.9854    3.3346 C.2       1 <0>         0.0644
     17 C16         4.0266   -0.8654    4.2246 C.2       1 <0>        -0.2449
     18 C17         5.3625   -1.5063    4.2311 C.2       1 <0>         0.5511
     19 O2          5.7108   -2.2781    3.3520 O.2       1 <0>        -0.4701
     20 N1          6.1524   -1.1974    5.2360 N.2       1 <0>        -0.6728
     21 C18         5.7873   -0.3618    6.1953 C.2       1 <0>         0.4810
     22 S1          4.1349    0.1169    5.7152 S.3       1 <0>        -0.0557
     23 N2          6.5056    0.0429    7.2891 N.pl3     1 <0>        -0.7840
     24 H1         -0.7839   -1.4417    0.7859 H         1 <0>         0.0593
     25 H2         -0.1836    0.1607    0.2391 H         1 <0>         0.0591
     26 H3         -1.8477   -0.3672   -0.1840 H         1 <0>         0.0611
     27 H4         -2.3662    2.1521    2.5255 H         1 <0>         0.0713
     28 H5         -2.7681    1.7235    0.8280 H         1 <0>         0.0558
     29 H6         -1.1041    2.2513    1.2511 H         1 <0>         0.0508
     30 H7         -3.2010   -0.0765    3.2861 H         1 <0>         0.0707
     31 H8         -2.5393   -1.5797    2.5585 H         1 <0>         0.0510
     32 H9         -3.6031   -0.5052    1.5886 H         1 <0>         0.0559
     33 H10         0.8982   -0.7638    1.6671 H         1 <0>         0.1409
     34 H11         2.2045    0.1115    5.6660 H         1 <0>         0.1418
     35 H12        -2.1803    1.7035    5.4650 H         1 <0>         0.4241
     36 H13         0.9649    1.5183    8.4243 H         1 <0>         0.0641
     37 H14         2.0164    1.6355    6.9727 H         1 <0>         0.0625
     38 H15         1.4165    0.0333    7.5201 H         1 <0>         0.0627
     39 H16        -0.6172    3.1653    7.4111 H         1 <0>         0.0698
     40 H17        -1.3033    2.8643    5.7785 H         1 <0>         0.0594
     41 H18         0.4343    3.2824    5.9594 H         1 <0>         0.0669
     42 H19        -1.4518    0.9368    8.1726 H         1 <0>         0.0696
     43 H20        -1.0004   -0.5482    7.2683 H         1 <0>         0.0665
     44 H21        -2.1379    0.6360    6.5400 H         1 <0>         0.0592
     45 H22         3.1660   -1.5262    2.3896 H         1 <0>         0.1622
     46 H23         6.0634    0.7496    8.0067 H         1 <0>         0.4535
     47 H24         7.5246   -0.3388    7.4499 H         1 <0>         0.4498
@<TRIPOS>BOND
     1    1    2 1
     2    1   24 1
     3    1   25 1
     4    1   26 1
     5    2    3 1
     6    2    4 1
     7    2    5 1
     8    3   27 1
     9    3   28 1
    10    3   29 1
    11    4   30 1
    12    4   31 1
    13    4   32 1
    14    5   10 ar
    15    5    6 ar
    16    6    7 ar
    17    6   33 1
    18    7    8 ar
    19    7   16 1
    20    8    9 ar
    21    8   34 1
    22    9   10 ar
    23    9   12 1
    24   10   11 1
    25   11   35 1
    26   12   13 1
    27   12   14 1
    28   12   15 1
    29   13   36 1
    30   13   37 1
    31   13   38 1
    32   14   39 1
    33   14   40 1
    34   14   41 1
    35   15   42 1
    36   15   43 1
    37   15   44 1
    38   16   17 2
    39   16   45 1
    40   17   22 1
    41   17   18 1
    42   18   19 2
    43   18   20 1
    44   20   21 2
    45   21   22 1
    46   21   23 1
    47   23   46 1
    48   23   47 1
@<TRIPOS>MOLECULE
ZINC01440286
   31    32     0     0     0
SMALL
USER_CHARGES
2-amino-N-[3-(trifluoromethyl)phenyl]-benzamide
@<TRIPOS>ATOM
      1 C1         -0.1760    9.4459    0.4774 C.ar      1 <0>        -0.1839
      2 C2          1.0002   10.0742    0.8557 C.ar      1 <0>        -0.0399
      3 C3          2.2105    9.4236    0.7329 C.ar      1 <0>        -0.2029
      4 C4          2.2574    8.1301    0.2276 C.ar      1 <0>         0.2801
      5 C5          1.0681    7.4911   -0.1564 C.ar      1 <0>        -0.2297
      6 C6         -0.1492    8.1658   -0.0306 C.ar      1 <0>        -0.0390
      7 C7          1.1036    6.1192   -0.6945 C.2       1 <0>         0.5739
      8 O1          2.1500    5.4998   -0.7121 O.2       1 <0>        -0.5273
      9 N1         -0.0237    5.5514   -1.1670 N.am      1 <0>        -0.6702
     10 C8         -0.0149    4.2136   -1.5747 C.ar      1 <0>         0.1496
     11 C9         -0.8268    3.8002   -2.6232 C.ar      1 <0>        -0.1146
     12 C10        -0.8162    2.4785   -3.0230 C.ar      1 <0>        -0.0974
     13 C11         0.0014    1.5667   -2.3804 C.ar      1 <0>        -0.0892
     14 C12         0.8065    1.9737   -1.3327 C.ar      1 <0>        -0.1623
     15 C13         0.8052    3.2956   -0.9319 C.ar      1 <0>        -0.0734
     16 C14         1.6908    0.9753   -0.6311 C.3       1 <0>         0.5092
     17 F1          1.5241   -0.2856   -1.2136 F         1 <0>        -0.1759
     18 F2          3.0273    1.3712   -0.7506 F         1 <0>        -0.1731
     19 F3          1.3420    0.9136    0.7223 F         1 <0>        -0.1759
     20 N2          3.4746    7.4731    0.1026 N.pl3     1 <0>        -0.8606
     21 H1         -1.1181    9.9644    0.5774 H         1 <0>         0.1277
     22 H2          0.9690   11.0796    1.2487 H         1 <0>         0.1287
     23 H3          3.1225    9.9202    1.0296 H         1 <0>         0.1298
     24 H4         -1.0683    7.6826   -0.3276 H         1 <0>         0.1234
     25 H5         -0.8411    6.0705   -1.2242 H         1 <0>         0.4146
     26 H6         -1.4660    4.5116   -3.1250 H         1 <0>         0.1370
     27 H7         -1.4472    2.1564   -3.8382 H         1 <0>         0.1415
     28 H8          0.0077    0.5335   -2.6948 H         1 <0>         0.1412
     29 H9          1.4374    3.6138   -0.1161 H         1 <0>         0.1459
     30 H10         3.5042    6.5036    0.0974 H         1 <0>         0.4156
     31 H11         4.2952    7.9838    0.0204 H         1 <0>         0.3971
@<TRIPOS>BOND
     1    1    6 ar
     2    1    2 ar
     3    1   21 1
     4    2    3 ar
     5    2   22 1
     6    3    4 ar
     7    3   23 1
     8    4    5 ar
     9    4   20 1
    10    5    6 ar
    11    5    7 1
    12    6   24 1
    13    7    8 2
    14    7    9 am
    15    9   10 1
    16    9   25 1
    17   10   15 ar
    18   10   11 ar
    19   11   12 ar
    20   11   26 1
    21   12   13 ar
    22   12   27 1
    23   13   14 ar
    24   13   28 1
    25   14   15 ar
    26   14   16 1
    27   15   29 1
    28   16   17 1
    29   16   18 1
    30   16   19 1
    31   20   30 1
    32   20   31 1
@<TRIPOS>MOLECULE
ZINC00967563
   25    25     0     0     0
SMALL
USER_CHARGES

@<TRIPOS>ATOM
      1 C1         -0.0184    1.5028    0.0103 C.3       1 <0>        -0.1093
      2 C2          0.0021   -0.0041    0.0020 C.ar      1 <0>        -0.1161
      3 C3          0.0057   -0.6889   -1.1980 C.ar      1 <0>        -0.1036
      4 C4          0.0240   -2.0712   -1.2062 C.ar      1 <0>        -0.1197
      5 C5          0.0391   -2.7720   -0.0142 C.ar      1 <0>        -0.0656
      6 C6          0.0359   -2.0920    1.1881 C.ar      1 <0>        -0.1402
      7 C7          0.0230   -0.7046    1.1991 C.ar      1 <0>         0.1042
      8 O1          0.0255   -0.0332    2.3806 O.3       1 <0>        -0.4961
      9 C8          0.0584   -4.2788   -0.0269 C.3       1 <0>        -0.0581
     10 C9         -1.1879   -4.7988   -0.7460 C.3       1 <0>        -0.1449
     11 C10         1.3104   -4.7666   -0.7587 C.3       1 <0>        -0.1453
     12 H1          1.0042    1.8801    0.0026 H         1 <0>         0.0716
     13 H2         -0.5455    1.8639   -0.8728 H         1 <0>         0.0657
     14 H3         -0.5286    1.8543    0.9071 H         1 <0>         0.0667
     15 H4         -0.0060   -0.1439   -2.1303 H         1 <0>         0.1263
     16 H5          0.0261   -2.6047   -2.1453 H         1 <0>         0.1242
     17 H6          0.0477   -2.6398    2.1188 H         1 <0>         0.1271
     18 H7         -0.8570    0.1494    2.7312 H         1 <0>         0.3884
     19 H8          0.0684   -4.6507    0.9977 H         1 <0>         0.0779
     20 H9         -1.1979   -4.4269   -1.7706 H         1 <0>         0.0575
     21 H10        -1.1739   -5.8887   -0.7552 H         1 <0>         0.0598
     22 H11        -2.0798   -4.4513   -0.2247 H         1 <0>         0.0558
     23 H12         2.1982   -4.3961   -0.2464 H         1 <0>         0.0564
     24 H13         1.3244   -5.8565   -0.7679 H         1 <0>         0.0598
     25 H14         1.3004   -4.3947   -1.7833 H         1 <0>         0.0575
@<TRIPOS>BOND
     1    1    2 1
     2    1   12 1
     3    1   13 1
     4    1   14 1
     5    2    7 ar
     6    2    3 ar
     7    3    4 ar
     8    3   15 1
     9    4    5 ar
    10    4   16 1
    11    5    6 ar
    12    5    9 1
    13    6    7 ar
    14    6   17 1
    15    7    8 1
    16    8   18 1
    17    9   10 1
    18    9   11 1
    19    9   19 1
    20   10   20 1
    21   10   21 1
    22   10   22 1
    23   11   23 1
    24   11   24 1
    25   11   25 1
@<TRIPOS>MOLECULE
ZINC13441192
   52    54     0     0     0
SMALL
USER_CHARGES
2-[1-(4-chlorobenzoyl)-5-methoxy-2-methyl-indol-3-yl]-N-[(1S)-2-hydroxy-1-methyl-ethyl]acetamide
@<TRIPOS>ATOM
      1 C1         -1.1917   -3.5174   -0.0105 C.3       1 <0>        -0.1021
      2 C2         -0.4251   -2.2200   -0.0079 C.2       1 <0>         0.1169
      3 C3          0.9111   -2.1155   -0.0196 C.2       1 <0>        -0.1387
      4 C4          1.2335   -0.6844   -0.0124 C.ar      1 <0>        -0.0358
      5 C5          2.4278    0.0377   -0.0180 C.ar      1 <0>        -0.1099
      6 C6          2.3906    1.4188   -0.0075 C.ar      1 <0>         0.1115
      7 C7          1.1697    2.0871    0.0078 C.ar      1 <0>        -0.1756
      8 C8         -0.0148    1.3830    0.0138 C.ar      1 <0>        -0.0835
      9 C9          0.0028   -0.0062    0.0038 C.ar      1 <0>         0.0770
     10 N1         -0.9920   -0.9688    0.0062 N.am      1 <0>        -0.5050
     11 C10        -2.3159   -0.7166    0.0210 C.2       1 <0>         0.6027
     12 O1         -2.9060   -0.5062   -1.0203 O.2       1 <0>        -0.4284
     13 C11        -3.0493   -0.6961    1.3024 C.ar      1 <0>        -0.1658
     14 C12        -2.3586   -0.8381    2.5081 C.ar      1 <0>        -0.0419
     15 C13        -3.0484   -0.8123    3.7016 C.ar      1 <0>        -0.1205
     16 C14        -4.4250   -0.6575    3.7060 C.ar      1 <0>         0.0038
     17 C15        -5.1164   -0.5219    2.5133 C.ar      1 <0>        -0.1235
     18 C16        -4.4373   -0.5403    1.3135 C.ar      1 <0>        -0.0383
     19 Cl1        -5.2872   -0.6327    5.2125 Cl        1 <0>        -0.0525
     20 O2          3.5508    2.1277   -0.0124 O.3       1 <0>        -0.3169
     21 C17         3.4406    3.5524   -0.0009 C.3       1 <0>         0.0272
     22 C18         1.8975   -3.2547   -0.0373 C.3       1 <0>        -0.0662
     23 C19         2.2400   -3.6446    1.3776 C.2       1 <0>         0.5138
     24 O3          1.7330   -3.0554    2.3086 O.2       1 <0>        -0.5281
     25 N2          3.1097   -4.6480    1.6083 N.am      1 <0>        -0.7260
     26 C20         3.4426   -5.0271    2.9837 C.3       1 <0>         0.1447
     27 H1          3.4540   -4.1373    3.6131 H         1 <0>         0.0980
     28 C21         2.3950   -6.0104    3.5095 C.3       1 <0>        -0.1588
     29 C22         4.8219   -5.6886    3.0107 C.3       1 <0>         0.0662
     30 O4          4.7758   -6.9163    2.2808 O.3       1 <0>        -0.5705
     31 H2         -1.3670   -3.8379    1.0165 H         1 <0>         0.0859
     32 H3         -2.1475   -3.3737   -0.5144 H         1 <0>         0.0686
     33 H4         -0.6151   -4.2791   -0.5354 H         1 <0>         0.0917
     34 H5          3.3755   -0.4800   -0.0309 H         1 <0>         0.1321
     35 H6          1.1506    3.1669    0.0156 H         1 <0>         0.1352
     36 H7         -0.9568    1.9111    0.0218 H         1 <0>         0.1222
     37 H8         -1.2859   -0.9634    2.5056 H         1 <0>         0.1447
     38 H9         -2.5150   -0.9175    4.6347 H         1 <0>         0.1450
     39 H10        -6.1896   -0.4012    2.5233 H         1 <0>         0.1462
     40 H11        -4.9774   -0.4342    0.3843 H         1 <0>         0.1475
     41 H12         2.8926    3.8816   -0.8837 H         1 <0>         0.0552
     42 H13         2.9081    3.8684    0.8961 H         1 <0>         0.0551
     43 H14         4.4372    3.9939   -0.0064 H         1 <0>         0.1003
     44 H15         1.4576   -4.1082   -0.5530 H         1 <0>         0.1030
     45 H16         2.8032   -2.9431   -0.5576 H         1 <0>         0.1047
     46 H17         3.5151   -5.1192    0.8637 H         1 <0>         0.4044
     47 H18         2.3836   -6.9002    2.8800 H         1 <0>         0.0663
     48 H19         2.6427   -6.2924    4.5328 H         1 <0>         0.0619
     49 H20         1.4123   -5.5391    3.4903 H         1 <0>         0.0585
     50 H21         5.5536   -5.0219    2.5544 H         1 <0>         0.0534
     51 H22         5.1081   -5.8901    4.0430 H         1 <0>         0.0614
     52 H23         5.6179   -7.3910    2.2560 H         1 <0>         0.3834
@<TRIPOS>BOND
     1    1    2 1
     2    1   31 1
     3    1   32 1
     4    1   33 1
     5    2   10 1
     6    2    3 2
     7    3    4 1
     8    3   22 1
     9    4    9 ar
    10    4    5 ar
    11    5    6 ar
    12    5   34 1
    13    6    7 ar
    14    6   20 1
    15    7    8 ar
    16    7   35 1
    17    8    9 ar
    18    8   36 1
    19    9   10 1
    20   10   11 am
    21   11   12 2
    22   11   13 1
    23   13   18 ar
    24   13   14 ar
    25   14   15 ar
    26   14   37 1
    27   15   16 ar
    28   15   38 1
    29   16   17 ar
    30   16   19 1
    31   17   18 ar
    32   17   39 1
    33   18   40 1
    34   20   21 1
    35   21   41 1
    36   21   42 1
    37   21   43 1
    38   22   23 1
    39   22   44 1
    40   22   45 1
    41   23   24 2
    42   23   25 am
    43   25   26 1
    44   25   46 1
    45   26   27 1
    46   26   28 1
    47   26   29 1
    48   28   47 1
    49   28   48 1
    50   28   49 1
    51   29   30 1
    52   29   50 1
    53   29   51 1
    54   30   52 1
@<TRIPOS>MOLECULE
ZINC00600558
   37    39     0     0     0
SMALL
USER_CHARGES

@<TRIPOS>ATOM
      1 C1          1.1545   -0.5804   -0.5546 C.ar      1 <0>        -0.0922
      2 C2          2.3350    0.1331   -0.5717 C.ar      1 <0>        -0.1046
      3 C3          2.3775    1.4188   -0.0594 C.ar      1 <0>        -0.0175
      4 C4          1.2368    1.9957    0.4730 C.ar      1 <0>        -0.1057
      5 C5          0.0508    1.2916    0.4958 C.ar      1 <0>        -0.0692
      6 C6          0.0018   -0.0040   -0.0198 C.ar      1 <0>        -0.0466
      7 C7         -1.2672   -0.7638    0.0010 C.2       1 <0>         0.1429
      8 C8         -2.5276   -0.2357    0.0142 C.2       1 <0>        -0.1983
      9 C9         -3.4353   -1.2951    0.0320 C.2       1 <0>        -0.0038
     10 N1         -2.7656   -2.4202    0.0299 N.2       1 <0>        -0.2138
     11 N2         -1.3969   -2.1233    0.0045 N.pl3     1 <0>        -0.3160
     12 C10        -0.3496   -3.0535   -0.0108 C.ar      1 <0>         0.1963
     13 C11         0.7406   -2.8878    0.8332 C.ar      1 <0>        -0.1334
     14 C12         1.7713   -3.8069    0.8160 C.ar      1 <0>        -0.0002
     15 C13         1.7188   -4.8910   -0.0408 C.ar      1 <0>        -0.6720
     16 C14         0.6347   -5.0586   -0.8829 C.ar      1 <0>         0.0022
     17 C15        -0.4021   -4.1463   -0.8660 C.ar      1 <0>        -0.1224
     18 S1          3.0361   -6.0610   -0.0602 S.o2      1 <0>         2.7030
     19 O1          3.0051   -6.6865   -1.3357 O.2       1 <0>        -0.9564
     20 O2          4.1865   -5.3855    0.4293 O.2       1 <0>        -0.9562
     21 N3          2.6668   -7.2325    1.0505 N.pl3     1 <0>        -1.2485
     22 C16        -4.9367   -1.1658    0.0511 C.3       1 <0>         0.5581
     23 F1         -5.4186   -1.1331   -1.2618 F         1 <0>        -0.1632
     24 F2         -5.4904   -2.2603    0.7240 F         1 <0>        -0.1635
     25 F3         -5.2947    0.0158    0.7089 F         1 <0>        -0.1606
     26 Cl1         3.8666    2.3107   -0.0843 Cl        1 <0>        -0.0545
     27 H1          1.1215   -1.5815   -0.9584 H         1 <0>         0.1343
     28 H2          3.2279   -0.3122   -0.9850 H         1 <0>         0.1437
     29 H3          1.2759    2.9988    0.8714 H         1 <0>         0.1453
     30 H4         -0.8381    1.7424    0.9120 H         1 <0>         0.1443
     31 H5         -2.7767    0.8152    0.0117 H         1 <0>         0.1750
     32 H6          0.7826   -2.0409    1.5021 H         1 <0>         0.1460
     33 H7          2.6195   -3.6785    1.4722 H         1 <0>         0.1589
     34 H8          0.5967   -5.9061   -1.5512 H         1 <0>         0.1586
     35 H9         -1.2506   -4.2801   -1.5207 H         1 <0>         0.1486
     36 H10         1.8432   -7.1756    1.5598 H         1 <0>         0.4178
     37 H11         3.2741   -7.9756    1.1918 H         1 <0>         0.4237
@<TRIPOS>BOND
     1    1    6 ar
     2    1    2 ar
     3    1   27 1
     4    2    3 ar
     5    2   28 1
     6    3    4 ar
     7    3   26 1
     8    4    5 ar
     9    4   29 1
    10    5    6 ar
    11    5   30 1
    12    6    7 1
    13    7   11 1
    14    7    8 2
    15    8    9 1
    16    8   31 1
    17    9   10 2
    18    9   22 1
    19   10   11 1
    20   11   12 1
    21   12   17 ar
    22   12   13 ar
    23   13   14 ar
    24   13   32 1
    25   14   15 ar
    26   14   33 1
    27   15   16 ar
    28   15   18 1
    29   16   17 ar
    30   16   34 1
    31   17   35 1
    32   18   19 2
    33   18   20 2
    34   18   21 1
    35   21   36 1
    36   21   37 1
    37   22   23 1
    38   22   24 1
    39   22   25 1
