@<TRIPOS>MOLECULE
ZINC02570895
   40    42     0     0     0
SMALL
USER_CHARGES

@<TRIPOS>ATOM
      1 C1          0.0405    1.5033    0.0105 C.3       1 <0>        -0.1224
      2 C2          0.0481   -0.0036    0.0022 C.ar      1 <0>        -0.0617
      3 C3         -0.4654   -0.6891   -1.0843 C.ar      1 <0>        -0.1180
      4 C4         -0.4609   -2.0687   -1.0981 C.ar      1 <0>        -0.0762
      5 C5          0.0630   -2.7726   -0.0133 C.ar      1 <0>        -0.0606
      6 C6          0.5793   -2.0754    1.0794 C.ar      1 <0>        -0.0985
      7 C7          0.5738   -0.6957    1.0787 C.ar      1 <0>        -0.1165
      8 C8          0.0704   -4.2518   -0.0214 C.2       1 <0>         0.1497
      9 C9          0.0778   -5.0559   -1.1264 C.2       1 <0>        -0.2047
     10 C10         0.0841   -6.3814   -0.6911 C.2       1 <0>        -0.0034
     11 N1          0.0806   -6.3920    0.6183 N.2       1 <0>        -0.2184
     12 N2          0.0772   -5.0674    1.0740 N.pl3     1 <0>        -0.3181
     13 C11         0.0780   -4.6538    2.4124 C.ar      1 <0>         0.1993
     14 C12        -0.7877   -3.6523    2.8316 C.ar      1 <0>        -0.1310
     15 C13        -0.7845   -3.2467    4.1518 C.ar      1 <0>        -0.0008
     16 C14         0.0799   -3.8365    5.0557 C.ar      1 <0>        -0.6729
     17 C15         0.9432   -4.8341    4.6414 C.ar      1 <0>         0.0013
     18 C16         0.9405   -5.2485    3.3238 C.ar      1 <0>        -0.1237
     19 S1          0.0817   -3.3155    6.7389 S.o2      1 <0>         2.7035
     20 O1          1.3615   -3.6412    7.2635 O.2       1 <0>        -0.9570
     21 O2         -0.4336   -1.9913    6.7547 O.2       1 <0>        -0.9571
     22 N3         -1.0144   -4.2595    7.5449 N.pl3     1 <0>        -1.2487
     23 C17         0.0927   -7.5984   -1.5799 C.3       1 <0>         0.5581
     24 F1          1.4144   -7.9678   -1.8518 F         1 <0>        -0.1637
     25 F2         -0.5625   -8.6523   -0.9339 F         1 <0>        -0.1639
     26 F3         -0.5656   -7.3049   -2.7789 F         1 <0>        -0.1610
     27 H1          0.9639    1.8738   -0.4347 H         1 <0>         0.0767
     28 H2         -0.8113    1.8655   -0.5652 H         1 <0>         0.0714
     29 H3         -0.0366    1.8607    1.0374 H         1 <0>         0.0715
     30 H4         -0.8709   -0.1431   -1.9232 H         1 <0>         0.1331
     31 H5         -0.8624   -2.6027   -1.9467 H         1 <0>         0.1336
     32 H6          0.9862   -2.6145    1.9221 H         1 <0>         0.1246
     33 H7          0.9772   -0.1548    1.9220 H         1 <0>         0.1315
     34 H8          0.0784   -4.7241   -2.1542 H         1 <0>         0.1732
     35 H9         -1.4626   -3.1908    2.1259 H         1 <0>         0.1459
     36 H10        -1.4576   -2.4679    4.4785 H         1 <0>         0.1580
     37 H11         1.6174   -5.2926    5.3496 H         1 <0>         0.1579
     38 H12         1.6117   -6.0309    3.0018 H         1 <0>         0.1479
     39 H13        -1.5085   -4.9443    7.0675 H         1 <0>         0.4179
     40 H14        -1.1624   -4.1277    8.4945 H         1 <0>         0.4235
@<TRIPOS>BOND
     1    1    2 1
     2    1   27 1
     3    1   28 1
     4    1   29 1
     5    2    7 ar
     6    2    3 ar
     7    3    4 ar
     8    3   30 1
     9    4    5 ar
    10    4   31 1
    11    5    6 ar
    12    5    8 1
    13    6    7 ar
    14    6   32 1
    15    7   33 1
    16    8   12 1
    17    8    9 2
    18    9   10 1
    19    9   34 1
    20   10   11 2
    21   10   23 1
    22   11   12 1
    23   12   13 1
    24   13   18 ar
    25   13   14 ar
    26   14   15 ar
    27   14   35 1
    28   15   16 ar
    29   15   36 1
    30   16   17 ar
    31   16   19 1
    32   17   18 ar
    33   17   37 1
    34   18   38 1
    35   19   20 2
    36   19   21 2
    37   19   22 1
    38   22   39 1
    39   22   40 1
    40   23   24 1
    41   23   25 1
    42   23   26 1
@<TRIPOS>MOLECULE
ZINC01722325
   35    38     0     0     0
SMALL
USER_CHARGES
7,9-diphenyl-8-thiabicyclo[4.3.0]nona-2,4,6,9-tetraene
@<TRIPOS>ATOM
      1 C1          0.0090   -0.0059   -0.2695 C.ar      1 <0>        -0.1119
      2 C2          0.9999   -0.4000    0.6128 C.ar      1 <0>        -0.1155
      3 C3          2.1878    0.2970    0.6772 C.ar      1 <0>        -0.1036
      4 C4          2.3899    1.4050   -0.1520 C.ar      1 <0>        -0.0074
      5 C5          1.3839    1.7967   -1.0412 C.ar      1 <0>        -0.0964
      6 C6          0.2016    1.0893   -1.0938 C.ar      1 <0>        -0.1162
      7 C7          3.6556    2.1555   -0.0891 C.2       1 <0>        -0.1428
      8 C8          3.8366    3.5549   -0.0192 C.ar      1 <0>        -0.0686
      9 C9          2.7907    4.5234    0.0162 C.ar      1 <0>        -0.0932
     10 C10         3.0772    5.8423    0.0897 C.ar      1 <0>        -0.1152
     11 C11         4.3960    6.2963    0.1383 C.ar      1 <0>        -0.1151
     12 C12         5.4368    5.4344    0.1132 C.ar      1 <0>        -0.0933
     13 C13         5.2125    4.0283    0.0367 C.ar      1 <0>        -0.0685
     14 C14         6.2199    3.0383    0.0044 C.2       1 <0>        -0.1429
     15 S1          5.3128    1.5127   -0.0913 S.3       1 <0>         0.1807
     16 C15         7.6801    3.2264    0.0414 C.ar      1 <0>        -0.0074
     17 C16         8.2880    4.1741   -0.7883 C.ar      1 <0>        -0.0963
     18 C17         9.6551    4.3479   -0.7440 C.ar      1 <0>        -0.1162
     19 C18        10.4268    3.5795    0.1103 C.ar      1 <0>        -0.1118
     20 C19         9.8332    2.6358    0.9308 C.ar      1 <0>        -0.1156
     21 C20         8.4667    2.4541    0.9023 C.ar      1 <0>        -0.1036
     22 H1         -0.9193   -0.5560   -0.3154 H         1 <0>         0.1259
     23 H2          0.8405   -1.2531    1.2557 H         1 <0>         0.1277
     24 H3          2.9601   -0.0118    1.3662 H         1 <0>         0.1244
     25 H4          1.5327    2.6512   -1.6847 H         1 <0>         0.1267
     26 H5         -0.5763    1.3907   -1.7796 H         1 <0>         0.1281
     27 H6          1.7607    4.2006   -0.0201 H         1 <0>         0.1242
     28 H7          2.2695    6.5590    0.1109 H         1 <0>         0.1234
     29 H8          4.5887    7.3574    0.1967 H         1 <0>         0.1234
     30 H9          6.4472    5.8140    0.1517 H         1 <0>         0.1242
     31 H10         7.6877    4.7713   -1.4586 H         1 <0>         0.1268
     32 H11        10.1256    5.0822   -1.3811 H         1 <0>         0.1280
     33 H12        11.4976    3.7171    0.1372 H         1 <0>         0.1259
     34 H13        10.4419    2.0405    1.5952 H         1 <0>         0.1277
     35 H14         8.0049    1.7177    1.5433 H         1 <0>         0.1244
@<TRIPOS>BOND
     1    1    6 ar
     2    1    2 ar
     3    1   22 1
     4    2    3 ar
     5    2   23 1
     6    3    4 ar
     7    3   24 1
     8    4    5 ar
     9    4    7 1
    10    5    6 ar
    11    5   25 1
    12    6   26 1
    13    7   15 1
    14    7    8 2
    15    8   13 ar
    16    8    9 ar
    17    9   10 ar
    18    9   27 1
    19   10   11 ar
    20   10   28 1
    21   11   12 ar
    22   11   29 1
    23   12   13 ar
    24   12   30 1
    25   13   14 2
    26   14   15 1
    27   14   16 1
    28   16   21 ar
    29   16   17 ar
    30   17   18 ar
    31   17   31 1
    32   18   19 ar
    33   18   32 1
    34   19   20 ar
    35   19   33 1
    36   20   21 ar
    37   20   34 1
    38   21   35 1
@<TRIPOS>MOLECULE
ZINC00601283
   40    42     0     0     0
SMALL
USER_CHARGES

@<TRIPOS>ATOM
      1 C1         -0.0182    1.5027    0.0102 C.3       1 <0>        -0.0883
      2 C2          0.0021   -0.0042    0.0020 C.2       1 <0>         0.0711
      3 C3          0.0074   -0.7679   -1.0995 C.2       1 <0>        -0.0782
      4 C4          0.0293   -2.1662   -0.6567 C.ar      1 <0>        -0.0368
      5 C5          0.0428   -3.3917   -1.3243 C.ar      1 <0>        -0.0938
      6 C6          0.0625   -4.5656   -0.5961 C.ar      1 <0>         0.0956
      7 C7          0.0688   -4.5275    0.7953 C.ar      1 <0>        -0.1804
      8 C8          0.0551   -3.3226    1.4635 C.ar      1 <0>        -0.0946
      9 C9          0.0357   -2.1316    0.7482 C.ar      1 <0>         0.0803
     10 N1          0.0240   -0.7990    1.1223 N.am      1 <0>        -0.5123
     11 C10         0.0297   -0.3494    2.3928 C.2       1 <0>         0.6115
     12 O1         -1.0174   -0.0751    2.9450 O.2       1 <0>        -0.4412
     13 C11         1.3084   -0.1902    3.1139 C.ar      1 <0>        -0.1622
     14 C12         2.5190   -0.3985    2.4491 C.ar      1 <0>        -0.0360
     15 C13         3.7097   -0.2483    3.1279 C.ar      1 <0>        -0.1193
     16 C14         3.7070    0.1084    4.4664 C.ar      1 <0>         0.0005
     17 C15         2.5096    0.3160    5.1314 C.ar      1 <0>        -0.1284
     18 C16         1.3125    0.1750    4.4621 C.ar      1 <0>        -0.0426
     19 Cl1         5.2103    0.2955    5.3141 Cl        1 <0>        -0.0622
     20 O2          0.0753   -5.7626   -1.2410 O.3       1 <0>        -0.3182
     21 C17         0.0954   -6.9375   -0.4278 C.3       1 <0>         0.0304
     22 C18        -0.0069   -0.2812   -2.5257 C.3       1 <0>        -0.1253
     23 C19         1.4090   -0.0991   -3.0085 C.2       1 <0>         0.4982
     24 O3          2.3431   -0.3421   -2.2636 O.co2     1 <0>        -0.6866
     25 O4          1.6204    0.2911   -4.1441 O.co2     1 <0>        -0.7049
     26 H1          1.0044    1.8799    0.0025 H         1 <0>         0.0804
     27 H2         -0.5453    1.8638   -0.8729 H         1 <0>         0.0881
     28 H3         -0.5284    1.8543    0.9070 H         1 <0>         0.0568
     29 H4          0.0376   -3.4222   -2.4038 H         1 <0>         0.1332
     30 H5          0.0842   -5.4504    1.3560 H         1 <0>         0.1288
     31 H6          0.0595   -3.3039    2.5434 H         1 <0>         0.1161
     32 H7          2.5224   -0.6770    1.4056 H         1 <0>         0.1519
     33 H8          4.6464   -0.4095    2.6151 H         1 <0>         0.1453
     34 H9          2.5140    0.5936    6.1751 H         1 <0>         0.1420
     35 H10         0.3798    0.3418    4.9804 H         1 <0>         0.1449
     36 H11         0.9887   -6.9318    0.1968 H         1 <0>         0.0516
     37 H12        -0.7911   -6.9558    0.2062 H         1 <0>         0.0506
     38 H13         0.1040   -7.8210   -1.0660 H         1 <0>         0.0947
     39 H14        -0.5139   -1.0132   -3.1543 H         1 <0>         0.0698
     40 H15        -0.5343    0.6712   -2.5793 H         1 <0>         0.0692
@<TRIPOS>BOND
     1    1    2 1
     2    1   26 1
     3    1   27 1
     4    1   28 1
     5    2   10 1
     6    2    3 2
     7    3    4 1
     8    3   22 1
     9    4    9 ar
    10    4    5 ar
    11    5    6 ar
    12    5   29 1
    13    6    7 ar
    14    6   20 1
    15    7    8 ar
    16    7   30 1
    17    8    9 ar
    18    8   31 1
    19    9   10 1
    20   10   11 am
    21   11   12 2
    22   11   13 1
    23   13   18 ar
    24   13   14 ar
    25   14   15 ar
    26   14   32 1
    27   15   16 ar
    28   15   33 1
    29   16   17 ar
    30   16   19 1
    31   17   18 ar
    32   17   34 1
    33   18   35 1
    34   20   21 1
    35   21   36 1
    36   21   37 1
    37   21   38 1
    38   22   23 1
    39   22   39 1
    40   22   40 1
    41   23   24 2
    42   23   25 1
@<TRIPOS>MOLECULE
ZINC00976703
   28    30     0     0     0
SMALL
USER_CHARGES

@<TRIPOS>ATOM
      1 C1         -0.0167    1.3782    0.0096 C.ar      1 <0>        -0.0246
      2 C2          1.1707    2.0857    0.0021 C.ar      1 <0>        -0.1038
      3 C3          2.3778    1.4105   -0.0131 C.ar      1 <0>        -0.0438
      4 C4          2.3961    0.0274   -0.0207 C.ar      1 <0>        -0.0990
      5 C5          1.2082   -0.6793   -0.0132 C.ar      1 <0>        -0.0399
      6 C6          0.0021   -0.0041    0.0020 C.ar      1 <0>        -0.4143
      7 S1         -1.5119   -0.9055    0.0117 S.3       1 <0>         1.2930
      8 N1         -1.1430   -2.2247    0.6056 N.2       1 <0>        -1.1790
      9 S2         -1.2535   -3.3415   -0.6186 S.o2      1 <0>         2.5727
     10 O1         -2.3252   -4.2126   -0.2839 O.2       1 <0>        -0.9122
     11 O2          0.0651   -3.8087   -0.8683 O.2       1 <0>        -0.9217
     12 C7         -1.7567   -2.4411   -2.0509 C.ar      1 <0>        -0.5945
     13 C8         -1.8942   -1.1142   -1.6942 C.ar      1 <0>        -0.3944
     14 C9         -2.2853   -0.1902   -2.6525 C.ar      1 <0>         0.0417
     15 C10        -2.5348   -0.5942   -3.9489 C.ar      1 <0>        -0.0168
     16 C11        -2.3955   -1.9237   -4.3001 C.ar      1 <0>        -0.0257
     17 C12        -2.0049   -2.8472   -3.3483 C.ar      1 <0>         0.0113
     18 N2         -2.9526    0.3982   -4.9645 N.pl3     1 <0>         0.0245
     19 O3         -3.0751    1.5614   -4.6584 O.2       1 <0>        -0.1322
     20 O4         -3.1713    0.0457   -6.1000 O.3       1 <0>        -0.1340
     21 Br1         4.0026    2.3779   -0.0240 Br        1 <0>        -0.0268
     22 H1         -0.9592    1.9053    0.0260 H         1 <0>         0.1540
     23 H2          1.1559    3.1656    0.0077 H         1 <0>         0.1495
     24 H3          3.3384   -0.5003   -0.0329 H         1 <0>         0.1456
     25 H4          1.2224   -1.7592   -0.0191 H         1 <0>         0.1462
     26 H5         -2.3955    0.8498   -2.3829 H         1 <0>         0.1776
     27 H6         -2.5912   -2.2399   -5.3140 H         1 <0>         0.1784
     28 H7         -1.8949   -3.8870   -3.6187 H         1 <0>         0.1681
@<TRIPOS>BOND
     1    1    6 ar
     2    1    2 ar
     3    1   22 1
     4    2    3 ar
     5    2   23 1
     6    3    4 ar
     7    3   21 1
     8    4    5 ar
     9    4   24 1
    10    5    6 ar
    11    5   25 1
    12    6    7 1
    13    7   13 1
    14    7    8 2
    15    8    9 1
    16    9   10 2
    17    9   11 2
    18    9   12 1
    19   12   17 ar
    20   12   13 ar
    21   13   14 ar
    22   14   15 ar
    23   14   26 1
    24   15   16 ar
    25   15   18 1
    26   16   17 ar
    27   16   27 1
    28   17   28 1
    29   18   19 2
    30   18   20 1
@<TRIPOS>MOLECULE
ZINC06995767
   28    30     0     0     0
SMALL
USER_CHARGES

@<TRIPOS>ATOM
      1 C1         -0.0167    1.3782    0.0096 C.ar      1 <0>        -0.0400
      2 C2          1.1707    2.0857    0.0021 C.ar      1 <0>        -0.0990
      3 C3          2.3778    1.4105   -0.0131 C.ar      1 <0>        -0.0438
      4 C4          2.3961    0.0274   -0.0207 C.ar      1 <0>        -0.1038
      5 C5          1.2082   -0.6793   -0.0132 C.ar      1 <0>        -0.0246
      6 C6          0.0021   -0.0041    0.0020 C.ar      1 <0>        -0.4142
      7 S1         -1.5119   -0.9055    0.0117 S.3       1 <0>         1.2930
      8 N1         -2.4899    0.0377    0.6306 N.2       1 <0>        -1.1791
      9 S2         -3.5361    0.4927   -0.5762 S.o2      1 <0>         2.5730
     10 O1         -3.3197    1.8781   -0.8063 O.2       1 <0>        -0.9218
     11 O2         -4.8097   -0.0386   -0.2371 O.2       1 <0>        -0.9122
     12 C7         -2.9985   -0.3553   -2.0278 C.ar      1 <0>        -0.5946
     13 C8         -1.8942   -1.1142   -1.6942 C.ar      1 <0>        -0.3945
     14 C9         -1.2777   -1.8827   -2.6712 C.ar      1 <0>         0.0417
     15 C10        -1.7638   -1.8875   -3.9634 C.ar      1 <0>        -0.0168
     16 C11        -2.8695   -1.1259   -4.2915 C.ar      1 <0>        -0.0257
     17 C12        -3.4872   -0.3598   -3.3205 C.ar      1 <0>         0.0113
     18 N2         -1.0993   -2.7096   -4.9995 N.pl3     1 <0>         0.0245
     19 O3         -0.1318   -3.3759   -4.7139 O.2       1 <0>        -0.1321
     20 O4         -1.5240   -2.7147   -6.1314 O.3       1 <0>        -0.1341
     21 Br1         4.0026    2.3779   -0.0240 Br        1 <0>        -0.0268
     22 H1         -0.9592    1.9053    0.0260 H         1 <0>         0.1463
     23 H2          1.1559    3.1656    0.0077 H         1 <0>         0.1456
     24 H3          3.3384   -0.5003   -0.0329 H         1 <0>         0.1495
     25 H4          1.2224   -1.7592   -0.0191 H         1 <0>         0.1539
     26 H5         -0.4134   -2.4795   -2.4198 H         1 <0>         0.1776
     27 H6         -3.2495   -1.1293   -5.3024 H         1 <0>         0.1784
     28 H7         -4.3514    0.2368   -3.5727 H         1 <0>         0.1681
@<TRIPOS>BOND
     1    1    6 ar
     2    1    2 ar
     3    1   22 1
     4    2    3 ar
     5    2   23 1
     6    3    4 ar
     7    3   21 1
     8    4    5 ar
     9    4   24 1
    10    5    6 ar
    11    5   25 1
    12    6    7 1
    13    7   13 1
    14    7    8 2
    15    8    9 1
    16    9   10 2
    17    9   11 2
    18    9   12 1
    19   12   17 ar
    20   12   13 ar
    21   13   14 ar
    22   14   15 ar
    23   14   26 1
    24   15   16 ar
    25   15   18 1
    26   16   17 ar
    27   16   27 1
    28   17   28 1
    29   18   19 2
    30   18   20 1
@<TRIPOS>MOLECULE
ZINC03791739
   39    40     0     0     0
SMALL
USER_CHARGES

@<TRIPOS>ATOM
      1 C1          0.3342    2.3833    0.0426 C.3       1 <0>        -0.6679
      2 S1          0.0362    0.5945    0.0858 S.o2      1 <0>         2.6052
      3 O1          0.7948   -0.0031    1.1282 O.2       1 <0>        -0.9432
      4 O2         -1.3533    0.3265   -0.0441 O.2       1 <0>        -0.9389
      5 N1          0.7104    0.0168   -1.3120 N.pl3     1 <0>        -1.0450
      6 C2          2.0741    0.2082   -1.5624 C.ar      1 <0>         0.1782
      7 C3          2.9850    0.1716   -0.5167 C.ar      1 <0>        -0.1418
      8 C4          4.3313    0.3609   -0.7665 C.ar      1 <0>        -0.0551
      9 C5          4.7733    0.5869   -2.0568 C.ar      1 <0>        -0.0270
     10 C6          3.8710    0.6252   -3.1041 C.ar      1 <0>        -0.1307
     11 C7          2.5211    0.4303   -2.8631 C.ar      1 <0>         0.1189
     12 O3          1.6333    0.4612   -3.8930 O.3       1 <0>        -0.2967
     13 C8          2.1434    0.8205   -5.1786 C.3       1 <0>         0.0810
     14 C9          2.7350   -0.4170   -5.8565 C.3       1 <0>        -0.1482
     15 C10         3.2811   -0.0324   -7.2330 C.3       1 <0>        -0.1185
     16 C11         2.1466    0.5273   -8.0936 C.3       1 <0>        -0.1253
     17 C12         1.5550    1.7647   -7.4157 C.3       1 <0>        -0.1174
     18 C13         1.0089    1.3801   -6.0392 C.3       1 <0>        -0.1134
     19 N2          6.2160    0.7889   -2.3180 N.pl3     1 <0>         0.0336
     20 O4          7.0063    0.7562   -1.4036 O.2       1 <0>        -0.1487
     21 O5          6.6044    0.9867   -3.4457 O.3       1 <0>        -0.1578
     22 H1          1.4071    2.5721    0.0045 H         1 <0>         0.1303
     23 H2         -0.1414    2.8097   -0.8406 H         1 <0>         0.1349
     24 H3         -0.0840    2.8431    0.9381 H         1 <0>         0.1402
     25 H4          0.1603   -0.4541   -1.9573 H         1 <0>         0.4368
     26 H5          2.6424   -0.0044    0.4923 H         1 <0>         0.1899
     27 H6          5.0395    0.3326    0.0483 H         1 <0>         0.1655
     28 H7          4.2196    0.8023   -4.1108 H         1 <0>         0.1655
     29 H8          2.9192    1.5774   -5.0632 H         1 <0>         0.0785
     30 H9          3.5432   -0.8157   -5.2434 H         1 <0>         0.0688
     31 H10         1.9592   -1.1739   -5.9720 H         1 <0>         0.0787
     32 H11         4.0569    0.7245   -7.1176 H         1 <0>         0.0677
     33 H12         3.7026   -0.9140   -7.7160 H         1 <0>         0.0725
     34 H13         2.5357    0.8013   -9.0743 H         1 <0>         0.0692
     35 H14         1.3708   -0.2296   -8.2091 H         1 <0>         0.0661
     36 H15         2.3308    2.5216   -7.3003 H         1 <0>         0.0668
     37 H16         0.7468    2.1634   -8.0288 H         1 <0>         0.0749
     38 H17         0.2331    0.6232   -6.1547 H         1 <0>         0.0779
     39 H18         0.5874    2.2617   -5.5563 H         1 <0>         0.0740
@<TRIPOS>BOND
     1    1    2 1
     2    1   22 1
     3    1   23 1
     4    1   24 1
     5    2    3 2
     6    2    4 2
     7    2    5 1
     8    5    6 1
     9    5   25 1
    10    6   11 ar
    11    6    7 ar
    12    7    8 ar
    13    7   26 1
    14    8    9 ar
    15    8   27 1
    16    9   10 ar
    17    9   19 1
    18   10   11 ar
    19   10   28 1
    20   11   12 1
    21   12   13 1
    22   13   18 1
    23   13   14 1
    24   13   29 1
    25   14   15 1
    26   14   30 1
    27   14   31 1
    28   15   16 1
    29   15   32 1
    30   15   33 1
    31   16   17 1
    32   16   34 1
    33   16   35 1
    34   17   18 1
    35   17   36 1
    36   17   37 1
    37   18   38 1
    38   18   39 1
    39   19   20 2
    40   19   21 1
@<TRIPOS>MOLECULE
ZINC03791739
   38    39     0     0     0
SMALL
USER_CHARGES

@<TRIPOS>ATOM
      1 C1          0.2127    1.7212    0.2031 C.3       1 <0>        -0.6338
      2 S1         -0.0163   -0.0679    0.0103 S.o2      1 <0>         2.5267
      3 O1          0.6837   -0.7639    1.0325 O.2       1 <0>        -1.0204
      4 O2         -1.3799   -0.3603   -0.2620 O.2       1 <0>        -1.0203
      5 N1          0.7853   -0.4514   -1.3871 N.2       1 <0>        -1.0560
      6 C2          0.8097   -1.7759   -1.8389 C.ar      1 <0>         0.3189
      7 C3          0.1583   -2.7679   -1.1206 C.ar      1 <0>        -0.2458
      8 C4          0.1839   -4.0752   -1.5688 C.ar      1 <0>        -0.0134
      9 C5          0.8576   -4.3975   -2.7323 C.ar      1 <0>        -0.1308
     10 C6          1.5096   -3.4140   -3.4533 C.ar      1 <0>        -0.1230
     11 C7          1.4835   -2.1006   -3.0143 C.ar      1 <0>         0.0762
     12 O3          2.1189   -1.1312   -3.7259 O.3       1 <0>        -0.2762
     13 C8          2.8930   -1.5537   -4.8503 C.3       1 <0>         0.0791
     14 C9          1.9835   -1.6908   -6.0730 C.3       1 <0>        -0.1456
     15 C10         2.8123   -2.1432   -7.2769 C.3       1 <0>        -0.1168
     16 C11         3.9011   -1.1076   -7.5647 C.3       1 <0>        -0.1211
     17 C12         4.8105   -0.9704   -6.3420 C.3       1 <0>        -0.1155
     18 C13         3.9817   -0.5181   -5.1381 C.3       1 <0>        -0.1114
     19 N2          0.8815   -5.7991   -3.2072 N.pl3     1 <0>         0.0677
     20 O4          0.3123   -6.6604   -2.5779 O.2       1 <0>        -0.2097
     21 O5          1.4701   -6.0828   -4.2244 O.3       1 <0>        -0.2116
     22 H1          1.2769    1.9458    0.2741 H         1 <0>         0.1187
     23 H2         -0.2107    2.2366   -0.6590 H         1 <0>         0.1188
     24 H3         -0.2907    2.0563    1.1100 H         1 <0>         0.1065
     25 H4         -0.3684   -2.5189   -0.2112 H         1 <0>         0.1297
     26 H5         -0.3233   -4.8468   -1.0086 H         1 <0>         0.1346
     27 H6          2.0352   -3.6693   -4.3616 H         1 <0>         0.1416
     28 H7          3.3556   -2.5162   -4.6319 H         1 <0>         0.0672
     29 H8          1.2078   -2.4287   -5.8680 H         1 <0>         0.0689
     30 H9          1.5208   -0.7284   -6.2915 H         1 <0>         0.0722
     31 H10         3.2750   -3.1057   -7.0585 H         1 <0>         0.0645
     32 H11         2.1644   -2.2409   -8.1480 H         1 <0>         0.0642
     33 H12         4.4915   -1.4298   -8.4224 H         1 <0>         0.0609
     34 H13         3.4384   -0.1451   -7.7832 H         1 <0>         0.0625
     35 H14         5.2732   -1.9329   -6.1236 H         1 <0>         0.0634
     36 H15         5.5862   -0.2326   -6.5471 H         1 <0>         0.0662
     37 H16         3.5191    0.4444   -5.3566 H         1 <0>         0.0724
     38 H17         4.6297   -0.4204   -4.2671 H         1 <0>         0.0707
@<TRIPOS>BOND
     1    1    2 1
     2    1   22 1
     3    1   23 1
     4    1   24 1
     5    2    3 2
     6    2    4 2
     7    2    5 1
     8    5    6 1
     9    6   11 ar
    10    6    7 ar
    11    7    8 ar
    12    7   25 1
    13    8    9 ar
    14    8   26 1
    15    9   10 ar
    16    9   19 1
    17   10   11 ar
    18   10   27 1
    19   11   12 1
    20   12   13 1
    21   13   18 1
    22   13   14 1
    23   13   28 1
    24   14   15 1
    25   14   29 1
    26   14   30 1
    27   15   16 1
    28   15   31 1
    29   15   32 1
    30   16   17 1
    31   16   33 1
    32   16   34 1
    33   17   18 1
    34   17   35 1
    35   17   36 1
    36   18   37 1
    37   18   38 1
    38   19   20 2
    39   19   21 1
@<TRIPOS>MOLECULE
ZINC03864891
   22    23     0     0     0
SMALL
USER_CHARGES
1,3-bis(2-thienyl)prop-2-en-1-one
@<TRIPOS>ATOM
      1 C1         -1.0898    1.9051    0.0167 C.2       1 <0>        -0.1745
      2 C2         -0.8909    3.2626    0.0281 C.2       1 <0>        -0.1030
      3 C3          0.4266    3.7075    0.0179 C.2       1 <0>        -0.1843
      4 S1          1.3318    2.1702    0.0010 S.3       1 <0>         0.1420
      5 C4         -0.0126    1.0758    0.0080 C.2       1 <0>        -0.1898
      6 C5          0.9205    5.0337    0.0203 C.2       1 <0>         0.0531
      7 C6          2.2589    5.2595    0.0082 C.2       1 <0>        -0.2462
      8 C7          2.7530    6.5862    0.0107 C.2       1 <0>         0.4706
      9 O1          1.9759    7.5264    0.0236 O.2       1 <0>        -0.4565
     10 C8          4.2004    6.8304   -0.0024 C.2       1 <0>        -0.2577
     11 C9          4.8831    8.0371   -0.0025 C.2       1 <0>        -0.0759
     12 C10         6.2548    7.9791   -0.0165 C.2       1 <0>        -0.1807
     13 C11         6.8674    6.7662   -0.0293 C.2       1 <0>        -0.1840
     14 S2          5.5396    5.6517   -0.0144 S.3       1 <0>         0.1541
     15 H1         -2.0909    1.4999    0.0184 H         1 <0>         0.1390
     16 H2         -1.7201    3.9545    0.0401 H         1 <0>         0.1453
     17 H3          0.0021   -0.0041    0.0020 H         1 <0>         0.1898
     18 H4          0.2325    5.8661    0.0318 H         1 <0>         0.1521
     19 H5          2.9469    4.4271   -0.0032 H         1 <0>         0.1289
     20 H6          4.3588    8.9813    0.0076 H         1 <0>         0.1464
     21 H7          6.8400    8.8868   -0.0170 H         1 <0>         0.1401
     22 H8          7.9252    6.5491   -0.0408 H         1 <0>         0.1911
@<TRIPOS>BOND
     1    1    5 2
     2    1    2 1
     3    1   15 1
     4    2    3 2
     5    2   16 1
     6    3    4 1
     7    3    6 1
     8    4    5 1
     9    5   17 1
    10    6    7 2
    11    6   18 1
    12    7    8 1
    13    7   19 1
    14    8    9 2
    15    8   10 1
    16   10   14 1
    17   10   11 2
    18   11   12 1
    19   11   20 1
    20   12   13 2
    21   12   21 1
    22   13   14 1
    23   13   22 1
