@<TRIPOS>MOLECULE
ZINC00601274
   66    70     0     0     0
SMALL
USER_CHARGES

@<TRIPOS>ATOM
      1 C1         -0.0173    1.4248    0.0099 C.3       1 <0>         0.0235
      2 O1          0.0021   -0.0041    0.0020 O.3       1 <0>        -0.3122
      3 C2          0.6058   -0.6071   -1.0557 C.ar      1 <0>         0.1470
      4 C3          1.1730    0.1607   -2.0624 C.ar      1 <0>        -0.2069
      5 C4          1.7865   -0.4547   -3.1363 C.ar      1 <0>        -0.0659
      6 C5          1.8352   -1.8346   -3.2086 C.ar      1 <0>        -0.1508
      7 C6          1.2702   -2.6021   -2.2068 C.ar      1 <0>        -0.0670
      8 C7          0.6609   -1.9915   -1.1277 C.ar      1 <0>        -0.1494
      9 C8          2.5046   -2.5033   -4.3815 C.3       1 <0>        -0.0928
     10 C9          3.9857   -2.7227   -4.0663 C.3       1 <0>        -0.0078
     11 N1          4.6383   -3.3746   -5.2096 N.4       1 <0>        -0.3851
     12 C10         4.0698   -4.7148   -5.3968 C.3       1 <0>        -0.0055
     13 C11         4.6882   -5.3670   -6.6352 C.3       1 <0>        -0.1571
     14 C12         6.2039   -5.4757   -6.4451 C.3       1 <0>         0.1653
     15 C13         6.7761   -4.0808   -6.1767 C.3       1 <0>        -0.1624
     16 C14         6.0803   -3.4763   -4.9553 C.3       1 <0>        -0.0018
     17 N2          6.8113   -6.0294   -7.6578 N.pl3     1 <0>        -0.7086
     18 C15         8.0180   -6.6927   -7.5834 C.2       1 <0>         0.5366
     19 N3          8.7020   -6.8894   -6.4840 N.2       1 <0>        -0.5407
     20 C16         9.8394   -7.5757   -6.7708 C.ar      1 <0>         0.0759
     21 C17        10.9029   -8.0392   -5.9923 C.ar      1 <0>        -0.0787
     22 C18        11.9400   -8.7213   -6.5881 C.ar      1 <0>        -0.1163
     23 C19        11.9371   -8.9520   -7.9558 C.ar      1 <0>        -0.1062
     24 C20        10.8945   -8.5005   -8.7384 C.ar      1 <0>        -0.1057
     25 C21         9.8416   -7.8121   -8.1552 C.ar      1 <0>         0.0482
     26 N4          8.6748   -7.2475   -8.6442 N.pl3     1 <0>        -0.5047
     27 C22         8.2299   -7.2439  -10.0400 C.3       1 <0>         0.1559
     28 C23         8.7638   -6.0175  -10.7343 C.ar      1 <0>        -0.1332
     29 C24         8.0277   -4.8473  -10.7325 C.ar      1 <0>        -0.0736
     30 C25         8.5165   -3.7219  -11.3684 C.ar      1 <0>        -0.1551
     31 C26         9.7440   -3.7666  -12.0075 C.ar      1 <0>         0.1157
     32 C27        10.4803   -4.9392  -12.0086 C.ar      1 <0>        -0.1485
     33 C28         9.9919   -6.0618  -11.3675 C.ar      1 <0>        -0.0624
     34 F1         10.2226   -2.6672  -12.6298 F         1 <0>        -0.1319
     35 H1          1.0053    1.8021    0.0021 H         1 <0>         0.0593
     36 H2         -0.5445    1.7859   -0.8732 H         1 <0>         0.0598
     37 H3         -0.5275    1.7763    0.9067 H         1 <0>         0.1079
     38 H4          1.1347    1.2385   -2.0068 H         1 <0>         0.1346
     39 H5          2.2283    0.1425   -3.9203 H         1 <0>         0.1266
     40 H6          1.3092   -3.6798   -2.2657 H         1 <0>         0.1311
     41 H7          0.2237   -2.5913   -0.3432 H         1 <0>         0.1377
     42 H8          2.0276   -3.4646   -4.5726 H         1 <0>         0.0937
     43 H9          2.4108   -1.8695   -5.2632 H         1 <0>         0.0926
     44 H10         4.4627   -1.7615   -3.8752 H         1 <0>         0.1324
     45 H11         4.0795   -3.3566   -3.1846 H         1 <0>         0.1326
     46 H12         4.2840   -5.3256   -4.5198 H         1 <0>         0.1348
     47 H13         2.9906   -4.6361   -5.5288 H         1 <0>         0.1381
     48 H14         4.2661   -6.3627   -6.7714 H         1 <0>         0.1200
     49 H15         4.4743   -4.7571   -7.5129 H         1 <0>         0.0930
     50 H16         6.4192   -6.1271   -5.5981 H         1 <0>         0.1098
     51 H17         7.8464   -4.1571   -5.9852 H         1 <0>         0.1198
     52 H18         6.6055   -3.4442   -7.0449 H         1 <0>         0.0875
     53 H19         6.4855   -2.4832   -4.7614 H         1 <0>         0.1334
     54 H20         6.2517   -4.1135   -4.0877 H         1 <0>         0.1336
     55 H21         6.3646   -5.9295   -8.5130 H         1 <0>         0.4084
     56 H22        10.9118   -7.8627   -4.9269 H         1 <0>         0.1280
     57 H23        12.7621   -9.0790   -5.9860 H         1 <0>         0.1315
     58 H24        12.7565   -9.4883   -8.4111 H         1 <0>         0.1319
     59 H25        10.8985   -8.6827   -9.8029 H         1 <0>         0.1194
     60 H26         8.6021   -8.1367  -10.5423 H         1 <0>         0.1066
     61 H27         7.1405   -7.2353  -10.0741 H         1 <0>         0.0963
     62 H28         7.0701   -4.8127  -10.2343 H         1 <0>         0.1230
     63 H29         7.9411   -2.8079  -11.3672 H         1 <0>         0.1384
     64 H30        11.4378   -4.9753  -12.5070 H         1 <0>         0.1433
     65 H31        10.5681   -6.9753  -11.3644 H         1 <0>         0.1356
     66 H32         4.4825   -2.8261   -6.0421 H         1 <0>         0.4217
@<TRIPOS>BOND
     1    1    2 1
     2    1   35 1
     3    1   36 1
     4    1   37 1
     5    2    3 1
     6    3    8 ar
     7    3    4 ar
     8    4    5 ar
     9    4   38 1
    10    5    6 ar
    11    5   39 1
    12    6    7 ar
    13    6    9 1
    14    7    8 ar
    15    7   40 1
    16    8   41 1
    17    9   10 1
    18    9   42 1
    19    9   43 1
    20   10   11 1
    21   10   44 1
    22   10   45 1
    23   11   16 1
    24   11   12 1
    25   11   66 1
    26   12   13 1
    27   12   46 1
    28   12   47 1
    29   13   14 1
    30   13   48 1
    31   13   49 1
    32   14   15 1
    33   14   17 1
    34   14   50 1
    35   15   16 1
    36   15   51 1
    37   15   52 1
    38   16   53 1
    39   16   54 1
    40   17   18 1
    41   17   55 1
    42   18   26 1
    43   18   19 2
    44   19   20 1
    45   20   25 ar
    46   20   21 ar
    47   21   22 ar
    48   21   56 1
    49   22   23 ar
    50   22   57 1
    51   23   24 ar
    52   23   58 1
    53   24   25 ar
    54   24   59 1
    55   25   26 1
    56   26   27 1
    57   27   28 1
    58   27   60 1
    59   27   61 1
    60   28   33 ar
    61   28   29 ar
    62   29   30 ar
    63   29   62 1
    64   30   31 ar
    65   30   63 1
    66   31   32 ar
    67   31   34 1
    68   32   33 ar
    69   32   64 1
    70   33   65 1
@<TRIPOS>MOLECULE
ZINC00601274
   67    71     0     0     0
SMALL
USER_CHARGES

@<TRIPOS>ATOM
      1 C1         -0.0173    1.4248    0.0099 C.3       1 <0>         0.0224
      2 O1          0.0021   -0.0041    0.0020 O.3       1 <0>        -0.3102
      3 C2          0.6058   -0.6071   -1.0557 C.ar      1 <0>         0.1527
      4 C3          1.1730    0.1607   -2.0624 C.ar      1 <0>        -0.2067
      5 C4          1.7865   -0.4547   -3.1363 C.ar      1 <0>        -0.0644
      6 C5          1.8352   -1.8346   -3.2086 C.ar      1 <0>        -0.1592
      7 C6          1.2702   -2.6021   -2.2068 C.ar      1 <0>        -0.0668
      8 C7          0.6609   -1.9915   -1.1277 C.ar      1 <0>        -0.1497
      9 C8          2.5046   -2.5033   -4.3815 C.3       1 <0>        -0.0905
     10 C9          3.9857   -2.7227   -4.0663 C.3       1 <0>        -0.0094
     11 N1          4.6383   -3.3746   -5.2096 N.4       1 <0>        -0.3874
     12 C10         4.0698   -4.7148   -5.3968 C.3       1 <0>        -0.0091
     13 C11         4.6882   -5.3670   -6.6352 C.3       1 <0>        -0.1548
     14 C12         6.2039   -5.4757   -6.4451 C.3       1 <0>         0.1296
     15 C13         6.7761   -4.0808   -6.1767 C.3       1 <0>        -0.1730
     16 C14         6.0803   -3.4763   -4.9553 C.3       1 <0>        -0.0038
     17 N2          6.8113   -6.0294   -7.6578 N.pl3     1 <0>        -0.6860
     18 C15         8.0180   -6.6927   -7.5834 C.cat     1 <0>         0.6345
     19 N3          8.7020   -6.8894   -6.4840 N.pl3     1 <0>        -0.5322
     20 C16         9.8394   -7.5757   -6.7708 C.ar      1 <0>         0.0552
     21 C17        10.9029   -8.0392   -5.9923 C.ar      1 <0>        -0.0776
     22 C18        11.9400   -8.7213   -6.5881 C.ar      1 <0>        -0.0769
     23 C19        11.9371   -8.9520   -7.9558 C.ar      1 <0>        -0.0650
     24 C20        10.8945   -8.5005   -8.7384 C.ar      1 <0>        -0.0869
     25 C21         9.8416   -7.8121   -8.1552 C.ar      1 <0>         0.0882
     26 N4          8.6748   -7.2475   -8.6442 N.pl3     1 <0>        -0.4526
     27 C22         8.2299   -7.2439  -10.0400 C.3       1 <0>         0.1501
     28 C23         8.7638   -6.0175  -10.7343 C.ar      1 <0>        -0.1610
     29 C24         8.0277   -4.8473  -10.7325 C.ar      1 <0>        -0.0724
     30 C25         8.5165   -3.7219  -11.3684 C.ar      1 <0>        -0.1535
     31 C26         9.7440   -3.7666  -12.0075 C.ar      1 <0>         0.1357
     32 C27        10.4803   -4.9392  -12.0086 C.ar      1 <0>        -0.1459
     33 C28         9.9919   -6.0618  -11.3675 C.ar      1 <0>        -0.0549
     34 F1         10.2226   -2.6672  -12.6298 F         1 <0>        -0.1219
     35 H1          1.0053    1.8021    0.0021 H         1 <0>         0.0601
     36 H2         -0.5445    1.7859   -0.8732 H         1 <0>         0.0614
     37 H3         -0.5275    1.7763    0.9067 H         1 <0>         0.1105
     38 H4          1.1347    1.2385   -2.0068 H         1 <0>         0.1365
     39 H5          2.2283    0.1425   -3.9203 H         1 <0>         0.1263
     40 H6          1.3092   -3.6798   -2.2657 H         1 <0>         0.1297
     41 H7          0.2237   -2.5913   -0.3432 H         1 <0>         0.1391
     42 H8          2.0276   -3.4646   -4.5726 H         1 <0>         0.0931
     43 H9          2.4108   -1.8695   -5.2632 H         1 <0>         0.0939
     44 H10         4.4627   -1.7615   -3.8752 H         1 <0>         0.1369
     45 H11         4.0795   -3.3566   -3.1846 H         1 <0>         0.1350
     46 H12         4.2840   -5.3256   -4.5198 H         1 <0>         0.1385
     47 H13         2.9906   -4.6361   -5.5288 H         1 <0>         0.1499
     48 H14         4.2661   -6.3627   -6.7714 H         1 <0>         0.1306
     49 H15         4.4743   -4.7571   -7.5129 H         1 <0>         0.1071
     50 H16         6.4192   -6.1271   -5.5981 H         1 <0>         0.1090
     51 H17         7.8464   -4.1571   -5.9852 H         1 <0>         0.1147
     52 H18         6.6055   -3.4442   -7.0449 H         1 <0>         0.1086
     53 H19         6.4855   -2.4832   -4.7614 H         1 <0>         0.1451
     54 H20         6.2517   -4.1135   -4.0877 H         1 <0>         0.1361
     55 H21         6.3646   -5.9295   -8.5130 H         1 <0>         0.4377
     56 H22        10.9118   -7.8627   -4.9269 H         1 <0>         0.1509
     57 H23        12.7621   -9.0790   -5.9860 H         1 <0>         0.1582
     58 H24        12.7565   -9.4883   -8.4111 H         1 <0>         0.1585
     59 H25        10.8985   -8.6827   -9.8029 H         1 <0>         0.1493
     60 H26         8.6021   -8.1367  -10.5423 H         1 <0>         0.1352
     61 H27         7.1405   -7.2353  -10.0741 H         1 <0>         0.1167
     62 H28         7.0701   -4.8127  -10.2343 H         1 <0>         0.1232
     63 H29         7.9411   -2.8079  -11.3672 H         1 <0>         0.1451
     64 H30        11.4378   -4.9753  -12.5070 H         1 <0>         0.1509
     65 H31        10.5681   -6.9753  -11.3644 H         1 <0>         0.1400
     66 H32         4.4825   -2.8261   -6.0421 H         1 <0>         0.4261
     67 H33         8.4373   -6.5905   -5.6000 H         1 <0>         0.4497
@<TRIPOS>BOND
     1    1    2 1
     2    1   35 1
     3    1   36 1
     4    1   37 1
     5    2    3 1
     6    3    8 ar
     7    3    4 ar
     8    4    5 ar
     9    4   38 1
    10    5    6 ar
    11    5   39 1
    12    6    7 ar
    13    6    9 1
    14    7    8 ar
    15    7   40 1
    16    8   41 1
    17    9   10 1
    18    9   42 1
    19    9   43 1
    20   10   11 1
    21   10   44 1
    22   10   45 1
    23   11   16 1
    24   11   12 1
    25   11   66 1
    26   12   13 1
    27   12   46 1
    28   12   47 1
    29   13   14 1
    30   13   48 1
    31   13   49 1
    32   14   15 1
    33   14   17 1
    34   14   50 1
    35   15   16 1
    36   15   51 1
    37   15   52 1
    38   16   53 1
    39   16   54 1
    40   17   18 1
    41   17   55 1
    42   18   26 1
    43   18   19 2
    44   19   20 1
    45   19   67 1
    46   20   25 ar
    47   20   21 ar
    48   21   22 ar
    49   21   56 1
    50   22   23 ar
    51   22   57 1
    52   23   24 ar
    53   23   58 1
    54   24   25 ar
    55   24   59 1
    56   25   26 1
    57   26   27 1
    58   27   28 1
    59   27   60 1
    60   27   61 1
    61   28   33 ar
    62   28   29 ar
    63   29   30 ar
    64   29   62 1
    65   30   31 ar
    66   30   63 1
    67   31   32 ar
    68   31   34 1
    69   32   33 ar
    70   32   64 1
    71   33   65 1
@<TRIPOS>MOLECULE
ZINC13796731
   62    65     0     0     0
SMALL
USER_CHARGES

@<TRIPOS>ATOM
      1 C1         -0.0187    1.5258    0.0104 C.3       1 <0>        -0.1451
      2 C2          0.0021   -0.0041    0.0020 C.3       1 <0>        -0.0944
      3 C3          0.7421   -0.5109    1.2415 C.3       1 <0>        -0.1473
      4 C4         -1.4333   -0.5336    0.0129 C.3       1 <0>        -0.1058
      5 C5         -1.4157   -2.0577   -0.1212 C.3       1 <0>         0.0774
      6 H1         -0.7891   -2.4841    0.6622 H         1 <0>         0.0855
      7 C6         -2.8192   -2.5900    0.0125 C.2       1 <0>         0.4924
      8 O1         -3.3892   -3.0569   -0.9588 O.co2     1 <0>        -0.6888
      9 O2         -3.3846   -2.5537    1.0921 O.co2     1 <0>        -0.6963
     10 N1         -0.8765   -2.4263   -1.4325 N.am      1 <0>        -0.6866
     11 C7         -0.2982   -3.6308   -1.6090 C.2       1 <0>         0.5458
     12 O3         -0.2240   -4.4118   -0.6796 O.2       1 <0>        -0.5181
     13 C8          0.2439   -4.0014   -2.9273 C.ar      1 <0>        -0.1440
     14 C9          0.1654   -3.1044   -3.9955 C.ar      1 <0>        -0.0401
     15 C10         0.6724   -3.4523   -5.2264 C.ar      1 <0>        -0.1973
     16 C11         1.2669   -4.6984   -5.4168 C.ar      1 <0>         0.2137
     17 C12         1.3527   -5.6014   -4.3654 C.ar      1 <0>        -0.1777
     18 C13         0.8492   -5.2603   -3.1152 C.ar      1 <0>         0.0580
     19 C14         0.9432   -6.2156   -1.9897 C.ar      1 <0>        -0.0236
     20 C15         2.1789   -6.5753   -1.4783 C.ar      1 <0>        -0.1096
     21 C16         2.2748   -7.4723   -0.4210 C.ar      1 <0>        -0.1270
     22 C17         1.1616   -8.0214    0.1408 C.ar      1 <0>        -0.0975
     23 C18        -0.1128   -7.6845   -0.3467 C.ar      1 <0>        -0.0534
     24 C19        -0.2295   -6.7676   -1.4198 C.ar      1 <0>         0.0118
     25 C20        -1.5017   -6.4282   -1.9016 C.ar      1 <0>        -0.0837
     26 C21        -2.6086   -6.9784   -1.3293 C.ar      1 <0>        -0.1028
     27 C22        -2.4962   -7.8755   -0.2693 C.ar      1 <0>        -0.1100
     28 C23        -1.2766   -8.2379    0.2150 C.ar      1 <0>        -0.1149
     29 N2          1.7759   -5.0393   -6.6657 N.pl3     1 <0>        -0.7533
     30 C24         1.6866   -4.0892   -7.7773 C.3       1 <0>         0.1868
     31 C25         2.3064   -4.6974   -9.0089 C.2       1 <0>         0.0142
     32 C26         3.5764   -4.5259   -9.4228 C.2       1 <0>         0.0574
     33 N3          3.7188   -5.2508  -10.5751 N.pl3     1 <0>        -0.5116
     34 H2          4.5233   -5.3268  -11.1116 H         1 <0>         0.4685
     35 C27         2.5300   -5.8405  -10.8255 C.cat     1 <0>         0.3111
     36 N4          1.6916   -5.5090   -9.8819 N.pl3     1 <0>        -0.4687
     37 H3          1.0039    1.9031    0.0027 H         1 <0>         0.0487
     38 H4         -0.5459    1.8868   -0.8726 H         1 <0>         0.0507
     39 H5         -0.5289    1.8773    0.9072 H         1 <0>         0.0547
     40 H6          0.5123   -0.3556   -0.8948 H         1 <0>         0.0630
     41 H7          0.2319   -0.1594    2.1383 H         1 <0>         0.0550
     42 H8          0.7568   -1.6008    1.2356 H         1 <0>         0.0584
     43 H9          1.7647   -0.1336    1.2338 H         1 <0>         0.0462
     44 H10        -1.9156   -0.2570    0.9504 H         1 <0>         0.0801
     45 H11        -1.9862   -0.1019   -0.8214 H         1 <0>         0.0585
     46 H12        -0.9356   -1.8035   -2.1738 H         1 <0>         0.3839
     47 H13        -0.2939   -2.1371   -3.8550 H         1 <0>         0.1313
     48 H14         0.6090   -2.7561   -6.0496 H         1 <0>         0.1236
     49 H15         1.8136   -6.5662   -4.5177 H         1 <0>         0.1269
     50 H16         3.0772   -6.1549   -1.9057 H         1 <0>         0.1145
     51 H17         3.2488   -7.7390   -0.0382 H         1 <0>         0.1176
     52 H18         1.2587   -8.7167    0.9615 H         1 <0>         0.1209
     53 H19        -1.6035   -5.7335   -2.7222 H         1 <0>         0.1143
     54 H20        -3.5874   -6.7153   -1.7024 H         1 <0>         0.1197
     55 H21        -3.3891   -8.2975    0.1677 H         1 <0>         0.1189
     56 H22        -1.2042   -8.9356    1.0362 H         1 <0>         0.1218
     57 H23         2.1901   -5.9060   -6.8005 H         1 <0>         0.4008
     58 H24         0.6398   -3.8575   -7.9739 H         1 <0>         0.0927
     59 H25         2.2186   -3.1742   -7.5168 H         1 <0>         0.1076
     60 H26         4.3364   -3.9305   -8.9387 H         1 <0>         0.2302
     61 H27         2.3106   -6.4833  -11.6652 H         1 <0>         0.2678
     62 H28         0.7688   -5.8019   -9.8224 H         1 <0>         0.4675
@<TRIPOS>BOND
     1    1    2 1
     2    1   37 1
     3    1   38 1
     4    1   39 1
     5    2    3 1
     6    2    4 1
     7    2   40 1
     8    3   41 1
     9    3   42 1
    10    3   43 1
    11    4    5 1
    12    4   44 1
    13    4   45 1
    14    5    6 1
    15    5    7 1
    16    5   10 1
    17    7    8 2
    18    7    9 1
    19   10   11 am
    20   10   46 1
    21   11   12 2
    22   11   13 1
    23   13   18 ar
    24   13   14 ar
    25   14   15 ar
    26   14   47 1
    27   15   16 ar
    28   15   48 1
    29   16   17 ar
    30   16   29 1
    31   17   18 ar
    32   17   49 1
    33   18   19 1
    34   19   24 ar
    35   19   20 ar
    36   20   21 ar
    37   20   50 1
    38   21   22 ar
    39   21   51 1
    40   22   23 ar
    41   22   52 1
    42   23   28 ar
    43   23   24 ar
    44   24   25 ar
    45   25   26 ar
    46   25   53 1
    47   26   27 ar
    48   26   54 1
    49   27   28 ar
    50   27   55 1
    51   28   56 1
    52   29   30 1
    53   29   57 1
    54   30   31 1
    55   30   58 1
    56   30   59 1
    57   31   36 1
    58   31   32 2
    59   32   33 1
    60   32   60 1
    61   33   34 1
    62   33   35 1
    63   35   36 2
    64   35   61 1
    65   36   62 1
@<TRIPOS>MOLECULE
ZINC13796731
   61    64     0     0     0
SMALL
USER_CHARGES

@<TRIPOS>ATOM
      1 C1          0.8560   -0.2422   -1.2378 C.3       1 <0>        -0.1440
      2 C2         -0.0457   -0.0907   -0.0110 C.3       1 <0>        -0.0963
      3 C3         -1.3347   -0.8869   -0.2240 C.3       1 <0>        -0.1459
      4 C4          0.6827   -0.6207    1.2257 C.3       1 <0>        -0.1044
      5 C5         -0.1607   -0.3438    2.4719 C.3       1 <0>         0.0788
      6 H1         -1.1500   -0.7837    2.3462 H         1 <0>         0.0833
      7 C6          0.5097   -0.9512    3.6773 C.2       1 <0>         0.4925
      8 O1          1.0107   -0.2308    4.5238 O.co2     1 <0>        -0.6864
      9 O2          0.5510   -2.1629    3.8059 O.co2     1 <0>        -0.7022
     10 N1         -0.2901    1.1030    2.6624 N.am      1 <0>        -0.6909
     11 C7         -1.3436    1.6020    3.3389 C.2       1 <0>         0.5529
     12 O3         -2.1869    0.8512    3.7912 O.2       1 <0>        -0.5263
     13 C8         -1.4738    3.0564    3.5303 C.ar      1 <0>        -0.1667
     14 C9         -0.5100    3.9220    3.0071 C.ar      1 <0>        -0.0367
     15 C10        -0.6332    5.2805    3.1869 C.ar      1 <0>        -0.2037
     16 C11        -1.7174    5.8026    3.8900 C.ar      1 <0>         0.2365
     17 C12        -2.6840    4.9559    4.4164 C.ar      1 <0>        -0.1907
     18 C13        -2.5742    3.5816    4.2372 C.ar      1 <0>         0.0530
     19 C14        -3.6039    2.6750    4.7904 C.ar      1 <0>        -0.0087
     20 C15        -4.9011    2.7112    4.3069 C.ar      1 <0>        -0.1158
     21 C16        -5.8737    1.8624    4.8218 C.ar      1 <0>        -0.1222
     22 C17        -5.5811    0.9740    5.8125 C.ar      1 <0>        -0.1071
     23 C18        -4.2775    0.9032    6.3328 C.ar      1 <0>        -0.0524
     24 C19        -3.2725    1.7566    5.8158 C.ar      1 <0>         0.0105
     25 C20        -1.9710    1.6812    6.3320 C.ar      1 <0>        -0.0757
     26 C21        -1.6875    0.7857    7.3186 C.ar      1 <0>        -0.1097
     27 C22        -2.6733   -0.0593    7.8239 C.ar      1 <0>        -0.1106
     28 C23        -3.9503   -0.0041    7.3556 C.ar      1 <0>        -0.1194
     29 N2         -1.8316    7.1778    4.0656 N.pl3     1 <0>        -0.7369
     30 C24        -0.8134    8.0739    3.5120 C.3       1 <0>         0.2106
     31 C25        -1.1690    9.5013    3.8393 C.2       1 <0>        -0.0178
     32 C26        -0.7086   10.2114    4.8869 C.2       1 <0>        -0.0300
     33 N3         -1.2800   11.4526    4.8059 N.pl3     1 <0>        -0.5703
     34 H2         -1.1430   12.1905    5.4203 H         1 <0>         0.4220
     35 C27        -2.0703   11.4578    3.7108 C.2       1 <0>         0.1851
     36 N4         -1.9950   10.2892    3.1349 N.2       1 <0>        -0.4795
     37 H3          1.1698   -1.2818   -1.3319 H         1 <0>         0.0528
     38 H4          0.3064    0.0537   -2.1314 H         1 <0>         0.0484
     39 H5          1.7340    0.3935   -1.1241 H         1 <0>         0.0505
     40 H6         -0.2885    0.9620    0.1336 H         1 <0>         0.0661
     41 H7         -1.0919   -1.9396   -0.3687 H         1 <0>         0.0527
     42 H8         -1.9770   -0.7789    0.6500 H         1 <0>         0.0591
     43 H9         -1.8536   -0.5093   -1.1051 H         1 <0>         0.0455
     44 H10         0.8381   -1.6947    1.1235 H         1 <0>         0.0772
     45 H11         1.6469   -0.1215    1.3213 H         1 <0>         0.0581
     46 H12         0.3824    1.7017    2.3017 H         1 <0>         0.3846
     47 H13         0.3328    3.5243    2.4612 H         1 <0>         0.1259
     48 H14         0.1146    5.9460    2.7813 H         1 <0>         0.1244
     49 H15        -3.5221    5.3648    4.9612 H         1 <0>         0.1244
     50 H16        -5.1597    3.4065    3.5219 H         1 <0>         0.1157
     51 H17        -6.8791    1.9080    4.4301 H         1 <0>         0.1154
     52 H18        -6.3520    0.3236    6.1987 H         1 <0>         0.1177
     53 H19        -1.1970    2.3297    5.9491 H         1 <0>         0.1173
     54 H20        -0.6842    0.7296    7.7144 H         1 <0>         0.1181
     55 H21        -2.4230   -0.7612    8.6056 H         1 <0>         0.1157
     56 H22        -4.7048   -0.6641    7.7576 H         1 <0>         0.1186
     57 H23        -2.5853    7.5434    4.5546 H         1 <0>         0.4000
     58 H24         0.1572    7.8328    3.9454 H         1 <0>         0.0737
     59 H25        -0.7693    7.9494    2.4301 H         1 <0>         0.0740
     60 H26        -0.0210    9.8674    5.6454 H         1 <0>         0.1800
     61 H27        -2.6631   12.2923    3.3664 H         1 <0>         0.2092
@<TRIPOS>BOND
     1    1    2 1
     2    1   37 1
     3    1   38 1
     4    1   39 1
     5    2    3 1
     6    2    4 1
     7    2   40 1
     8    3   41 1
     9    3   42 1
    10    3   43 1
    11    4    5 1
    12    4   44 1
    13    4   45 1
    14    5    6 1
    15    5    7 1
    16    5   10 1
    17    7    8 2
    18    7    9 1
    19   10   11 am
    20   10   46 1
    21   11   12 2
    22   11   13 1
    23   13   18 ar
    24   13   14 ar
    25   14   15 ar
    26   14   47 1
    27   15   16 ar
    28   15   48 1
    29   16   17 ar
    30   16   29 1
    31   17   18 ar
    32   17   49 1
    33   18   19 1
    34   19   24 ar
    35   19   20 ar
    36   20   21 ar
    37   20   50 1
    38   21   22 ar
    39   21   51 1
    40   22   23 ar
    41   22   52 1
    42   23   28 ar
    43   23   24 ar
    44   24   25 ar
    45   25   26 ar
    46   25   53 1
    47   26   27 ar
    48   26   54 1
    49   27   28 ar
    50   27   55 1
    51   28   56 1
    52   29   30 1
    53   29   57 1
    54   30   31 1
    55   30   58 1
    56   30   59 1
    57   31   36 1
    58   31   32 2
    59   32   33 1
    60   32   60 1
    61   33   34 1
    62   33   35 1
    63   35   36 2
    64   35   61 1
@<TRIPOS>MOLECULE
ZINC13796731
   61    64     0     0     0
SMALL
USER_CHARGES

@<TRIPOS>ATOM
      1 C1         -0.0187    1.5258    0.0104 C.3       1 <0>        -0.1441
      2 C2          0.0021   -0.0041    0.0020 C.3       1 <0>        -0.0956
      3 C3          0.7421   -0.5109    1.2415 C.3       1 <0>        -0.1466
      4 C4         -1.4333   -0.5336    0.0129 C.3       1 <0>        -0.1060
      5 C5         -1.4157   -2.0577   -0.1212 C.3       1 <0>         0.0793
      6 H1         -0.7891   -2.4841    0.6622 H         1 <0>         0.0840
      7 C6         -2.8192   -2.5900    0.0125 C.2       1 <0>         0.4937
      8 O1         -3.5206   -2.7151   -0.9768 O.co2     1 <0>        -0.6930
      9 O2         -3.2532   -2.8956    1.1101 O.co2     1 <0>        -0.6966
     10 N1         -0.8765   -2.4263   -1.4325 N.am      1 <0>        -0.6910
     11 C7         -0.2982   -3.6308   -1.6090 C.2       1 <0>         0.5471
     12 O3         -0.2240   -4.4118   -0.6796 O.2       1 <0>        -0.5224
     13 C8          0.2439   -4.0014   -2.9273 C.ar      1 <0>        -0.1640
     14 C9          0.1654   -3.1044   -3.9955 C.ar      1 <0>        -0.0369
     15 C10         0.6724   -3.4523   -5.2264 C.ar      1 <0>        -0.2026
     16 C11         1.2669   -4.6984   -5.4168 C.ar      1 <0>         0.2319
     17 C12         1.3527   -5.6014   -4.3654 C.ar      1 <0>        -0.1880
     18 C13         0.8492   -5.2603   -3.1152 C.ar      1 <0>         0.0544
     19 C14         0.9432   -6.2156   -1.9897 C.ar      1 <0>        -0.0124
     20 C15         2.1789   -6.5753   -1.4783 C.ar      1 <0>        -0.1135
     21 C16         2.2748   -7.4723   -0.4210 C.ar      1 <0>        -0.1226
     22 C17         1.1616   -8.0214    0.1408 C.ar      1 <0>        -0.1048
     23 C18        -0.1128   -7.6845   -0.3467 C.ar      1 <0>        -0.0520
     24 C19        -0.2295   -6.7676   -1.4198 C.ar      1 <0>         0.0113
     25 C20        -1.5017   -6.4282   -1.9016 C.ar      1 <0>        -0.0814
     26 C21        -2.6086   -6.9784   -1.3293 C.ar      1 <0>        -0.1102
     27 C22        -2.4962   -7.8755   -0.2693 C.ar      1 <0>        -0.1100
     28 C23        -1.2766   -8.2379    0.2150 C.ar      1 <0>        -0.1165
     29 N2          1.7759   -5.0393   -6.6657 N.pl3     1 <0>        -0.7433
     30 C24         1.6866   -4.0892   -7.7773 C.3       1 <0>         0.2021
     31 C25         2.3064   -4.6974   -9.0089 C.2       1 <0>        -0.0466
     32 C26         3.5739   -4.5343   -9.4338 C.2       1 <0>         0.0015
     33 N3          3.7265   -5.2398  -10.5643 N.2       1 <0>        -0.4962
     34 C27         2.6019   -5.8339  -10.8560 C.2       1 <0>         0.1940
     35 N4          1.6911   -5.5265   -9.9075 N.pl3     1 <0>        -0.5619
     36 H2          0.7719   -5.8341   -9.8710 H         1 <0>         0.4219
     37 H3          1.0039    1.9031    0.0027 H         1 <0>         0.0485
     38 H4         -0.5459    1.8868   -0.8726 H         1 <0>         0.0513
     39 H5         -0.5289    1.8773    0.9072 H         1 <0>         0.0526
     40 H6          0.5123   -0.3556   -0.8948 H         1 <0>         0.0660
     41 H7          1.7647   -0.1336    1.2338 H         1 <0>         0.0459
     42 H8          0.2319   -0.1594    2.1383 H         1 <0>         0.0527
     43 H9          0.7568   -1.6008    1.2356 H         1 <0>         0.0598
     44 H10        -1.9156   -0.2570    0.9504 H         1 <0>         0.0734
     45 H11        -1.9862   -0.1019   -0.8214 H         1 <0>         0.0618
     46 H12        -0.9356   -1.8035   -2.1738 H         1 <0>         0.3859
     47 H13        -0.2939   -2.1371   -3.8550 H         1 <0>         0.1277
     48 H14         0.6090   -2.7561   -6.0496 H         1 <0>         0.1245
     49 H15         1.8136   -6.5662   -4.5177 H         1 <0>         0.1255
     50 H16         3.0772   -6.1549   -1.9057 H         1 <0>         0.1161
     51 H17         3.2488   -7.7390   -0.0382 H         1 <0>         0.1163
     52 H18         1.2587   -8.7167    0.9615 H         1 <0>         0.1188
     53 H19        -1.6035   -5.7335   -2.7222 H         1 <0>         0.1158
     54 H20        -3.5874   -6.7153   -1.7024 H         1 <0>         0.1180
     55 H21        -3.3891   -8.2975    0.1677 H         1 <0>         0.1170
     56 H22        -1.2042   -8.9356    1.0362 H         1 <0>         0.1199
     57 H23         2.1901   -5.9060   -6.8005 H         1 <0>         0.4010
     58 H24         0.6398   -3.8575   -7.9739 H         1 <0>         0.0694
     59 H25         2.2186   -3.1742   -7.5168 H         1 <0>         0.0875
     60 H26         4.3341   -3.9396   -8.9493 H         1 <0>         0.1721
     61 H27         2.4292   -6.4694  -11.7120 H         1 <0>         0.2099
@<TRIPOS>BOND
     1    1    2 1
     2    1   37 1
     3    1   38 1
     4    1   39 1
     5    2    3 1
     6    2    4 1
     7    2   40 1
     8    3   41 1
     9    3   42 1
    10    3   43 1
    11    4    5 1
    12    4   44 1
    13    4   45 1
    14    5    6 1
    15    5    7 1
    16    5   10 1
    17    7    8 2
    18    7    9 1
    19   10   11 am
    20   10   46 1
    21   11   12 2
    22   11   13 1
    23   13   18 ar
    24   13   14 ar
    25   14   15 ar
    26   14   47 1
    27   15   16 ar
    28   15   48 1
    29   16   17 ar
    30   16   29 1
    31   17   18 ar
    32   17   49 1
    33   18   19 1
    34   19   24 ar
    35   19   20 ar
    36   20   21 ar
    37   20   50 1
    38   21   22 ar
    39   21   51 1
    40   22   23 ar
    41   22   52 1
    42   23   28 ar
    43   23   24 ar
    44   24   25 ar
    45   25   26 ar
    46   25   53 1
    47   26   27 ar
    48   26   54 1
    49   27   28 ar
    50   27   55 1
    51   28   56 1
    52   29   30 1
    53   29   57 1
    54   30   31 1
    55   30   58 1
    56   30   59 1
    57   31   35 1
    58   31   32 2
    59   32   33 1
    60   32   60 1
    61   33   34 2
    62   34   35 1
    63   34   61 1
    64   35   36 1
@<TRIPOS>MOLECULE
ZINC13796725
   64    66     0     0     0
SMALL
USER_CHARGES
(2S)-2-[[4-[[(2R)-2-amino-3-sulfanyl-propyl]amino]-2-(1-naphthyl)benzoyl]amino]-4-methyl-pentanoic acid
@<TRIPOS>ATOM
      1 C1         12.5817    5.3523    2.6500 C.3       1 <0>        -0.1453
      2 C2         11.6546    6.3674    1.9784 C.3       1 <0>        -0.0944
      3 C3         11.8205    7.7320    2.6502 C.3       1 <0>        -0.1480
      4 C4         12.0127    6.4821    0.4954 C.3       1 <0>        -0.1057
      5 C5         11.0082    7.4015   -0.2022 C.3       1 <0>         0.1035
      6 H1         10.9761    8.3617    0.3126 H         1 <0>         0.0919
      7 C6         11.4304    7.6128   -1.6334 C.2       1 <0>         0.4593
      8 O1         10.6964    7.2829   -2.5347 O.co2     1 <0>        -0.6301
      9 N1          9.6792    6.7858   -0.1709 N.am      1 <0>        -0.6921
     10 C7          8.5770    7.5578   -0.2466 C.2       1 <0>         0.5466
     11 O2          8.6857    8.7655   -0.3408 O.2       1 <0>        -0.5125
     12 C8          7.2410    6.9389   -0.2151 C.ar      1 <0>        -0.1387
     13 C9          7.1127    5.5519   -0.1069 C.ar      1 <0>        -0.0419
     14 C10         5.8637    4.9755   -0.0772 C.ar      1 <0>        -0.1915
     15 C11         4.7199    5.7682   -0.1546 C.ar      1 <0>         0.2071
     16 C12         4.8303    7.1477   -0.2681 C.ar      1 <0>        -0.1753
     17 C13         6.0863    7.7433   -0.2935 C.ar      1 <0>         0.0598
     18 C14         6.2103    9.2129   -0.4083 C.ar      1 <0>        -0.0295
     19 C15         5.7520   10.0354    0.6072 C.ar      1 <0>        -0.1068
     20 C16         5.8659   11.4169    0.5066 C.ar      1 <0>        -0.1283
     21 C17         6.4287   11.9998   -0.5887 C.ar      1 <0>        -0.0945
     22 C18         6.9067   11.2032   -1.6433 C.ar      1 <0>        -0.0546
     23 C19         6.8041    9.7935   -1.5551 C.ar      1 <0>         0.0135
     24 C20         7.2767    9.0004   -2.6103 C.ar      1 <0>        -0.0865
     25 C21         7.8366    9.5933   -3.7015 C.ar      1 <0>        -0.0995
     26 C22         7.9432   10.9797   -3.7878 C.ar      1 <0>        -0.1112
     27 C23         7.4908   11.7806   -2.7843 C.ar      1 <0>        -0.1126
     28 N2          3.4624    5.1743   -0.1236 N.pl3     1 <0>        -0.7642
     29 C24         3.3423    3.7187   -0.0099 C.3       1 <0>         0.1050
     30 C25         1.8630    3.3284    0.0021 C.3       1 <0>         0.0496
     31 H2          1.3891    3.7278    0.8988 H         1 <0>         0.1595
     32 C26         1.7378    1.8035   -0.0048 C.3       1 <0>        -0.1083
     33 S1         -0.0162    1.3408    0.0094 S.3       1 <0>        -0.2485
     34 H3         13.6155    5.6830    2.5504 H         1 <0>         0.0559
     35 H4         12.3266    5.2706    3.7065 H         1 <0>         0.0492
     36 H5         12.4635    4.3801    2.1714 H         1 <0>         0.0506
     37 H6         10.6208    6.0367    2.0781 H         1 <0>         0.0623
     38 H7         11.1601    8.4552    2.1718 H         1 <0>         0.0578
     39 H8         11.5654    7.6503    3.7067 H         1 <0>         0.0469
     40 H9         12.8544    8.0627    2.5506 H         1 <0>         0.0565
     41 H10        11.9805    5.4940    0.0364 H         1 <0>         0.0580
     42 H11        13.0157    6.8969    0.3948 H         1 <0>         0.0872
     43 H12         9.5925    5.8227   -0.0958 H         1 <0>         0.3849
     44 H13         7.9947    4.9316   -0.0469 H         1 <0>         0.1321
     45 H14         5.7690    3.9029    0.0069 H         1 <0>         0.1241
     46 H15         3.9414    7.7577   -0.3326 H         1 <0>         0.1289
     47 H16         5.3017    9.5989    1.4864 H         1 <0>         0.1148
     48 H17         5.5024   12.0392    1.3110 H         1 <0>         0.1185
     49 H18         6.5071   13.0754   -0.6468 H         1 <0>         0.1217
     50 H19         7.2008    7.9244   -2.5565 H         1 <0>         0.1132
     51 H20         8.2036    8.9798   -4.5110 H         1 <0>         0.1197
     52 H21         8.3915   11.4255   -4.6633 H         1 <0>         0.1194
     53 H22         7.5798   12.8539   -2.8645 H         1 <0>         0.1224
     54 H23         2.6650    5.7240   -0.1773 H         1 <0>         0.3922
     55 H24         3.8133    3.3865    0.9153 H         1 <0>         0.1100
     56 H25         3.8359    3.2460   -0.8590 H         1 <0>         0.0929
     57 H26         2.2286    1.3946    0.8783 H         1 <0>         0.1367
     58 H27         2.2116    1.4042   -0.9016 H         1 <0>         0.1160
     59 H28         0.0021   -0.0041    0.0020 H         1 <0>         0.1385
     60 H29         1.6229    3.5241   -2.0332 H         1 <0>         0.4403
     61 H30         0.2105    3.6904   -1.1711 H         1 <0>         0.4436
     62 O3         12.6218    8.1673   -1.9068 O.co2     1 <0>        -0.7644
     63 N3          1.2064    3.9041   -1.1848 N.4       1 <0>        -0.6451
     64 H31         1.3304    4.9233   -1.1781 H         1 <0>         0.4396
@<TRIPOS>BOND
     1    1    2 1
     2    1   34 1
     3    1   35 1
     4    1   36 1
     5    2    3 1
     6    2    4 1
     7    2   37 1
     8    3   38 1
     9    3   39 1
    10    3   40 1
    11    4    5 1
    12    4   41 1
    13    4   42 1
    14    5    6 1
    15    5    7 1
    16    5    9 1
    17    7    8 2
    18    7   62 1
    19    9   10 am
    20    9   43 1
    21   10   11 2
    22   10   12 1
    23   12   17 ar
    24   12   13 ar
    25   13   14 ar
    26   13   44 1
    27   14   15 ar
    28   14   45 1
    29   15   16 ar
    30   15   28 1
    31   16   17 ar
    32   16   46 1
    33   17   18 1
    34   18   23 ar
    35   18   19 ar
    36   19   20 ar
    37   19   47 1
    38   20   21 ar
    39   20   48 1
    40   21   22 ar
    41   21   49 1
    42   22   27 ar
    43   22   23 ar
    44   23   24 ar
    45   24   25 ar
    46   24   50 1
    47   25   26 ar
    48   25   51 1
    49   26   27 ar
    50   26   52 1
    51   27   53 1
    52   28   29 1
    53   28   54 1
    54   29   30 1
    55   29   55 1
    56   29   56 1
    57   30   31 1
    58   30   32 1
    59   30   63 1
    60   32   33 1
    61   32   57 1
    62   32   58 1
    63   33   59 1
    64   60   63 1
    65   61   63 1
    66   63   64 1
@<TRIPOS>MOLECULE
ZINC53070632
   49    52     0     0     0
SMALL
USER_CHARGES

@<TRIPOS>ATOM
      1 C1          0.1172    1.6508   -1.0405 C.ar      1 <0>        -0.0950
      2 C2          1.3282    2.3156   -1.0379 C.ar      1 <0>        -0.0996
      3 C3          2.1971    2.1693    0.0353 C.ar      1 <0>         0.1482
      4 C4          1.8460    1.3545    1.1036 C.ar      1 <0>        -0.1090
      5 C5          0.6332    0.6919    1.0955 C.ar      1 <0>        -0.0255
      6 C6         -0.2305    0.8401    0.0240 C.ar      1 <0>        -0.1078
      7 Cl1         0.1928   -0.3275    2.4299 Cl        1 <0>        -0.0626
      8 N1          3.4245    2.8413    0.0400 N.am      1 <0>        -0.5626
      9 C7          4.6501    2.0559   -0.0734 C.3       1 <0>         0.1194
     10 C8          5.8122    2.9560   -0.4973 C.3       1 <0>         0.0339
     11 N2          5.8446    4.1333    0.3856 N.3       1 <0>        -0.5307
     12 C9          4.6821    4.9932    0.1262 C.3       1 <0>         0.0436
     13 C10         3.4224    4.1745    0.1428 C.2       1 <0>         0.5253
     14 O1          2.3593    4.7467    0.2590 O.2       1 <0>        -0.5257
     15 C11         7.0989    4.8802    0.2214 C.3       1 <0>         0.1243
     16 C12         7.2798    5.8203    1.3851 C.2       1 <0>        -0.0173
     17 C13         6.9108    7.1145    1.4365 C.2       1 <0>        -0.0153
     18 N3          7.2472    7.5943    2.6430 N.2       1 <0>        -0.4893
     19 C14         7.8107    6.6467    3.3412 C.2       1 <0>         0.1903
     20 N4          7.8453    5.5214    2.5953 N.pl3     1 <0>        -0.4424
     21 C15         8.3895    4.2240    3.0038 C.3       1 <0>         0.1420
     22 C16         9.8051    4.0932    2.5039 C.ar      1 <0>        -0.0864
     23 C17        10.0571    3.4323    1.3147 C.ar      1 <0>        -0.1030
     24 C18        11.3505    3.3088    0.8512 C.ar      1 <0>        -0.0693
     25 C19        12.4065    3.8530    1.5849 C.ar      1 <0>        -0.0149
     26 C20        12.1450    4.5191    2.7840 C.ar      1 <0>        -0.0677
     27 C21        10.8463    4.6394    3.2333 C.ar      1 <0>        -0.0977
     28 C22        13.7518    3.7283    1.1101 C.1       1 <0>         0.2456
     29 N5         14.8189    3.6293    0.7334 N.1       1 <0>        -0.4036
     30 H1         -0.5606    1.7680   -1.8730 H         1 <0>         0.1387
     31 H2          1.5990    2.9483   -1.8702 H         1 <0>         0.1283
     32 H3          2.5199    1.2386    1.9395 H         1 <0>         0.1355
     33 H4         -1.1779    0.3218    0.0197 H         1 <0>         0.1379
     34 H5          4.8783    1.6006    0.8903 H         1 <0>         0.0788
     35 H6          4.5098    1.2720   -0.8176 H         1 <0>         0.0863
     36 H7          6.7501    2.4076   -0.4097 H         1 <0>         0.1017
     37 H8          5.6687    3.2767   -1.5291 H         1 <0>         0.0541
     38 H9          4.6249    5.7654    0.8933 H         1 <0>         0.1213
     39 H10         4.7908    5.4635   -0.8511 H         1 <0>         0.0794
     40 H11         7.9352    4.1821    0.1848 H         1 <0>         0.0900
     41 H12         7.0624    5.4523   -0.7057 H         1 <0>         0.0692
     42 H13         6.4285    7.6688    0.6450 H         1 <0>         0.1658
     43 H14         8.1838    6.7449    4.3499 H         1 <0>         0.2043
     44 H15         8.3802    4.1523    4.0914 H         1 <0>         0.1084
     45 H16         7.7798    3.4252    2.5817 H         1 <0>         0.1081
     46 H17         9.2394    3.0119    0.7482 H         1 <0>         0.1339
     47 H18        11.5459    2.7921   -0.0768 H         1 <0>         0.1372
     48 H19        12.9572    4.9423    3.3564 H         1 <0>         0.1376
     49 H20        10.6421    5.1578    4.1585 H         1 <0>         0.1362
@<TRIPOS>BOND
     1    1    6 ar
     2    1    2 ar
     3    1   30 1
     4    2    3 ar
     5    2   31 1
     6    3    4 ar
     7    3    8 1
     8    4    5 ar
     9    4   32 1
    10    5    6 ar
    11    5    7 1
    12    6   33 1
    13    8   13 am
    14    8    9 1
    15    9   10 1
    16    9   34 1
    17    9   35 1
    18   10   11 1
    19   10   36 1
    20   10   37 1
    21   11   12 1
    22   11   15 1
    23   12   13 1
    24   12   38 1
    25   12   39 1
    26   13   14 2
    27   15   16 1
    28   15   40 1
    29   15   41 1
    30   16   20 1
    31   16   17 2
    32   17   18 1
    33   17   42 1
    34   18   19 2
    35   19   20 1
    36   19   43 1
    37   20   21 1
    38   21   22 1
    39   21   44 1
    40   21   45 1
    41   22   27 ar
    42   22   23 ar
    43   23   24 ar
    44   23   46 1
    45   24   25 ar
    46   24   47 1
    47   25   26 ar
    48   25   28 1
    49   26   27 ar
    50   26   48 1
    51   27   49 1
    52   28   29 3
@<TRIPOS>MOLECULE
ZINC53070632
   50    53     0     0     0
SMALL
USER_CHARGES

@<TRIPOS>ATOM
      1 C1          0.1172    1.6508   -1.0405 C.ar      1 <0>        -0.0928
      2 C2          1.3282    2.3156   -1.0379 C.ar      1 <0>        -0.0984
      3 C3          2.1971    2.1693    0.0353 C.ar      1 <0>         0.1382
      4 C4          1.8460    1.3545    1.1036 C.ar      1 <0>        -0.1082
      5 C5          0.6332    0.6919    1.0955 C.ar      1 <0>        -0.0258
      6 C6         -0.2305    0.8401    0.0240 C.ar      1 <0>        -0.1022
      7 Cl1         0.1928   -0.3275    2.4299 Cl        1 <0>        -0.0567
      8 N1          3.4245    2.8413    0.0400 N.am      1 <0>        -0.5579
      9 C7          4.6501    2.0559   -0.0734 C.3       1 <0>         0.1161
     10 C8          5.8122    2.9560   -0.4973 C.3       1 <0>         0.0350
     11 N2          5.8446    4.1333    0.3856 N.3       1 <0>        -0.5333
     12 C9          4.6821    4.9932    0.1262 C.3       1 <0>         0.0384
     13 C10         3.4224    4.1745    0.1428 C.2       1 <0>         0.5210
     14 O1          2.3593    4.7467    0.2590 O.2       1 <0>        -0.5193
     15 C11         7.0989    4.8802    0.2214 C.3       1 <0>         0.1034
     16 C12         7.2798    5.8203    1.3851 C.2       1 <0>         0.0651
     17 C13         6.9108    7.1145    1.4365 C.2       1 <0>         0.0071
     18 N3          7.2472    7.5943    2.6430 N.pl3     1 <0>        -0.4724
     19 C14         7.8107    6.6467    3.3412 C.cat     1 <0>         0.2935
     20 N4          7.8453    5.5214    2.5953 N.pl3     1 <0>        -0.3930
     21 C15         8.3895    4.2240    3.0038 C.3       1 <0>         0.1359
     22 C16         9.8051    4.0932    2.5039 C.ar      1 <0>        -0.1190
     23 C17        10.0571    3.4323    1.3147 C.ar      1 <0>        -0.0946
     24 C18        11.3505    3.3088    0.8512 C.ar      1 <0>        -0.0677
     25 C19        12.4065    3.8530    1.5849 C.ar      1 <0>         0.0123
     26 C20        12.1450    4.5191    2.7840 C.ar      1 <0>        -0.0678
     27 C21        10.8463    4.6394    3.2333 C.ar      1 <0>        -0.0946
     28 C22        13.7518    3.7283    1.1101 C.1       1 <0>         0.2287
     29 N5         14.8189    3.6293    0.7334 N.1       1 <0>        -0.3775
     30 H1         -0.5606    1.7680   -1.8730 H         1 <0>         0.1413
     31 H2          1.5990    2.9483   -1.8702 H         1 <0>         0.1283
     32 H3          2.5199    1.2386    1.9395 H         1 <0>         0.1346
     33 H4         -1.1779    0.3218    0.0197 H         1 <0>         0.1409
     34 H5          4.8783    1.6006    0.8903 H         1 <0>         0.0822
     35 H6          4.5098    1.2720   -0.8176 H         1 <0>         0.0937
     36 H7          6.7501    2.4076   -0.4097 H         1 <0>         0.1082
     37 H8          5.6687    3.2767   -1.5291 H         1 <0>         0.0637
     38 H9          4.6249    5.7654    0.8933 H         1 <0>         0.1133
     39 H10         4.7908    5.4635   -0.8511 H         1 <0>         0.0867
     40 H11         7.9352    4.1821    0.1848 H         1 <0>         0.1131
     41 H12         7.0624    5.4523   -0.7057 H         1 <0>         0.0940
     42 H13         6.4285    7.6688    0.6450 H         1 <0>         0.2215
     43 H14         8.1838    6.7449    4.3499 H         1 <0>         0.2612
     44 H15         8.3802    4.1523    4.0914 H         1 <0>         0.1344
     45 H16         7.7798    3.4252    2.5817 H         1 <0>         0.1370
     46 H17         9.2394    3.0119    0.7482 H         1 <0>         0.1383
     47 H18        11.5459    2.7921   -0.0768 H         1 <0>         0.1450
     48 H19        12.9572    4.9423    3.3564 H         1 <0>         0.1443
     49 H20        10.6421    5.1578    4.1585 H         1 <0>         0.1384
     50 H21         7.0959    8.5025    2.9483 H         1 <0>         0.4664
@<TRIPOS>BOND
     1    1    6 ar
     2    1    2 ar
     3    1   30 1
     4    2    3 ar
     5    2   31 1
     6    3    4 ar
     7    3    8 1
     8    4    5 ar
     9    4   32 1
    10    5    6 ar
    11    5    7 1
    12    6   33 1
    13    8   13 am
    14    8    9 1
    15    9   10 1
    16    9   34 1
    17    9   35 1
    18   10   11 1
    19   10   36 1
    20   10   37 1
    21   11   12 1
    22   11   15 1
    23   12   13 1
    24   12   38 1
    25   12   39 1
    26   13   14 2
    27   15   16 1
    28   15   40 1
    29   15   41 1
    30   16   20 1
    31   16   17 2
    32   17   18 1
    33   17   42 1
    34   18   19 2
    35   18   50 1
    36   19   20 1
    37   19   43 1
    38   20   21 1
    39   21   22 1
    40   21   44 1
    41   21   45 1
    42   22   27 ar
    43   22   23 ar
    44   23   24 ar
    45   23   46 1
    46   24   25 ar
    47   24   47 1
    48   25   26 ar
    49   25   28 1
    50   26   27 ar
    51   26   48 1
    52   27   49 1
    53   28   29 3
@<TRIPOS>MOLECULE
ZINC01488051
   68    70     0     0     0
SMALL
USER_CHARGES

@<TRIPOS>ATOM
      1 C1         -0.0187    1.5258    0.0104 C.3       1 <0>        -0.1497
      2 C2          0.0021   -0.0041    0.0020 C.3       1 <0>        -0.0920
      3 C3          0.7421   -0.5109    1.2415 C.3       1 <0>        -0.1551
      4 C4         -1.4333   -0.5336    0.0129 C.3       1 <0>        -0.1211
      5 C5         -1.4157   -2.0577   -0.1212 C.3       1 <0>         0.1598
      6 H1         -0.7891   -2.4841    0.6622 H         1 <0>         0.1322
      7 C6         -2.8192   -2.5900    0.0125 C.2       1 <0>         0.4474
      8 O1         -3.3178   -3.2133   -0.8944 O.2       1 <0>        -0.4945
      9 O2         -3.5152   -2.3716    1.1393 O.3       1 <0>        -0.3508
     10 C7         -4.8397   -2.9050    1.1973 C.3       1 <0>         0.0343
     11 N1         -0.8765   -2.4263   -1.4325 N.am      1 <0>        -0.7081
     12 C8         -0.2982   -3.6308   -1.6090 C.2       1 <0>         0.5595
     13 O3         -0.2240   -4.4118   -0.6796 O.2       1 <0>        -0.5001
     14 C9          0.2439   -4.0014   -2.9273 C.ar      1 <0>        -0.1606
     15 C10         0.1654   -3.1044   -3.9955 C.ar      1 <0>        -0.0356
     16 C11         0.6724   -3.4523   -5.2264 C.ar      1 <0>        -0.1937
     17 C12         1.2669   -4.6984   -5.4168 C.ar      1 <0>         0.2247
     18 C13         1.3527   -5.6014   -4.3654 C.ar      1 <0>        -0.1774
     19 C14         0.8492   -5.2603   -3.1152 C.ar      1 <0>         0.0707
     20 C15         0.9432   -6.2156   -1.9897 C.ar      1 <0>        -0.0412
     21 C16         2.1789   -6.5753   -1.4783 C.ar      1 <0>        -0.0962
     22 C17         2.2748   -7.4723   -0.4210 C.ar      1 <0>        -0.1233
     23 C18         1.1616   -8.0214    0.1408 C.ar      1 <0>        -0.0916
     24 C19        -0.1128   -7.6845   -0.3467 C.ar      1 <0>        -0.0540
     25 C20        -0.2295   -6.7676   -1.4198 C.ar      1 <0>         0.0097
     26 C21        -1.5017   -6.4282   -1.9016 C.ar      1 <0>        -0.0964
     27 C22        -2.6086   -6.9784   -1.3293 C.ar      1 <0>        -0.1082
     28 C23        -2.4962   -7.8755   -0.2693 C.ar      1 <0>        -0.1191
     29 C24        -1.2766   -8.2379    0.2150 C.ar      1 <0>        -0.1038
     30 N2          1.7759   -5.0393   -6.6657 N.pl3     1 <0>        -0.7615
     31 C25         1.6866   -4.0892   -7.7773 C.3       1 <0>         0.1038
     32 C26         2.3159   -4.7067   -9.0277 C.3       1 <0>         0.0454
     33 H2          3.3827   -4.8565   -8.8615 H         1 <0>         0.1628
     34 C27         2.1122   -3.7673  -10.2181 C.3       1 <0>        -0.1134
     35 S1          2.8583   -4.4993  -11.7006 S.3       1 <0>        -0.2453
     36 N3          1.6779   -5.9996   -9.3095 N.4       1 <0>        -0.6367
     37 H3          1.0039    1.9031    0.0027 H         1 <0>         0.0591
     38 H4         -0.5459    1.8868   -0.8726 H         1 <0>         0.0549
     39 H5         -0.5289    1.8773    0.9072 H         1 <0>         0.0595
     40 H6          0.5123   -0.3556   -0.8948 H         1 <0>         0.0718
     41 H7          1.7647   -0.1336    1.2338 H         1 <0>         0.0588
     42 H8          0.2319   -0.1594    2.1383 H         1 <0>         0.0609
     43 H9          0.7568   -1.6008    1.2356 H         1 <0>         0.0562
     44 H10        -1.9156   -0.2570    0.9504 H         1 <0>         0.0979
     45 H11        -1.9862   -0.1019   -0.8214 H         1 <0>         0.0759
     46 H12        -5.4396   -2.4761    0.3946 H         1 <0>         0.0603
     47 H13        -4.8005   -3.9882    1.0825 H         1 <0>         0.0607
     48 H14        -5.2892   -2.6576    2.1589 H         1 <0>         0.1049
     49 H15        -0.9356   -1.8035   -2.1738 H         1 <0>         0.4018
     50 H16        -0.2939   -2.1371   -3.8550 H         1 <0>         0.1314
     51 H17         0.6090   -2.7561   -6.0496 H         1 <0>         0.1288
     52 H18         1.8136   -6.5662   -4.5177 H         1 <0>         0.1332
     53 H19         3.0772   -6.1549   -1.9057 H         1 <0>         0.1193
     54 H20         3.2488   -7.7390   -0.0382 H         1 <0>         0.1240
     55 H21         1.2587   -8.7167    0.9615 H         1 <0>         0.1261
     56 H22        -1.6035   -5.7335   -2.7222 H         1 <0>         0.1127
     57 H23        -3.5874   -6.7153   -1.7024 H         1 <0>         0.1170
     58 H24        -3.3891   -8.2975    0.1677 H         1 <0>         0.1208
     59 H25        -1.2042   -8.9356    1.0362 H         1 <0>         0.1262
     60 H26         2.1901   -5.9060   -6.8005 H         1 <0>         0.3963
     61 H27         0.6398   -3.8575   -7.9739 H         1 <0>         0.0946
     62 H28         2.2186   -3.1742   -7.5168 H         1 <0>         0.1130
     63 H29         1.0454   -3.6175  -10.3843 H         1 <0>         0.1163
     64 H30         2.5856   -2.8079  -10.0090 H         1 <0>         0.1375
     65 H31         2.6181   -3.5946  -12.6664 H         1 <0>         0.1421
     66 H32         1.8122   -6.6191   -8.5245 H         1 <0>         0.4351
     67 H33         0.6904   -5.8609   -9.4634 H         1 <0>         0.4381
     68 H34         2.0929   -6.4068  -10.1341 H         1 <0>         0.4438
@<TRIPOS>BOND
     1    1    2 1
     2    1   37 1
     3    1   38 1
     4    1   39 1
     5    2    3 1
     6    2    4 1
     7    2   40 1
     8    3   41 1
     9    3   42 1
    10    3   43 1
    11    4    5 1
    12    4   44 1
    13    4   45 1
    14    5    6 1
    15    5    7 1
    16    5   11 1
    17    7    8 2
    18    7    9 1
    19    9   10 1
    20   10   46 1
    21   10   47 1
    22   10   48 1
    23   11   12 am
    24   11   49 1
    25   12   13 2
    26   12   14 1
    27   14   19 ar
    28   14   15 ar
    29   15   16 ar
    30   15   50 1
    31   16   17 ar
    32   16   51 1
    33   17   18 ar
    34   17   30 1
    35   18   19 ar
    36   18   52 1
    37   19   20 1
    38   20   25 ar
    39   20   21 ar
    40   21   22 ar
    41   21   53 1
    42   22   23 ar
    43   22   54 1
    44   23   24 ar
    45   23   55 1
    46   24   29 ar
    47   24   25 ar
    48   25   26 ar
    49   26   27 ar
    50   26   56 1
    51   27   28 ar
    52   27   57 1
    53   28   29 ar
    54   28   58 1
    55   29   59 1
    56   30   31 1
    57   30   60 1
    58   31   32 1
    59   31   61 1
    60   31   62 1
    61   32   33 1
    62   32   34 1
    63   32   36 1
    64   34   35 1
    65   34   63 1
    66   34   64 1
    67   35   65 1
    68   36   66 1
    69   36   67 1
    70   36   68 1
@<TRIPOS>MOLECULE
ZINC24809155
   56    60     0     0     0
SMALL
USER_CHARGES
6-[(R)-amino-(4-chlorophenyl)-(3-methylimidazol-4-yl)methyl]-4-(3-chlorophenyl)-1-methyl-quinolin-2-one
@<TRIPOS>ATOM
      1 C1          4.0958    4.0587    5.4913 C.3       1 <0>         0.0622
      2 N1          3.9399    5.4291    5.9851 N.pl3     1 <0>        -0.4500
      3 C2          4.8140    6.1056    6.7610 C.2       1 <0>         0.1876
      4 N2          4.3316    7.2953    6.9954 N.2       1 <0>        -0.4896
      5 C3          3.1469    7.4215    6.3792 C.2       1 <0>        -0.0049
      6 C4          2.8811    6.2631    5.7461 C.2       1 <0>        -0.0086
      7 C5          1.6564    5.9478    4.9264 C.3       1 <0>         0.2804
      8 C6          0.6824    7.0941    5.0172 C.ar      1 <0>        -0.0692
      9 C7          0.9485    8.2806    4.3595 C.ar      1 <0>        -0.0934
     10 C8          0.0528    9.3303    4.4378 C.ar      1 <0>        -0.1113
     11 C9         -1.1048    9.1974    5.1838 C.ar      1 <0>        -0.0278
     12 C10        -1.3678    8.0117    5.8464 C.ar      1 <0>        -0.1120
     13 C11        -0.4741    6.9607    5.7628 C.ar      1 <0>        -0.0777
     14 Cl1        -2.2271   10.5178    5.2879 Cl        1 <0>        -0.0683
     15 C12         2.0546    5.7396    3.4880 C.ar      1 <0>        -0.1439
     16 C13         3.0894    6.4884    2.9450 C.ar      1 <0>        -0.0472
     17 C14         3.4695    6.3133    1.6319 C.ar      1 <0>        -0.1558
     18 C15         2.8099    5.3778    0.8412 C.ar      1 <0>         0.1945
     19 C16         1.7627    4.6216    1.3961 C.ar      1 <0>        -0.1121
     20 C17         1.3939    4.8146    2.7289 C.ar      1 <0>        -0.0523
     21 C18         1.0731    3.6339    0.5505 C.2       1 <0>         0.0499
     22 C19         1.4866    3.4887   -0.7471 C.2       1 <0>        -0.1941
     23 C20         2.5376    4.2797   -1.2449 C.2       1 <0>         0.5342
     24 O1          2.8876    4.1391   -2.4044 O.2       1 <0>        -0.5306
     25 N3          3.1702    5.1824   -0.4762 N.am      1 <0>        -0.5207
     26 C21         4.2624    5.9739   -1.0478 C.3       1 <0>         0.0529
     27 C22        -0.0345    2.8143    1.0903 C.ar      1 <0>        -0.0525
     28 C23         0.1082    1.4304    1.2027 C.ar      1 <0>        -0.0918
     29 C24        -0.9275    0.6715    1.7070 C.ar      1 <0>        -0.1016
     30 C25        -2.1084    1.2784    2.0963 C.ar      1 <0>        -0.0987
     31 C26        -2.2549    2.6512    1.9925 C.ar      1 <0>        -0.0325
     32 C27        -1.2254    3.4218    1.4892 C.ar      1 <0>        -0.0917
     33 Cl2        -3.7381    3.4044    2.4892 Cl        1 <0>        -0.0577
     34 N4          1.0240    4.7259    5.4412 N.3       1 <0>        -0.8117
     35 H1          5.0501    3.6459    5.8504 H         1 <0>         0.0971
     36 H2          4.0886    4.0623    4.3913 H         1 <0>         0.0794
     37 H3          3.2658    3.4390    5.8614 H         1 <0>         0.0842
     38 H4          5.7563    5.7252    7.1267 H         1 <0>         0.2057
     39 H5          2.5155    8.2977    6.3911 H         1 <0>         0.1665
     40 H6          1.8542    8.3857    3.7808 H         1 <0>         0.1301
     41 H7          0.2586   10.2557    3.9203 H         1 <0>         0.1347
     42 H8         -2.2711    7.9076    6.4292 H         1 <0>         0.1350
     43 H9         -0.6791    6.0352    6.2803 H         1 <0>         0.1462
     44 H10         3.6020    7.2152    3.5577 H         1 <0>         0.1345
     45 H11         4.2759    6.9006    1.2180 H         1 <0>         0.1395
     46 H12         0.5897    4.2356    3.1583 H         1 <0>         0.1337
     47 H13         1.0020    2.7689   -1.3901 H         1 <0>         0.1587
     48 H14         4.4111    5.6878   -2.0995 H         1 <0>         0.1068
     49 H15         5.1868    5.7853   -0.4823 H         1 <0>         0.0780
     50 H16         4.0093    7.0429   -0.9908 H         1 <0>         0.0788
     51 H17         1.0279    0.9547    0.8957 H         1 <0>         0.1342
     52 H18        -0.8180   -0.3994    1.7939 H         1 <0>         0.1394
     53 H19        -2.9177    0.6791    2.4866 H         1 <0>         0.1384
     54 H20        -1.3416    4.4923    1.4050 H         1 <0>         0.1372
     55 H21         0.1301    4.4957    4.8429 H         1 <0>         0.3476
     56 H22         1.7350    3.8892    5.3749 H         1 <0>         0.3401
@<TRIPOS>BOND
     1    1    2 1
     2    1   35 1
     3    1   36 1
     4    1   37 1
     5    2    6 1
     6    2    3 1
     7    3    4 2
     8    3   38 1
     9    4    5 1
    10    5    6 2
    11    5   39 1
    12    6    7 1
    13    7    8 1
    14    7   15 1
    15    7   34 1
    16    8   13 ar
    17    8    9 ar
    18    9   10 ar
    19    9   40 1
    20   10   11 ar
    21   10   41 1
    22   11   12 ar
    23   11   14 1
    24   12   13 ar
    25   12   42 1
    26   13   43 1
    27   15   20 ar
    28   15   16 ar
    29   16   17 ar
    30   16   44 1
    31   17   18 ar
    32   17   45 1
    33   18   25 1
    34   18   19 ar
    35   19   20 ar
    36   19   21 1
    37   20   46 1
    38   21   22 2
    39   21   27 1
    40   22   23 1
    41   22   47 1
    42   23   24 2
    43   23   25 am
    44   25   26 1
    45   26   48 1
    46   26   49 1
    47   26   50 1
    48   27   32 ar
    49   27   28 ar
    50   28   29 ar
    51   28   51 1
    52   29   30 ar
    53   29   52 1
    54   30   31 ar
    55   30   53 1
    56   31   32 ar
    57   31   33 1
    58   32   54 1
    59   34   55 1
    60   34   56 1
@<TRIPOS>MOLECULE
ZINC24809155
   57    61     0     0     0
SMALL
USER_CHARGES
6-[(R)-amino-(4-chlorophenyl)-(3-methylimidazol-4-yl)methyl]-4-(3-chlorophenyl)-1-methyl-quinolin-2-one
@<TRIPOS>ATOM
      1 C1          4.0958    4.0587    5.4913 C.3       1 <0>         0.0431
      2 N1          3.9399    5.4291    5.9851 N.pl3     1 <0>        -0.4008
      3 C2          4.8140    6.1056    6.7610 C.cat     1 <0>         0.2791
      4 N2          4.3316    7.2953    6.9954 N.pl3     1 <0>        -0.4888
      5 C3          3.1469    7.4215    6.3792 C.2       1 <0>         0.0261
      6 C4          2.8811    6.2631    5.7461 C.2       1 <0>         0.0710
      7 C5          1.6564    5.9478    4.9264 C.3       1 <0>         0.2787
      8 C6          0.6824    7.0941    5.0172 C.ar      1 <0>        -0.0982
      9 C7          0.9485    8.2806    4.3595 C.ar      1 <0>        -0.0994
     10 C8          0.0528    9.3303    4.4378 C.ar      1 <0>        -0.1092
     11 C9         -1.1048    9.1974    5.1838 C.ar      1 <0>        -0.0198
     12 C10        -1.3678    8.0117    5.8464 C.ar      1 <0>        -0.1079
     13 C11        -0.4741    6.9607    5.7628 C.ar      1 <0>        -0.0717
     14 Cl1        -2.2271   10.5178    5.2879 Cl        1 <0>        -0.0511
     15 C12         2.0546    5.7396    3.4880 C.ar      1 <0>        -0.1672
     16 C13         3.0894    6.4884    2.9450 C.ar      1 <0>        -0.0635
     17 C14         3.4695    6.3133    1.6319 C.ar      1 <0>        -0.1494
     18 C15         2.8099    5.3778    0.8412 C.ar      1 <0>         0.2044
     19 C16         1.7627    4.6216    1.3961 C.ar      1 <0>        -0.1037
     20 C17         1.3939    4.8146    2.7289 C.ar      1 <0>        -0.0413
     21 C18         1.0731    3.6339    0.5505 C.2       1 <0>         0.0420
     22 C19         1.4866    3.4887   -0.7471 C.2       1 <0>        -0.1803
     23 C20         2.5376    4.2797   -1.2449 C.2       1 <0>         0.5323
     24 O1          2.8876    4.1391   -2.4044 O.2       1 <0>        -0.5147
     25 N3          3.1702    5.1824   -0.4762 N.am      1 <0>        -0.5221
     26 C21         4.2624    5.9739   -1.0478 C.3       1 <0>         0.0504
     27 C22        -0.0345    2.8143    1.0903 C.ar      1 <0>        -0.0580
     28 C23         0.1082    1.4304    1.2027 C.ar      1 <0>        -0.0913
     29 C24        -0.9275    0.6715    1.7070 C.ar      1 <0>        -0.0996
     30 C25        -2.1084    1.2784    2.0963 C.ar      1 <0>        -0.0954
     31 C26        -2.2549    2.6512    1.9925 C.ar      1 <0>        -0.0334
     32 C27        -1.2254    3.4218    1.4892 C.ar      1 <0>        -0.0940
     33 Cl2        -3.7381    3.4044    2.4892 Cl        1 <0>        -0.0542
     34 N4          1.0240    4.7259    5.4412 N.3       1 <0>        -0.8135
     35 H1          5.0501    3.6459    5.8504 H         1 <0>         0.1240
     36 H2          4.0886    4.0623    4.3913 H         1 <0>         0.1124
     37 H3          3.2658    3.4390    5.8614 H         1 <0>         0.1159
     38 H4          5.7563    5.7252    7.1267 H         1 <0>         0.2604
     39 H5          2.5155    8.2977    6.3911 H         1 <0>         0.2175
     40 H6          1.8542    8.3857    3.7808 H         1 <0>         0.1316
     41 H7          0.2586   10.2557    3.9203 H         1 <0>         0.1399
     42 H8         -2.2711    7.9076    6.4292 H         1 <0>         0.1414
     43 H9         -0.6791    6.0352    6.2803 H         1 <0>         0.1498
     44 H10         3.6020    7.2152    3.5577 H         1 <0>         0.1253
     45 H11         4.2759    6.9006    1.2180 H         1 <0>         0.1429
     46 H12         0.5897    4.2356    3.1583 H         1 <0>         0.1371
     47 H13         1.0020    2.7689   -1.3901 H         1 <0>         0.1633
     48 H14         4.4111    5.6878   -2.0995 H         1 <0>         0.1106
     49 H15         5.1868    5.7853   -0.4823 H         1 <0>         0.0792
     50 H16         4.0093    7.0429   -0.9908 H         1 <0>         0.0806
     51 H17         1.0279    0.9547    0.8957 H         1 <0>         0.1349
     52 H18        -0.8180   -0.3994    1.7939 H         1 <0>         0.1415
     53 H19        -2.9177    0.6791    2.4866 H         1 <0>         0.1406
     54 H20        -1.3416    4.4923    1.4050 H         1 <0>         0.1363
     55 H21         0.1301    4.4957    4.8429 H         1 <0>         0.3696
     56 H22         1.7350    3.8892    5.3749 H         1 <0>         0.3422
     57 H23         4.8965    8.0051    7.6175 H         1 <0>         0.5045
@<TRIPOS>BOND
     1    1    2 1
     2    1   35 1
     3    1   36 1
     4    1   37 1
     5    2    6 1
     6    2    3 1
     7    3    4 2
     8    3   38 1
     9    4    5 1
    10    4   57 1
    11    5    6 2
    12    5   39 1
    13    6    7 1
    14    7    8 1
    15    7   15 1
    16    7   34 1
    17    8   13 ar
    18    8    9 ar
    19    9   10 ar
    20    9   40 1
    21   10   11 ar
    22   10   41 1
    23   11   12 ar
    24   11   14 1
    25   12   13 ar
    26   12   42 1
    27   13   43 1
    28   15   20 ar
    29   15   16 ar
    30   16   17 ar
    31   16   44 1
    32   17   18 ar
    33   17   45 1
    34   18   25 1
    35   18   19 ar
    36   19   20 ar
    37   19   21 1
    38   20   46 1
    39   21   22 2
    40   21   27 1
    41   22   23 1
    42   22   47 1
    43   23   24 2
    44   23   25 am
    45   25   26 1
    46   26   48 1
    47   26   49 1
    48   26   50 1
    49   27   32 ar
    50   27   28 ar
    51   28   29 ar
    52   28   51 1
    53   29   30 ar
    54   29   52 1
    55   30   31 ar
    56   30   53 1
    57   31   32 ar
    58   31   33 1
    59   32   54 1
    60   34   55 1
    61   34   56 1
@<TRIPOS>MOLECULE
ZINC03925649
   58    62     0     0     0
SMALL
USER_CHARGES

@<TRIPOS>ATOM
      1 C1          5.7027    2.8089   -1.4773 C.ar      1 <0>        -0.1167
      2 C2          6.2056    1.5415   -1.7042 C.ar      1 <0>        -0.1111
      3 C3          5.5333    0.4344   -1.2213 C.ar      1 <0>        -0.1157
      4 C4          4.3583    0.5948   -0.5110 C.ar      1 <0>        -0.0791
      5 C5          3.8559    1.8623   -0.2832 C.ar      1 <0>        -0.1224
      6 C6          4.5275    2.9693   -0.7674 C.ar      1 <0>        -0.1161
      7 C7          3.6248   -0.6121    0.0147 C.3       1 <0>        -0.1515
      8 C8          4.1986   -1.0039    1.3779 C.3       1 <0>         0.1442
      9 H1          4.2046   -0.1287    2.0276 H         1 <0>         0.0762
     10 C9          5.6222   -1.4976    1.1951 C.3       1 <0>         0.1185
     11 N1          6.1954   -1.8618    2.5003 N.pl3     1 <0>        -0.6522
     12 C10         5.9831   -3.1482    2.9753 C.ar      1 <0>         0.1941
     13 C11         7.0401   -4.0463    3.0909 C.ar      1 <0>        -0.1309
     14 C12         6.8054   -5.3357    3.5115 C.ar      1 <0>        -0.0471
     15 C13         5.5058   -5.7487    3.8206 C.ar      1 <0>        -0.0218
     16 C14         4.4466   -4.8387    3.7242 C.ar      1 <0>        -0.0377
     17 C15         4.6952   -3.5492    3.3290 C.ar      1 <0>        -0.1409
     18 C16         3.5901   -2.5097    3.3409 C.3       1 <0>         0.1779
     19 N2          3.3515   -2.0403    1.9757 N.pl3     1 <0>        -0.9849
     20 S1          2.1072   -2.6871    1.0950 S.o2      1 <0>         2.7168
     21 O1          2.5223   -2.6749   -0.2640 O.2       1 <0>        -0.9339
     22 O2          1.7149   -3.8794    1.7611 O.2       1 <0>        -0.9385
     23 C17         0.7484   -1.5720    1.2164 C.2       1 <0>        -0.7763
     24 C18         0.4283   -0.5260    0.4160 C.2       1 <0>        -0.0060
     25 C19        -0.6991    0.2194    0.7057 C.2       1 <0>        -0.1936
     26 C20        -1.4514   -0.1176    1.7817 C.2       1 <0>        -0.1219
     27 S2         -0.5686   -1.5315    2.4212 S.3       1 <0>         0.1664
     28 C21         5.2593   -7.0975    4.2336 C.1       1 <0>         0.2378
     29 N3          5.0637   -8.1675    4.5613 N.1       1 <0>        -0.3915
     30 C22         6.9705   -0.8918    3.2778 C.3       1 <0>         0.1973
     31 C23         6.0466   -0.1246    4.1882 C.2       1 <0>         0.0404
     32 C24         5.4748    1.0675    3.9322 C.2       1 <0>         0.0084
     33 N4          4.7267    1.4052    4.9930 N.pl3     1 <0>        -0.4727
     34 C25         4.8132    0.4678    5.8967 C.cat     1 <0>         0.3026
     35 N5          5.6225   -0.5083    5.4318 N.pl3     1 <0>        -0.5055
     36 H2          5.8605   -1.3273    5.8938 H         1 <0>         0.4652
     37 H3          6.2304    3.6741   -1.8507 H         1 <0>         0.1243
     38 H4          7.1236    1.4162   -2.2592 H         1 <0>         0.1264
     39 H5          5.9259   -0.5559   -1.3992 H         1 <0>         0.1268
     40 H6          2.9377    1.9876    0.2714 H         1 <0>         0.1172
     41 H7          4.1347    3.9596   -0.5898 H         1 <0>         0.1225
     42 H8          2.5659   -0.3763    0.1203 H         1 <0>         0.0813
     43 H9          3.7445   -1.4419   -0.6819 H         1 <0>         0.1451
     44 H10         5.6218   -2.3711    0.5431 H         1 <0>         0.0898
     45 H11         6.2237   -0.7093    0.7426 H         1 <0>         0.1025
     46 H12         8.0447   -3.7314    2.8501 H         1 <0>         0.1408
     47 H13         7.6273   -6.0303    3.6026 H         1 <0>         0.1412
     48 H14         3.4397   -5.1502    3.9596 H         1 <0>         0.1452
     49 H15         2.6773   -2.9540    3.7377 H         1 <0>         0.1007
     50 H16         3.8881   -1.6694    3.9680 H         1 <0>         0.0728
     51 H17         1.0452   -0.2784   -0.4352 H         1 <0>         0.1521
     52 H18        -0.9763    1.0581    0.0842 H         1 <0>         0.1494
     53 H19        -2.3531    0.3462    2.1534 H         1 <0>         0.2000
     54 H20         7.7155   -1.4173    3.8753 H         1 <0>         0.1066
     55 H21         7.4704   -0.1996    2.6004 H         1 <0>         0.1238
     56 H22         5.5971    1.6495    3.0307 H         1 <0>         0.2220
     57 H23         4.3166    0.4702    6.8557 H         1 <0>         0.2653
     58 H24         4.2042    2.2183    5.0756 H         1 <0>         0.4665
@<TRIPOS>BOND
     1    1    6 ar
     2    1    2 ar
     3    1   37 1
     4    2    3 ar
     5    2   38 1
     6    3    4 ar
     7    3   39 1
     8    4    5 ar
     9    4    7 1
    10    5    6 ar
    11    5   40 1
    12    6   41 1
    13    7    8 1
    14    7   42 1
    15    7   43 1
    16    8    9 1
    17    8   19 1
    18    8   10 1
    19   10   11 1
    20   10   44 1
    21   10   45 1
    22   11   12 1
    23   11   30 1
    24   12   17 ar
    25   12   13 ar
    26   13   14 ar
    27   13   46 1
    28   14   15 ar
    29   14   47 1
    30   15   16 ar
    31   15   28 1
    32   16   17 ar
    33   16   48 1
    34   17   18 1
    35   18   19 1
    36   18   49 1
    37   18   50 1
    38   19   20 1
    39   20   21 2
    40   20   22 2
    41   20   23 1
    42   23   27 1
    43   23   24 2
    44   24   25 1
    45   24   51 1
    46   25   26 2
    47   25   52 1
    48   26   27 1
    49   26   53 1
    50   28   29 3
    51   30   31 1
    52   30   54 1
    53   30   55 1
    54   31   35 1
    55   31   32 2
    56   32   33 1
    57   32   56 1
    58   33   34 2
    59   33   58 1
    60   34   35 1
    61   34   57 1
    62   35   36 1
@<TRIPOS>MOLECULE
ZINC03925649
   58    62     0     0     0
SMALL
USER_CHARGES

@<TRIPOS>ATOM
      1 C1          5.7027    2.8089   -1.4773 C.ar      1 <0>        -0.1167
      2 C2          6.2056    1.5415   -1.7042 C.ar      1 <0>        -0.1112
      3 C3          5.5333    0.4344   -1.2213 C.ar      1 <0>        -0.1156
      4 C4          4.3583    0.5948   -0.5110 C.ar      1 <0>        -0.0792
      5 C5          3.8559    1.8623   -0.2832 C.ar      1 <0>        -0.1224
      6 C6          4.5275    2.9693   -0.7674 C.ar      1 <0>        -0.1160
      7 C7          3.6248   -0.6121    0.0147 C.3       1 <0>        -0.1516
      8 C8          4.1986   -1.0039    1.3779 C.3       1 <0>         0.1443
      9 H1          4.2046   -0.1287    2.0276 H         1 <0>         0.0760
     10 C9          5.6222   -1.4976    1.1951 C.3       1 <0>         0.1186
     11 N1          6.1954   -1.8618    2.5003 N.pl3     1 <0>        -0.6528
     12 C10         5.9831   -3.1482    2.9753 C.ar      1 <0>         0.1938
     13 C11         7.0401   -4.0463    3.0909 C.ar      1 <0>        -0.1310
     14 C12         6.8054   -5.3357    3.5115 C.ar      1 <0>        -0.0470
     15 C13         5.5058   -5.7487    3.8206 C.ar      1 <0>        -0.0218
     16 C14         4.4466   -4.8387    3.7242 C.ar      1 <0>        -0.0375
     17 C15         4.6952   -3.5492    3.3290 C.ar      1 <0>        -0.1417
     18 C16         3.5901   -2.5097    3.3409 C.3       1 <0>         0.1782
     19 N2          3.3515   -2.0403    1.9757 N.pl3     1 <0>        -0.9848
     20 S1          2.1072   -2.6871    1.0950 S.o2      1 <0>         2.7169
     21 O1          2.5223   -2.6749   -0.2640 O.2       1 <0>        -0.9338
     22 O2          1.7149   -3.8794    1.7611 O.2       1 <0>        -0.9385
     23 C17         0.7484   -1.5720    1.2164 C.2       1 <0>        -0.7764
     24 C18         0.4283   -0.5260    0.4160 C.2       1 <0>        -0.0059
     25 C19        -0.6991    0.2194    0.7057 C.2       1 <0>        -0.1936
     26 C20        -1.4514   -0.1176    1.7817 C.2       1 <0>        -0.1218
     27 S2         -0.5686   -1.5315    2.4212 S.3       1 <0>         0.1664
     28 C21         5.2593   -7.0975    4.2336 C.1       1 <0>         0.2376
     29 N3          5.0637   -8.1675    4.5613 N.1       1 <0>        -0.3914
     30 C22         6.9705   -0.8918    3.2778 C.3       1 <0>         0.1973
     31 C23         6.0466   -0.1246    4.1882 C.2       1 <0>         0.0100
     32 C24         5.4812    1.0677    3.9196 C.2       1 <0>         0.0401
     33 N4          4.7209    1.3998    5.0083 N.pl3     1 <0>        -0.5087
     34 H2          4.1899    2.2044    5.1158 H         1 <0>         0.4670
     35 C25         4.8483    0.3981    5.9050 C.cat     1 <0>         0.3035
     36 N5          5.6386   -0.5124    5.4057 N.pl3     1 <0>        -0.4701
     37 H3          6.2304    3.6741   -1.8507 H         1 <0>         0.1243
     38 H4          7.1236    1.4162   -2.2592 H         1 <0>         0.1264
     39 H5          5.9259   -0.5559   -1.3992 H         1 <0>         0.1268
     40 H6          2.9377    1.9876    0.2714 H         1 <0>         0.1173
     41 H7          4.1347    3.9596   -0.5898 H         1 <0>         0.1225
     42 H8          2.5659   -0.3763    0.1203 H         1 <0>         0.0812
     43 H9          3.7445   -1.4419   -0.6819 H         1 <0>         0.1451
     44 H10         5.6218   -2.3711    0.5431 H         1 <0>         0.0896
     45 H11         6.2237   -0.7093    0.7426 H         1 <0>         0.1024
     46 H12         8.0447   -3.7314    2.8501 H         1 <0>         0.1408
     47 H13         7.6273   -6.0303    3.6026 H         1 <0>         0.1412
     48 H14         3.4397   -5.1502    3.9596 H         1 <0>         0.1453
     49 H15         2.6773   -2.9540    3.7377 H         1 <0>         0.1009
     50 H16         3.8881   -1.6694    3.9680 H         1 <0>         0.0719
     51 H17         1.0452   -0.2784   -0.4352 H         1 <0>         0.1521
     52 H18        -0.9763    1.0581    0.0842 H         1 <0>         0.1494
     53 H19        -2.3531    0.3462    2.1534 H         1 <0>         0.2000
     54 H20         7.7155   -1.4173    3.8753 H         1 <0>         0.1057
     55 H21         7.4704   -0.1996    2.6004 H         1 <0>         0.1226
     56 H22         5.6042    1.6502    3.0185 H         1 <0>         0.2241
     57 H23         4.3718    0.3557    6.8733 H         1 <0>         0.2654
     58 H24         5.8924   -1.3385    5.8462 H         1 <0>         0.4647
@<TRIPOS>BOND
     1    1    6 ar
     2    1    2 ar
     3    1   37 1
     4    2    3 ar
     5    2   38 1
     6    3    4 ar
     7    3   39 1
     8    4    5 ar
     9    4    7 1
    10    5    6 ar
    11    5   40 1
    12    6   41 1
    13    7    8 1
    14    7   42 1
    15    7   43 1
    16    8    9 1
    17    8   19 1
    18    8   10 1
    19   10   11 1
    20   10   44 1
    21   10   45 1
    22   11   12 1
    23   11   30 1
    24   12   17 ar
    25   12   13 ar
    26   13   14 ar
    27   13   46 1
    28   14   15 ar
    29   14   47 1
    30   15   16 ar
    31   15   28 1
    32   16   17 ar
    33   16   48 1
    34   17   18 1
    35   18   19 1
    36   18   49 1
    37   18   50 1
    38   19   20 1
    39   20   21 2
    40   20   22 2
    41   20   23 1
    42   23   27 1
    43   23   24 2
    44   24   25 1
    45   24   51 1
    46   25   26 2
    47   25   52 1
    48   26   27 1
    49   26   53 1
    50   28   29 3
    51   30   31 1
    52   30   54 1
    53   30   55 1
    54   31   36 1
    55   31   32 2
    56   32   33 1
    57   32   56 1
    58   33   34 1
    59   33   35 1
    60   35   36 2
    61   35   57 1
    62   36   58 1
@<TRIPOS>MOLECULE
ZINC03925649
   57    61     0     0     0
SMALL
USER_CHARGES

@<TRIPOS>ATOM
      1 C1          5.7027    2.8089   -1.4773 C.ar      1 <0>        -0.1216
      2 C2          6.2056    1.5415   -1.7043 C.ar      1 <0>        -0.1161
      3 C3          5.5333    0.4344   -1.2213 C.ar      1 <0>        -0.1151
      4 C4          4.3583    0.5948   -0.5110 C.ar      1 <0>        -0.0688
      5 C5          3.8559    1.8623   -0.2832 C.ar      1 <0>        -0.1102
      6 C6          4.5275    2.9693   -0.7674 C.ar      1 <0>        -0.1148
      7 C7          3.6248   -0.6122    0.0147 C.3       1 <0>        -0.1469
      8 C8          4.1986   -1.0039    1.3779 C.3       1 <0>         0.1354
      9 H1          4.2046   -0.1287    2.0276 H         1 <0>         0.1055
     10 C9          5.6222   -1.4976    1.1951 C.3       1 <0>         0.1324
     11 N1          6.1954   -1.8618    2.5003 N.pl3     1 <0>        -0.6541
     12 C10         5.9831   -3.1482    2.9753 C.ar      1 <0>         0.2283
     13 C11         7.0401   -4.0463    3.0909 C.ar      1 <0>        -0.1417
     14 C12         6.8054   -5.3357    3.5115 C.ar      1 <0>        -0.0490
     15 C13         5.5057   -5.7487    3.8206 C.ar      1 <0>        -0.0471
     16 C14         4.4466   -4.8387    3.7242 C.ar      1 <0>        -0.0377
     17 C15         4.6952   -3.5492    3.3290 C.ar      1 <0>        -0.1376
     18 C16         3.5901   -2.5096    3.3409 C.3       1 <0>         0.1756
     19 N2          3.3515   -2.0403    1.9757 N.pl3     1 <0>        -0.9778
     20 S1          2.1072   -2.6871    1.0950 S.o2      1 <0>         2.7151
     21 O1          2.5223   -2.6749   -0.2640 O.2       1 <0>        -0.9412
     22 O2          1.7149   -3.8794    1.7611 O.2       1 <0>        -0.9469
     23 C17         0.7484   -1.5720    1.2164 C.2       1 <0>        -0.7642
     24 C18         0.4283   -0.5260    0.4160 C.2       1 <0>        -0.0110
     25 C19        -0.6991    0.2194    0.7057 C.2       1 <0>        -0.1900
     26 C20        -1.4514   -0.1176    1.7817 C.2       1 <0>        -0.1317
     27 S2         -0.5686   -1.5315    2.4212 S.3       1 <0>         0.1633
     28 C21         5.2593   -7.0975    4.2336 C.1       1 <0>         0.2543
     29 N3          5.0637   -8.1675    4.5613 N.1       1 <0>        -0.4179
     30 C22         6.9705   -0.8918    3.2778 C.3       1 <0>         0.2237
     31 C23         6.0466   -0.1246    4.1882 C.2       1 <0>        -0.0182
     32 C24         5.7888   -0.4116    5.4785 C.2       1 <0>        -0.0415
     33 N4          4.9030    0.5317    5.9247 N.pl3     1 <0>        -0.5698
     34 C25         4.6500    1.3628    4.8909 C.2       1 <0>         0.1819
     35 N5          5.3413    0.9671    3.8571 N.2       1 <0>        -0.4752
     36 H2          6.2304    3.6741   -1.8508 H         1 <0>         0.1191
     37 H3          7.1236    1.4161   -2.2592 H         1 <0>         0.1212
     38 H4          5.9258   -0.5559   -1.3993 H         1 <0>         0.1234
     39 H5          2.9377    1.9876    0.2714 H         1 <0>         0.1163
     40 H6          4.1347    3.9596   -0.5898 H         1 <0>         0.1190
     41 H7          2.5659   -0.3763    0.1203 H         1 <0>         0.0747
     42 H8          3.7445   -1.4419   -0.6819 H         1 <0>         0.1376
     43 H9          5.6218   -2.3711    0.5431 H         1 <0>         0.0721
     44 H10         6.2237   -0.7093    0.7426 H         1 <0>         0.0949
     45 H11         8.0447   -3.7314    2.8501 H         1 <0>         0.1364
     46 H12         7.6273   -6.0304    3.6027 H         1 <0>         0.1338
     47 H13         3.4396   -5.1502    3.9596 H         1 <0>         0.1386
     48 H14         2.6772   -2.9540    3.7377 H         1 <0>         0.0903
     49 H15         3.8881   -1.6694    3.9680 H         1 <0>         0.0951
     50 H16         1.0452   -0.2784   -0.4352 H         1 <0>         0.1521
     51 H17        -0.9763    1.0581    0.0842 H         1 <0>         0.1465
     52 H18        -2.3531    0.3462    2.1534 H         1 <0>         0.1968
     53 H19         7.7155   -1.4173    3.8753 H         1 <0>         0.0824
     54 H20         7.4704   -0.1996    2.6004 H         1 <0>         0.0850
     55 H21         6.2015   -1.2292    6.0510 H         1 <0>         0.1724
     56 H22         3.9885    2.2161    4.9165 H         1 <0>         0.2026
     57 H23         4.5271    0.5918    6.8169 H         1 <0>         0.4201
@<TRIPOS>BOND
     1    1    6 ar
     2    1    2 ar
     3    1   36 1
     4    2    3 ar
     5    2   37 1
     6    3    4 ar
     7    3   38 1
     8    4    5 ar
     9    4    7 1
    10    5    6 ar
    11    5   39 1
    12    6   40 1
    13    7    8 1
    14    7   41 1
    15    7   42 1
    16    8    9 1
    17    8   19 1
    18    8   10 1
    19   10   11 1
    20   10   43 1
    21   10   44 1
    22   11   12 1
    23   11   30 1
    24   12   17 ar
    25   12   13 ar
    26   13   14 ar
    27   13   45 1
    28   14   15 ar
    29   14   46 1
    30   15   16 ar
    31   15   28 1
    32   16   17 ar
    33   16   47 1
    34   17   18 1
    35   18   19 1
    36   18   48 1
    37   18   49 1
    38   19   20 1
    39   20   21 2
    40   20   22 2
    41   20   23 1
    42   23   27 1
    43   23   24 2
    44   24   25 1
    45   24   50 1
    46   25   26 2
    47   25   51 1
    48   26   27 1
    49   26   52 1
    50   28   29 3
    51   30   31 1
    52   30   53 1
    53   30   54 1
    54   31   35 1
    55   31   32 2
    56   32   33 1
    57   32   55 1
    58   33   34 1
    59   33   57 1
    60   34   35 2
    61   34   56 1
@<TRIPOS>MOLECULE
ZINC03925649
   57    61     0     0     0
SMALL
USER_CHARGES

@<TRIPOS>ATOM
      1 C1          5.7027    2.8089   -1.4773 C.ar      1 <0>        -0.1206
      2 C2          6.2056    1.5415   -1.7042 C.ar      1 <0>        -0.1157
      3 C3          5.5333    0.4344   -1.2213 C.ar      1 <0>        -0.1160
      4 C4          4.3583    0.5948   -0.5110 C.ar      1 <0>        -0.0734
      5 C5          3.8559    1.8623   -0.2832 C.ar      1 <0>        -0.1146
      6 C6          4.5275    2.9693   -0.7674 C.ar      1 <0>        -0.1146
      7 C7          3.6248   -0.6121    0.0147 C.3       1 <0>        -0.1482
      8 C8          4.1986   -1.0039    1.3779 C.3       1 <0>         0.1385
      9 H1          4.2046   -0.1287    2.0276 H         1 <0>         0.0923
     10 C9          5.6222   -1.4976    1.1951 C.3       1 <0>         0.1279
     11 N1          6.1954   -1.8618    2.5003 N.pl3     1 <0>        -0.6562
     12 C10         5.9831   -3.1482    2.9753 C.ar      1 <0>         0.2192
     13 C11         7.0401   -4.0463    3.0909 C.ar      1 <0>        -0.1403
     14 C12         6.8054   -5.3357    3.5115 C.ar      1 <0>        -0.0492
     15 C13         5.5058   -5.7487    3.8206 C.ar      1 <0>        -0.0422
     16 C14         4.4466   -4.8387    3.7242 C.ar      1 <0>        -0.0375
     17 C15         4.6952   -3.5492    3.3290 C.ar      1 <0>        -0.1382
     18 C16         3.5901   -2.5097    3.3409 C.3       1 <0>         0.1729
     19 N2          3.3515   -2.0403    1.9757 N.pl3     1 <0>        -0.9779
     20 S1          2.1072   -2.6871    1.0950 S.o2      1 <0>         2.7171
     21 O1          2.5223   -2.6749   -0.2640 O.2       1 <0>        -0.9410
     22 O2          1.7149   -3.8794    1.7611 O.2       1 <0>        -0.9458
     23 C17         0.7484   -1.5720    1.2164 C.2       1 <0>        -0.7683
     24 C18         0.4283   -0.5260    0.4160 C.2       1 <0>        -0.0097
     25 C19        -0.6991    0.2194    0.7057 C.2       1 <0>        -0.1912
     26 C20        -1.4514   -0.1176    1.7817 C.2       1 <0>        -0.1286
     27 S2         -0.5686   -1.5315    2.4212 S.3       1 <0>         0.1671
     28 C21         5.2593   -7.0975    4.2336 C.1       1 <0>         0.2517
     29 N3          5.0637   -8.1675    4.5613 N.1       1 <0>        -0.4128
     30 C22         6.9705   -0.8918    3.2778 C.3       1 <0>         0.2141
     31 C23         6.0466   -0.1246    4.1882 C.2       1 <0>        -0.0457
     32 C24         5.4748    1.0675    3.9322 C.2       1 <0>        -0.0096
     33 N4          4.7267    1.4052    4.9930 N.2       1 <0>        -0.4912
     34 C25         4.8132    0.4678    5.8967 C.2       1 <0>         0.1868
     35 N5          5.6225   -0.5083    5.4318 N.pl3     1 <0>        -0.5622
     36 H2          5.8605   -1.3273    5.8938 H         1 <0>         0.4183
     37 H3          6.2304    3.6741   -1.8507 H         1 <0>         0.1208
     38 H4          7.1236    1.4162   -2.2592 H         1 <0>         0.1225
     39 H5          5.9259   -0.5559   -1.3992 H         1 <0>         0.1246
     40 H6          2.9377    1.9876    0.2714 H         1 <0>         0.1188
     41 H7          4.1347    3.9596   -0.5898 H         1 <0>         0.1213
     42 H8          2.5659   -0.3763    0.1203 H         1 <0>         0.0775
     43 H9          3.7445   -1.4419   -0.6819 H         1 <0>         0.1402
     44 H10         5.6218   -2.3711    0.5431 H         1 <0>         0.0777
     45 H11         6.2237   -0.7093    0.7426 H         1 <0>         0.0967
     46 H12         8.0447   -3.7314    2.8501 H         1 <0>         0.1366
     47 H13         7.6273   -6.0303    3.6026 H         1 <0>         0.1352
     48 H14         3.4397   -5.1502    3.9596 H         1 <0>         0.1407
     49 H15         2.6773   -2.9540    3.7377 H         1 <0>         0.0934
     50 H16         3.8881   -1.6694    3.9680 H         1 <0>         0.0950
     51 H17         1.0452   -0.2784   -0.4352 H         1 <0>         0.1515
     52 H18        -0.9763    1.0581    0.0842 H         1 <0>         0.1469
     53 H19        -2.3531    0.3462    2.1534 H         1 <0>         0.1976
     54 H20         7.7155   -1.4173    3.8753 H         1 <0>         0.0793
     55 H21         7.4704   -0.1996    2.6004 H         1 <0>         0.0995
     56 H22         5.5971    1.6495    3.0307 H         1 <0>         0.1641
     57 H23         4.3166    0.4702    6.8557 H         1 <0>         0.2049
@<TRIPOS>BOND
     1    1    6 ar
     2    1    2 ar
     3    1   37 1
     4    2    3 ar
     5    2   38 1
     6    3    4 ar
     7    3   39 1
     8    4    5 ar
     9    4    7 1
    10    5    6 ar
    11    5   40 1
    12    6   41 1
    13    7    8 1
    14    7   42 1
    15    7   43 1
    16    8    9 1
    17    8   19 1
    18    8   10 1
    19   10   11 1
    20   10   44 1
    21   10   45 1
    22   11   12 1
    23   11   30 1
    24   12   17 ar
    25   12   13 ar
    26   13   14 ar
    27   13   46 1
    28   14   15 ar
    29   14   47 1
    30   15   16 ar
    31   15   28 1
    32   16   17 ar
    33   16   48 1
    34   17   18 1
    35   18   19 1
    36   18   49 1
    37   18   50 1
    38   19   20 1
    39   20   21 2
    40   20   22 2
    41   20   23 1
    42   23   27 1
    43   23   24 2
    44   24   25 1
    45   24   51 1
    46   25   26 2
    47   25   52 1
    48   26   27 1
    49   26   53 1
    50   28   29 3
    51   30   31 1
    52   30   54 1
    53   30   55 1
    54   31   35 1
    55   31   32 2
    56   32   33 1
    57   32   56 1
    58   33   34 2
    59   34   35 1
    60   34   57 1
    61   35   36 1
@<TRIPOS>MOLECULE
ZINC28340894
   68    70     0     0     0
SMALL
USER_CHARGES
methyl (2R)-2-[[4-[[(2R)-2-amino-3-sulfanyl-propyl]amino]-2-(1-naphthyl)benzoyl]amino]-4-methyl-pentanoate
@<TRIPOS>ATOM
      1 C1         10.6715    9.9943   -1.6407 C.3       1 <0>        -0.1416
      2 C2         10.5043    8.6323   -2.3173 C.3       1 <0>        -0.0928
      3 C3         10.8540    8.7539   -3.8018 C.3       1 <0>        -0.1534
      4 C4         11.4368    7.6160   -1.6552 C.3       1 <0>        -0.1223
      5 C5         11.0082    7.4015   -0.2022 C.3       1 <0>         0.1603
      6 H1         10.9430    8.3587    0.3359 H         1 <0>         0.1307
      7 C6         11.9976    6.4959    0.4849 C.2       1 <0>         0.4616
      8 O1         11.6303    5.4442    0.9527 O.2       1 <0>        -0.5071
      9 O2         13.2869    6.8577    0.5772 O.3       1 <0>        -0.3494
     10 C7         14.1834    5.9364    1.2523 C.3       1 <0>         0.0311
     11 N1          9.6792    6.7858   -0.1709 N.am      1 <0>        -0.7291
     12 C8          8.5770    7.5578   -0.2466 C.2       1 <0>         0.5552
     13 O3          8.6857    8.7655   -0.3408 O.2       1 <0>        -0.4954
     14 C9          7.2410    6.9389   -0.2151 C.ar      1 <0>        -0.1635
     15 C10         7.1127    5.5519   -0.1069 C.ar      1 <0>        -0.0355
     16 C11         5.8637    4.9755   -0.0772 C.ar      1 <0>        -0.1979
     17 C12         4.7199    5.7682   -0.1546 C.ar      1 <0>         0.2316
     18 C13         4.8303    7.1477   -0.2681 C.ar      1 <0>        -0.1804
     19 C14         6.0863    7.7433   -0.2935 C.ar      1 <0>         0.0699
     20 C15         6.2103    9.2129   -0.4083 C.ar      1 <0>        -0.0392
     21 C16         5.7520   10.0354    0.6072 C.ar      1 <0>        -0.0961
     22 C17         5.8659   11.4169    0.5066 C.ar      1 <0>        -0.1229
     23 C18         6.4287   11.9998   -0.5887 C.ar      1 <0>        -0.0926
     24 C19         6.9067   11.2032   -1.6433 C.ar      1 <0>        -0.0517
     25 C20         6.8041    9.7935   -1.5551 C.ar      1 <0>         0.0158
     26 C21         7.2767    9.0004   -2.6103 C.ar      1 <0>        -0.1009
     27 C22         7.8366    9.5933   -3.7015 C.ar      1 <0>        -0.1054
     28 C23         7.9432   10.9797   -3.7878 C.ar      1 <0>        -0.1185
     29 C24         7.4908   11.7806   -2.7843 C.ar      1 <0>        -0.1000
     30 N2          3.4624    5.1743   -0.1236 N.pl3     1 <0>        -0.7683
     31 C25         3.3423    3.7187   -0.0099 C.3       1 <0>         0.1077
     32 C26         1.8630    3.3284    0.0021 C.3       1 <0>         0.0658
     33 H2          1.3587    3.7533    0.8825 H         1 <0>         0.1584
     34 C27         1.7378    1.8035   -0.0048 C.3       1 <0>        -0.1085
     35 S1         -0.0162    1.3408    0.0094 S.3       1 <0>        -0.1492
     36 N3          1.2014    3.8795   -1.1881 N.4       1 <0>        -0.6877
     37 H3         10.4201    9.9068   -0.5734 H         1 <0>         0.0686
     38 H4         10.0010   10.7249   -2.1167 H         1 <0>         0.0549
     39 H5         11.7137   10.3303   -1.7456 H         1 <0>         0.0398
     40 H6          9.4621    8.2963   -2.2125 H         1 <0>         0.0888
     41 H7         10.7338    7.7746   -4.2882 H         1 <0>         0.0472
     42 H8         11.8962    9.0899   -3.9067 H         1 <0>         0.0528
     43 H9         10.1835    9.4845   -4.2778 H         1 <0>         0.0610
     44 H10        11.3829    6.6609   -2.1982 H         1 <0>         0.0686
     45 H11        12.4693    7.9946   -1.6808 H         1 <0>         0.0860
     46 H12        15.2015    6.3528    1.2571 H         1 <0>         0.1092
     47 H13        14.1842    4.9719    0.7235 H         1 <0>         0.0669
     48 H14        13.8436    5.7866    2.2877 H         1 <0>         0.0667
     49 H15         9.5809    5.6935   -0.0856 H         1 <0>         0.4239
     50 H16         7.9947    4.9316   -0.0469 H         1 <0>         0.1312
     51 H17         5.7690    3.9029    0.0069 H         1 <0>         0.1264
     52 H18         3.9414    7.7577   -0.3326 H         1 <0>         0.1321
     53 H19         5.3017    9.5989    1.4864 H         1 <0>         0.1176
     54 H20         5.5024   12.0392    1.3110 H         1 <0>         0.1223
     55 H21         6.5071   13.0754   -0.6468 H         1 <0>         0.1246
     56 H22         7.2008    7.9244   -2.5565 H         1 <0>         0.1116
     57 H23         8.2036    8.9798   -4.5110 H         1 <0>         0.1172
     58 H24         8.3915   11.4255   -4.6633 H         1 <0>         0.1196
     59 H25         7.5798   12.8539   -2.8645 H         1 <0>         0.1242
     60 H26         2.5581    5.7977   -0.1845 H         1 <0>         0.4126
     61 H27         3.8404    3.2417   -0.8668 H         1 <0>         0.0917
     62 H28         3.8176    3.3834    0.9237 H         1 <0>         0.1076
     63 H29         2.2161    1.4004   -0.9097 H         1 <0>         0.1139
     64 H30         2.2331    1.3909    0.8865 H         1 <0>         0.1333
     65 H31        -0.3051    0.2794    0.0065 H         1 <0>         0.0236
     66 H32         0.1378    3.5988   -1.1794 H         1 <0>         0.4666
     67 H33         1.6796    3.4765   -2.0930 H         1 <0>         0.4571
     68 H34         1.2914    4.9758   -1.1830 H         1 <0>         0.4534
@<TRIPOS>BOND
     1    1    2 1
     2    1   37 1
     3    1   38 1
     4    1   39 1
     5    2    3 1
     6    2    4 1
     7    2   40 1
     8    3   41 1
     9    3   42 1
    10    3   43 1
    11    4    5 1
    12    4   44 1
    13    4   45 1
    14    5    6 1
    15    5    7 1
    16    5   11 1
    17    7    8 2
    18    7    9 1
    19    9   10 1
    20   10   46 1
    21   10   47 1
    22   10   48 1
    23   11   12 am
    24   11   49 1
    25   12   13 2
    26   12   14 1
    27   14   19 ar
    28   14   15 ar
    29   15   16 ar
    30   15   50 1
    31   16   17 ar
    32   16   51 1
    33   17   18 ar
    34   17   30 1
    35   18   19 ar
    36   18   52 1
    37   19   20 1
    38   20   25 ar
    39   20   21 ar
    40   21   22 ar
    41   21   53 1
    42   22   23 ar
    43   22   54 1
    44   23   24 ar
    45   23   55 1
    46   24   29 ar
    47   24   25 ar
    48   25   26 ar
    49   26   27 ar
    50   26   56 1
    51   27   28 ar
    52   27   57 1
    53   28   29 ar
    54   28   58 1
    55   29   59 1
    56   30   31 1
    57   30   60 1
    58   31   32 1
    59   31   61 1
    60   31   62 1
    61   32   33 1
    62   32   34 1
    63   32   36 1
    64   34   35 1
    65   34   63 1
    66   34   64 1
    67   35   65 1
    68   36   66 1
    69   36   67 1
    70   36   68 1
@<TRIPOS>MOLECULE
ZINC28340900
   68    70     0     0     0
SMALL
USER_CHARGES
methyl (2R)-2-[[4-[[(2S)-2-amino-3-sulfanyl-propyl]amino]-2-(1-naphthyl)benzoyl]amino]-4-methyl-pentanoate
@<TRIPOS>ATOM
      1 C1          4.8663    1.6445    3.9871 C.3       1 <0>        -0.1558
      2 C2          5.6525    0.3568    4.2415 C.3       1 <0>        -0.0905
      3 C3          6.9849    0.6968    4.9122 C.3       1 <0>        -0.1513
      4 C4          4.8415   -0.5636    5.1558 C.3       1 <0>        -0.1197
      5 C5          3.5659   -1.0039    4.4347 C.3       1 <0>         0.1624
      6 H1          3.0002   -0.1352    4.0668 H         1 <0>         0.1320
      7 C6          2.7088   -1.8094    5.3768 C.2       1 <0>         0.4478
      8 O1          2.4228   -2.9517    5.1063 O.2       1 <0>        -0.4993
      9 O2          2.2630   -1.2577    6.5164 O.3       1 <0>        -0.3564
     10 C7          1.4425   -2.0922    7.3759 C.3       1 <0>         0.0323
     11 N1          3.9197   -1.8246    3.2738 N.am      1 <0>        -0.7201
     12 C8          3.0756   -1.9102    2.2267 C.2       1 <0>         0.5608
     13 O3          2.0201   -1.3062    2.2455 O.2       1 <0>        -0.5058
     14 C9          3.4312   -2.7352    1.0597 C.ar      1 <0>        -0.1607
     15 C10         4.6431   -3.4300    1.0348 C.ar      1 <0>        -0.0349
     16 C11         4.9737   -4.2003   -0.0563 C.ar      1 <0>        -0.1976
     17 C12         4.1052   -4.2930   -1.1424 C.ar      1 <0>         0.2312
     18 C13         2.8947   -3.6126   -1.1312 C.ar      1 <0>        -0.1794
     19 C14         2.5507   -2.8270   -0.0370 C.ar      1 <0>         0.0690
     20 C15         1.2647   -2.0961   -0.0213 C.ar      1 <0>        -0.0379
     21 C16         0.0658   -2.7893   -0.0135 C.ar      1 <0>        -0.0974
     22 C17        -1.1462   -2.1094    0.0022 C.ar      1 <0>        -0.1228
     23 C18        -1.1905   -0.7477    0.0099 C.ar      1 <0>        -0.0932
     24 C19         0.0021   -0.0041    0.0020 C.ar      1 <0>        -0.0532
     25 C20         1.2463   -0.6804   -0.0135 C.ar      1 <0>         0.0106
     26 C21         2.4350    0.0630   -0.0205 C.ar      1 <0>        -0.1003
     27 C22         2.3796    1.4240   -0.0122 C.ar      1 <0>        -0.1123
     28 C23         1.1566    2.0911    0.0022 C.ar      1 <0>        -0.1190
     29 C24        -0.0170    1.4016    0.0097 C.ar      1 <0>        -0.1020
     30 N2          4.4498   -5.0752   -2.2399 N.pl3     1 <0>        -0.7685
     31 C25         5.7233   -5.7992   -2.2524 C.3       1 <0>         0.1083
     32 C26         5.8554   -6.5762   -3.5638 C.3       1 <0>         0.0651
     33 H2          5.8797   -5.8867   -4.4205 H         1 <0>         0.1590
     34 C27         7.1246   -7.4297   -3.5253 C.3       1 <0>        -0.1086
     35 S1          7.3601   -8.2360   -5.1331 S.3       1 <0>        -0.1460
     36 N3          4.6849   -7.4468   -3.7370 N.4       1 <0>        -0.6882
     37 H3          3.9083    1.4000    3.5049 H         1 <0>         0.0569
     38 H4          5.4494    2.3063    3.3297 H         1 <0>         0.0583
     39 H5          4.6760    2.1530    4.9438 H         1 <0>         0.0604
     40 H6          5.8429   -0.1517    3.2849 H         1 <0>         0.0725
     41 H7          7.5501   -0.2290    5.0951 H         1 <0>         0.0551
     42 H8          6.7946    1.2053    5.8689 H         1 <0>         0.0594
     43 H9          7.5679    1.3586    4.2548 H         1 <0>         0.0589
     44 H10         5.4424   -1.4488    5.4112 H         1 <0>         0.0765
     45 H11         4.5746   -0.0236    6.0762 H         1 <0>         0.0970
     46 H12         1.1474   -1.5208    8.2683 H         1 <0>         0.1066
     47 H13         2.0164   -2.9794    7.6818 H         1 <0>         0.0639
     48 H14         0.5422   -2.4085    6.8287 H         1 <0>         0.0639
     49 H15         4.8743   -2.3709    3.2568 H         1 <0>         0.4193
     50 H16         5.3209   -3.3626    1.8729 H         1 <0>         0.1303
     51 H17         5.9116   -4.7356   -0.0714 H         1 <0>         0.1269
     52 H18         2.2228   -3.6910   -1.9731 H         1 <0>         0.1324
     53 H19         0.0728   -3.8692   -0.0193 H         1 <0>         0.1177
     54 H20        -2.0692   -2.6703    0.0088 H         1 <0>         0.1232
     55 H21        -2.1431   -0.2391    0.0217 H         1 <0>         0.1260
     56 H22         3.3901   -0.4411   -0.0319 H         1 <0>         0.1135
     57 H23         3.2969    1.9941   -0.0179 H         1 <0>         0.1185
     58 H24         1.1395    3.1710    0.0079 H         1 <0>         0.1220
     59 H25        -0.9579    1.9316    0.0171 H         1 <0>         0.1261
     60 H26         3.7661   -5.1501   -3.0983 H         1 <0>         0.4127
     61 H27         6.5533   -5.0826   -2.1656 H         1 <0>         0.1076
     62 H28         5.7546   -6.5008   -1.4058 H         1 <0>         0.0916
     63 H29         7.9911   -6.7885   -3.3062 H         1 <0>         0.1330
     64 H30         7.0278   -8.1956   -2.7417 H         1 <0>         0.1131
     65 H31         8.2260   -8.8944   -5.2966 H         1 <0>         0.0212
     66 H32         4.7798   -8.0055   -4.6798 H         1 <0>         0.4669
     67 H33         3.7724   -6.8331   -3.7646 H         1 <0>         0.4540
     68 H34         4.6261   -8.1537   -2.8962 H         1 <0>         0.4569
@<TRIPOS>BOND
     1    1    2 1
     2    1   37 1
     3    1   38 1
     4    1   39 1
     5    2    3 1
     6    2    4 1
     7    2   40 1
     8    3   41 1
     9    3   42 1
    10    3   43 1
    11    4    5 1
    12    4   44 1
    13    4   45 1
    14    5    6 1
    15    5    7 1
    16    5   11 1
    17    7    8 2
    18    7    9 1
    19    9   10 1
    20   10   46 1
    21   10   47 1
    22   10   48 1
    23   11   12 am
    24   11   49 1
    25   12   13 2
    26   12   14 1
    27   14   19 ar
    28   14   15 ar
    29   15   16 ar
    30   15   50 1
    31   16   17 ar
    32   16   51 1
    33   17   18 ar
    34   17   30 1
    35   18   19 ar
    36   18   52 1
    37   19   20 1
    38   20   25 ar
    39   20   21 ar
    40   21   22 ar
    41   21   53 1
    42   22   23 ar
    43   22   54 1
    44   23   24 ar
    45   23   55 1
    46   24   29 ar
    47   24   25 ar
    48   25   26 ar
    49   26   27 ar
    50   26   56 1
    51   27   28 ar
    52   27   57 1
    53   28   29 ar
    54   28   58 1
    55   29   59 1
    56   30   31 1
    57   30   60 1
    58   31   32 1
    59   31   61 1
    60   31   62 1
    61   32   33 1
    62   32   34 1
    63   32   36 1
    64   34   35 1
    65   34   63 1
    66   34   64 1
    67   35   65 1
    68   36   66 1
    69   36   67 1
    70   36   68 1
@<TRIPOS>MOLECULE
ZINC28340908
   68    70     0     0     0
SMALL
USER_CHARGES
methyl (2S)-2-[[4-[[(2S)-2-amino-3-sulfanyl-propyl]amino]-2-(1-naphthyl)benzoyl]amino]-4-methyl-pentanoate
@<TRIPOS>ATOM
      1 C1         -1.7935   -5.4724   -2.7315 C.3       1 <0>        -0.1513
      2 C2         -2.0221   -4.0921   -2.1124 C.3       1 <0>        -0.0907
      3 C3         -3.1139   -3.3575   -2.8930 C.3       1 <0>        -0.1557
      4 C4         -2.4579   -4.2529   -0.6546 C.3       1 <0>        -0.1198
      5 C5         -2.5457   -2.8759    0.0064 C.3       1 <0>         0.1626
      6 H1         -3.2114   -2.2077   -0.5597 H         1 <0>         0.1306
      7 C6         -3.0538   -3.0272    1.4170 C.2       1 <0>         0.4474
      8 O1         -2.3755   -2.6582    2.3463 O.2       1 <0>        -0.4957
      9 O2         -4.2600   -3.5719    1.6411 O.3       1 <0>        -0.3569
     10 C7         -4.6849   -3.6863    3.0248 C.3       1 <0>         0.0330
     11 N1         -1.2167   -2.2597    0.0295 N.am      1 <0>        -0.7200
     12 C8         -1.0967   -0.9182    0.0791 C.2       1 <0>         0.5606
     13 O3         -2.0916   -0.2192    0.1047 O.2       1 <0>        -0.5057
     14 C9          0.2393   -0.2988    0.1024 C.ar      1 <0>        -0.1612
     15 C10         1.3842   -1.0990    0.0726 C.ar      1 <0>        -0.0349
     16 C11         2.6315   -0.5186    0.0935 C.ar      1 <0>        -0.1978
     17 C12         2.7625    0.8681    0.1453 C.ar      1 <0>         0.2311
     18 C13         1.6346    1.6774    0.1754 C.ar      1 <0>        -0.1794
     19 C14         0.3683    1.1037    0.1543 C.ar      1 <0>         0.0693
     20 C15        -0.8369    1.9609    0.1800 C.ar      1 <0>        -0.0388
     21 C16        -1.1094    2.8172   -0.8737 C.ar      1 <0>        -0.0983
     22 C17        -2.2404    3.6248   -0.8568 C.ar      1 <0>        -0.1246
     23 C18        -3.1100    3.5980    0.1917 C.ar      1 <0>        -0.0918
     24 C19        -2.8721    2.7446    1.2827 C.ar      1 <0>        -0.0543
     25 C20        -1.7276    1.9104    1.2795 C.ar      1 <0>         0.0113
     26 C21        -1.4883    1.0641    2.3715 C.ar      1 <0>        -0.0950
     27 C22        -2.3640    1.0451    3.4148 C.ar      1 <0>        -0.1082
     28 C23        -3.4934    1.8608    3.4171 C.ar      1 <0>        -0.1185
     29 C24        -3.7538    2.6990    2.3766 C.ar      1 <0>        -0.1046
     30 N2          4.0287    1.4437    0.1660 N.pl3     1 <0>        -0.7685
     31 C25         5.2208    0.5929    0.1334 C.3       1 <0>         0.1083
     32 C26         6.4742    1.4697    0.1653 C.3       1 <0>         0.0650
     33 H2          6.5228    2.0397    1.1048 H         1 <0>         0.1589
     34 C27         7.7160    0.5903    0.0058 C.3       1 <0>        -0.1085
     35 S1          9.2059    1.6084    0.1913 S.3       1 <0>        -0.1460
     36 N3          6.4190    2.4431   -0.9336 N.4       1 <0>        -0.6879
     37 H3         -1.0086   -6.0005   -2.1703 H         1 <0>         0.0553
     38 H4         -1.4802   -5.3568   -3.7796 H         1 <0>         0.0586
     39 H5         -2.7274   -6.0522   -2.6897 H         1 <0>         0.0595
     40 H6         -1.0882   -3.5123   -2.1542 H         1 <0>         0.0723
     41 H7         -3.2782   -2.3651   -2.4479 H         1 <0>         0.0563
     42 H8         -4.0477   -3.9373   -2.8512 H         1 <0>         0.0607
     43 H9         -2.8006   -3.2420   -3.9411 H         1 <0>         0.0580
     44 H10        -3.4432   -4.7406   -0.6181 H         1 <0>         0.0970
     45 H11        -1.7228   -4.8709   -0.1182 H         1 <0>         0.0766
     46 H12        -5.6835   -4.1459    3.0649 H         1 <0>         0.1057
     47 H13        -4.7231   -2.6859    3.4805 H         1 <0>         0.0639
     48 H14        -3.9700   -4.3138    3.5772 H         1 <0>         0.0637
     49 H15        -0.3168   -2.8919    0.0064 H         1 <0>         0.4192
     50 H16         1.2901   -2.1741    0.0328 H         1 <0>         0.1302
     51 H17         3.5139   -1.1408    0.0700 H         1 <0>         0.1268
     52 H18         1.7408    2.7515    0.2148 H         1 <0>         0.1325
     53 H19        -0.4364    2.8577   -1.7173 H         1 <0>         0.1178
     54 H20        -2.4335    4.2849   -1.6895 H         1 <0>         0.1231
     55 H21        -3.9832    4.2336    0.1845 H         1 <0>         0.1256
     56 H22        -0.6166    0.4266    2.3831 H         1 <0>         0.1130
     57 H23        -2.1799    0.3885    4.2523 H         1 <0>         0.1171
     58 H24        -4.1722    1.8275    4.2564 H         1 <0>         0.1207
     59 H25        -4.6331    3.3258    2.3916 H         1 <0>         0.1259
     60 H26         4.1348    2.5378    0.2069 H         1 <0>         0.4127
     61 H27         5.2184   -0.0753    1.0072 H         1 <0>         0.1074
     62 H28         5.2172   -0.0082   -0.7878 H         1 <0>         0.0917
     63 H29         7.7104   -0.1951    0.7759 H         1 <0>         0.1330
     64 H30         7.7110    0.1261   -0.9914 H         1 <0>         0.1131
     65 H31        10.2011    1.1473    0.1078 H         1 <0>         0.0213
     66 H32         7.3202    3.0735   -0.9106 H         1 <0>         0.4670
     67 H33         5.5262    3.0754   -0.8188 H         1 <0>         0.4540
     68 H34         6.3693    1.9093   -1.8941 H         1 <0>         0.4567
@<TRIPOS>BOND
     1    1    2 1
     2    1   37 1
     3    1   38 1
     4    1   39 1
     5    2    3 1
     6    2    4 1
     7    2   40 1
     8    3   41 1
     9    3   42 1
    10    3   43 1
    11    4    5 1
    12    4   44 1
    13    4   45 1
    14    5    6 1
    15    5    7 1
    16    5   11 1
    17    7    8 2
    18    7    9 1
    19    9   10 1
    20   10   46 1
    21   10   47 1
    22   10   48 1
    23   11   12 am
    24   11   49 1
    25   12   13 2
    26   12   14 1
    27   14   19 ar
    28   14   15 ar
    29   15   16 ar
    30   15   50 1
    31   16   17 ar
    32   16   51 1
    33   17   18 ar
    34   17   30 1
    35   18   19 ar
    36   18   52 1
    37   19   20 1
    38   20   25 ar
    39   20   21 ar
    40   21   22 ar
    41   21   53 1
    42   22   23 ar
    43   22   54 1
    44   23   24 ar
    45   23   55 1
    46   24   29 ar
    47   24   25 ar
    48   25   26 ar
    49   26   27 ar
    50   26   56 1
    51   27   28 ar
    52   27   57 1
    53   28   29 ar
    54   28   58 1
    55   29   59 1
    56   30   31 1
    57   30   60 1
    58   31   32 1
    59   31   61 1
    60   31   62 1
    61   32   33 1
    62   32   34 1
    63   32   36 1
    64   34   35 1
    65   34   63 1
    66   34   64 1
    67   35   65 1
    68   36   66 1
    69   36   67 1
    70   36   68 1
