@<TRIPOS>MOLECULE
ZINC02391782
   43    45     0     0     0
SMALL
USER_CHARGES
2-[6-(3-chlorophenyl)amino-9-isopropyl-purin-2-yl]aminoethanol
@<TRIPOS>ATOM
      1 C1          6.0794    9.5986    0.6535 C.3       1 <0>        -0.1636
      2 C2          5.1765    9.2379   -0.5278 C.3       1 <0>         0.1335
      3 C3          5.9494    9.4219   -1.8353 C.3       1 <0>        -0.1633
      4 N1          4.7475    7.8424   -0.4063 N.pl3     1 <0>        -0.4714
      5 C4          5.5612    6.7477   -0.3716 C.2       1 <0>         0.2483
      6 N2          4.8466    5.6666   -0.2573 N.2       1 <0>        -0.4500
      7 C5          3.5326    5.9969   -0.2115 C.ar      1 <0>        -0.1178
      8 C6          3.4539    7.3964   -0.3066 C.ar      1 <0>         0.3430
      9 N3          2.2605    7.9810   -0.2848 N.ar      1 <0>        -0.5938
     10 C7          1.1582    7.2572   -0.1751 C.ar      1 <0>         0.6133
     11 N4          1.1858    5.9335   -0.0891 N.ar      1 <0>        -0.5976
     12 C8          2.3360    5.2687   -0.0969 C.ar      1 <0>         0.4780
     13 N5          2.3553    3.8876   -0.0000 N.pl3     1 <0>        -0.5482
     14 C9          1.1558    3.1700   -0.0038 C.ar      1 <0>         0.0927
     15 C10         0.0722    3.6292   -0.7423 C.ar      1 <0>        -0.1079
     16 C11        -1.1118    2.9186   -0.7439 C.ar      1 <0>        -0.1016
     17 C12        -1.2222    1.7536   -0.0070 C.ar      1 <0>        -0.1087
     18 C13        -0.1433    1.2899    0.7253 C.ar      1 <0>        -0.0308
     19 C14         1.0446    1.9969    0.7310 C.ar      1 <0>        -0.0895
     20 Cl1        -0.2842   -0.1768    1.6432 Cl        1 <0>        -0.0645
     21 N6         -0.0670    7.9032   -0.1560 N.pl3     1 <0>        -0.6886
     22 C15        -1.3031    7.1261   -0.0354 C.3       1 <0>         0.1405
     23 C16        -2.5039    8.0741   -0.0390 C.3       1 <0>         0.0612
     24 O1         -2.5907    8.7281   -1.3066 O.3       1 <0>        -0.5710
     25 H1          5.5288    9.4675    1.5850 H         1 <0>         0.0635
     26 H2          6.9542    8.9484    0.6540 H         1 <0>         0.0668
     27 H3          6.3986   10.6369    0.5631 H         1 <0>         0.0808
     28 H4          4.3017    9.8882   -0.5283 H         1 <0>         0.1068
     29 H5          5.3062    9.1650   -2.6769 H         1 <0>         0.0635
     30 H6          6.2686   10.4602   -1.9257 H         1 <0>         0.0808
     31 H7          6.8242    8.7717   -1.8348 H         1 <0>         0.0667
     32 H8          6.6393    6.7748   -0.4299 H         1 <0>         0.2189
     33 H9          2.8673    3.5066   -0.7699 H         1 <0>         0.3819
     34 H10         0.1560    4.5410   -1.3149 H         1 <0>         0.1402
     35 H11        -1.9541    3.2754   -1.3179 H         1 <0>         0.1336
     36 H12        -2.1509    1.2024   -0.0062 H         1 <0>         0.1345
     37 H13         1.8850    1.6375    1.3063 H         1 <0>         0.1413
     38 H14        -0.1066    8.8701   -0.2224 H         1 <0>         0.4173
     39 H15        -1.3821    6.4364   -0.8758 H         1 <0>         0.0743
     40 H16        -1.2882    6.5621    0.8972 H         1 <0>         0.0820
     41 H17        -3.4164    7.5053    0.1396 H         1 <0>         0.0671
     42 H18        -2.3808    8.8195    0.7467 H         1 <0>         0.0543
     43 H19        -3.3310    9.3458   -1.3806 H         1 <0>         0.3838
@<TRIPOS>BOND
     1    1    2 1
     2    1   25 1
     3    1   26 1
     4    1   27 1
     5    2    3 1
     6    2    4 1
     7    2   28 1
     8    3   29 1
     9    3   30 1
    10    3   31 1
    11    4    8 1
    12    4    5 1
    13    5    6 2
    14    5   32 1
    15    6    7 1
    16    7   12 ar
    17    7    8 ar
    18    8    9 ar
    19    9   10 ar
    20   10   11 ar
    21   10   21 1
    22   11   12 ar
    23   12   13 1
    24   13   14 1
    25   13   33 1
    26   14   19 ar
    27   14   15 ar
    28   15   16 ar
    29   15   34 1
    30   16   17 ar
    31   16   35 1
    32   17   18 ar
    33   17   36 1
    34   18   19 ar
    35   18   20 1
    36   19   37 1
    37   21   22 1
    38   21   38 1
    39   22   23 1
    40   22   39 1
    41   22   40 1
    42   23   24 1
    43   23   41 1
    44   23   42 1
    45   24   43 1
