@<TRIPOS>MOLECULE
ZINC01914951
   65    68     0     0     0
SMALL
USER_CHARGES
9-(3,4,5-triphenylpyrazol-1-yl)nonanoic acid
@<TRIPOS>ATOM
      1 C1          1.0923    2.0857   -0.0261 C.ar      1 <0>        -0.1222
      2 C2         -0.0845    1.3585   -0.0315 C.ar      1 <0>        -0.1170
      3 C3         -0.0465   -0.0208   -0.0322 C.ar      1 <0>        -0.1009
      4 C4          1.1815   -0.6817   -0.0276 C.ar      1 <0>         0.0069
      5 C5          2.3644    0.0569   -0.0223 C.ar      1 <0>        -0.1117
      6 C6          2.3135    1.4358   -0.0215 C.ar      1 <0>        -0.1178
      7 C7          1.2293   -2.1623   -0.0279 C.2       1 <0>        -0.1795
      8 C8          0.8746   -3.0141    1.0455 C.2       1 <0>         0.1257
      9 N1          1.0489   -4.2585    0.6588 N.2       1 <0>        -0.2724
     10 N2          1.5252   -4.2639   -0.6571 N.pl3     1 <0>        -0.3502
     11 C9          1.6354   -2.9721   -1.0777 C.2       1 <0>         0.1394
     12 C10         2.1013   -2.5190   -2.4048 C.ar      1 <0>        -0.0342
     13 C11         1.4749   -2.9818   -3.5634 C.ar      1 <0>        -0.1023
     14 C12         1.9115   -2.5507   -4.7990 C.ar      1 <0>        -0.1164
     15 C13         2.9748   -1.6703   -4.8920 C.ar      1 <0>        -0.1070
     16 C14         3.6037   -1.2121   -3.7479 C.ar      1 <0>        -0.1161
     17 C15         3.1735   -1.6307   -2.5058 C.ar      1 <0>        -0.0866
     18 C16         1.8490   -5.4542   -1.4474 C.3       1 <0>         0.1279
     19 C17         3.2802   -5.8980   -1.1379 C.3       1 <0>        -0.1334
     20 C18         3.5763   -7.2099   -1.8674 C.3       1 <0>        -0.1157
     21 C19         5.0074   -7.6537   -1.5579 C.3       1 <0>        -0.1173
     22 C20         5.3035   -8.9657   -2.2873 C.3       1 <0>        -0.1186
     23 C21         6.7347   -9.4095   -1.9778 C.3       1 <0>        -0.1200
     24 C22         7.0308  -10.7214   -2.7072 C.3       1 <0>        -0.0986
     25 C23         8.4619  -11.1653   -2.3978 C.3       1 <0>        -0.1583
     26 C24         8.7536  -12.4575   -3.1162 C.2       1 <0>         0.4569
     27 O1          7.9039  -12.9708   -3.8051 O.co2     1 <0>        -0.6427
     28 C25         0.3871   -2.5779    2.3766 C.ar      1 <0>        -0.0121
     29 C26         0.8832   -1.4111    2.9552 C.ar      1 <0>        -0.0890
     30 C27         0.4221   -1.0072    4.1917 C.ar      1 <0>        -0.1208
     31 C28        -0.5222   -1.7641    4.8617 C.ar      1 <0>        -0.1129
     32 C29        -1.0142   -2.9258    4.2945 C.ar      1 <0>        -0.1227
     33 C30        -0.5645   -3.3363    3.0559 C.ar      1 <0>        -0.0917
     34 H1          1.0575    3.1652   -0.0258 H         1 <0>         0.1193
     35 H2         -1.0349    1.8714   -0.0396 H         1 <0>         0.1203
     36 H3         -0.9659   -0.5875   -0.0361 H         1 <0>         0.1179
     37 H4          3.3184   -0.4494   -0.0183 H         1 <0>         0.1194
     38 H5          3.2290    2.0089   -0.0174 H         1 <0>         0.1214
     39 H6          0.6478   -3.6726   -3.4924 H         1 <0>         0.1217
     40 H7          1.4250   -2.9046   -5.6959 H         1 <0>         0.1274
     41 H8          3.3151   -1.3389   -5.8619 H         1 <0>         0.1257
     42 H9          4.4331   -0.5249   -3.8274 H         1 <0>         0.1277
     43 H10         3.6648   -1.2718   -1.6135 H         1 <0>         0.1277
     44 H11         1.1569   -6.2574   -1.1948 H         1 <0>         0.0978
     45 H12         1.7626   -5.2203   -2.5085 H         1 <0>         0.0964
     46 H13         3.9787   -5.1308   -1.4720 H         1 <0>         0.0677
     47 H14         3.3902   -6.0466   -0.0638 H         1 <0>         0.0737
     48 H15         2.8777   -7.9771   -1.5333 H         1 <0>         0.0665
     49 H16         3.4662   -7.0613   -2.9415 H         1 <0>         0.0651
     50 H17         5.7060   -6.8866   -1.8920 H         1 <0>         0.0602
     51 H18         5.1175   -7.8024   -0.4837 H         1 <0>         0.0609
     52 H19         4.6049   -9.7328   -1.9532 H         1 <0>         0.0608
     53 H20         5.1935   -8.8170   -3.3615 H         1 <0>         0.0605
     54 H21         7.4332   -8.6424   -2.3119 H         1 <0>         0.0556
     55 H22         6.8447   -9.5582   -0.9036 H         1 <0>         0.0558
     56 H23         6.3322  -11.4886   -2.3732 H         1 <0>         0.0586
     57 H24         6.9207  -10.5728   -3.7814 H         1 <0>         0.0584
     58 H25         9.1605  -10.3981   -2.7319 H         1 <0>         0.0611
     59 H26         8.5720  -11.3139   -1.3236 H         1 <0>         0.0612
     60 H27         1.6240   -0.8219    2.4351 H         1 <0>         0.1256
     61 H28         0.8025   -0.1008    4.6391 H         1 <0>         0.1242
     62 H29        -0.8769   -1.4466    5.8311 H         1 <0>         0.1223
     63 H30        -1.7514   -3.5129    4.8220 H         1 <0>         0.1244
     64 H31        -0.9496   -4.2433    2.6139 H         1 <0>         0.1252
     65 O2          9.9572  -13.0382   -2.9909 O.co2     1 <0>        -0.7796
@<TRIPOS>BOND
     1    1    6 ar
     2    1    2 ar
     3    1   34 1
     4    2    3 ar
     5    2   35 1
     6    3    4 ar
     7    3   36 1
     8    4    5 ar
     9    4    7 1
    10    5    6 ar
    11    5   37 1
    12    6   38 1
    13    7   11 2
    14    7    8 1
    15    8    9 2
    16    8   28 1
    17    9   10 1
    18   10   11 1
    19   10   18 1
    20   11   12 1
    21   12   17 ar
    22   12   13 ar
    23   13   14 ar
    24   13   39 1
    25   14   15 ar
    26   14   40 1
    27   15   16 ar
    28   15   41 1
    29   16   17 ar
    30   16   42 1
    31   17   43 1
    32   18   19 1
    33   18   44 1
    34   18   45 1
    35   19   20 1
    36   19   46 1
    37   19   47 1
    38   20   21 1
    39   20   48 1
    40   20   49 1
    41   21   22 1
    42   21   50 1
    43   21   51 1
    44   22   23 1
    45   22   52 1
    46   22   53 1
    47   23   24 1
    48   23   54 1
    49   23   55 1
    50   24   25 1
    51   24   56 1
    52   24   57 1
    53   25   26 1
    54   25   58 1
    55   25   59 1
    56   26   27 2
    57   26   65 1
    58   28   33 ar
    59   28   29 ar
    60   29   30 ar
    61   29   60 1
    62   30   31 ar
    63   30   61 1
    64   31   32 ar
    65   31   62 1
    66   32   33 ar
    67   32   63 1
    68   33   64 1
@<TRIPOS>MOLECULE
ZINC03961849
   47    50     0     0     0
SMALL
USER_CHARGES
2-[(4-chlorophenyl)methyl-fluoro-methylsulfonyl-BLAHyl]acetic acid
@<TRIPOS>ATOM
      1 C1         -6.4410    3.4422   -0.0771 C.3       1 <0>        -0.6680
      2 S1         -6.2263    5.1766    0.4093 S.o2      1 <0>         2.4753
      3 O1         -6.2757    5.2978    1.8243 O.2       1 <0>        -0.9191
      4 O2         -7.0177    6.0184   -0.4179 O.2       1 <0>        -0.9355
      5 C2         -4.5612    5.5638   -0.0173 C.ar      1 <0>        -0.6388
      6 C3         -4.2992    6.5062   -0.9872 C.ar      1 <0>        -0.0283
      7 C4         -2.9909    6.8221   -1.3340 C.ar      1 <0>         0.0424
      8 C5         -1.9346    6.1941   -0.7095 C.ar      1 <0>        -0.0445
      9 C6         -2.1863    5.2365    0.2749 C.ar      1 <0>        -0.0680
     10 C7         -3.5098    4.9174    0.6244 C.ar      1 <0>         0.1754
     11 N1         -3.4482    3.9554    1.6069 N.pl3     1 <0>        -0.4588
     12 C8         -2.1367    3.6549    1.8906 C.2       1 <0>         0.0813
     13 C9         -1.3294    4.3965    1.1188 C.2       1 <0>        -0.1840
     14 C10         0.1222    4.0855    1.4114 C.3       1 <0>        -0.0512
     15 C11         0.0955    2.7384    2.1661 C.3       1 <0>        -0.0908
     16 C12        -1.3147    2.7562    2.7946 C.3       1 <0>        -0.0057
     17 H1         -1.2744    3.1663    3.8037 H         1 <0>         0.0987
     18 C13        -1.9038    1.3444    2.8187 C.3       1 <0>        -0.1654
     19 C14        -1.0210    0.4458    3.6458 C.2       1 <0>         0.4635
     20 O3         -0.0204    0.8879    4.1589 O.co2     1 <0>        -0.6318
     21 C15        -4.6097    3.3411    2.2547 C.3       1 <0>         0.1233
     22 C16        -4.6851    3.7981    3.6888 C.ar      1 <0>        -0.1087
     23 C17        -3.6604    3.4941    4.5656 C.ar      1 <0>        -0.1050
     24 C18        -3.7264    3.9178    5.8795 C.ar      1 <0>        -0.1157
     25 C19        -4.8234    4.6366    6.3201 C.ar      1 <0>        -0.0240
     26 C20        -5.8512    4.9356    5.4435 C.ar      1 <0>        -0.1266
     27 C21        -5.7815    4.5162    4.1284 C.ar      1 <0>        -0.0643
     28 Cl1        -4.9105    5.1625    7.9722 Cl        1 <0>        -0.0786
     29 F1         -2.7532    7.7493   -2.2873 F         1 <0>        -0.1388
     30 H2         -5.6239    2.8468    0.3303 H         1 <0>         0.1359
     31 H3         -7.3896    3.0709    0.3107 H         1 <0>         0.1413
     32 H4         -6.4384    3.3669   -1.1645 H         1 <0>         0.1398
     33 H5         -5.1189    7.0050   -1.4830 H         1 <0>         0.1576
     34 H6         -0.9186    6.4415   -0.9797 H         1 <0>         0.1436
     35 H7          0.5575    4.8631    2.0390 H         1 <0>         0.0746
     36 H8          0.6855    3.9889    0.4832 H         1 <0>         0.0692
     37 H9          0.8655    2.7079    2.9370 H         1 <0>         0.0988
     38 H10         0.2040    1.9022    1.4754 H         1 <0>         0.0724
     39 H11        -1.9636    0.9582    1.8011 H         1 <0>         0.0704
     40 H12        -2.9022    1.3747    3.2551 H         1 <0>         0.0660
     41 H13        -5.5178    3.6386    1.7304 H         1 <0>         0.0915
     42 H14        -4.5112    2.2560    2.2239 H         1 <0>         0.1076
     43 H15        -2.8062    2.9293    4.2227 H         1 <0>         0.1531
     44 H16        -2.9238    3.6841    6.5634 H         1 <0>         0.1351
     45 H17        -6.7080    5.4963    5.7869 H         1 <0>         0.1316
     46 H18        -6.5839    4.7492    3.4441 H         1 <0>         0.1730
     47 O4         -1.3434   -0.8471    3.8080 O.co2     1 <0>        -0.7697
@<TRIPOS>BOND
     1    1    2 1
     2    1   30 1
     3    1   31 1
     4    1   32 1
     5    2    3 2
     6    2    4 2
     7    2    5 1
     8    5   10 ar
     9    5    6 ar
    10    6    7 ar
    11    6   33 1
    12    7    8 ar
    13    7   29 1
    14    8    9 ar
    15    8   34 1
    16    9   13 1
    17    9   10 ar
    18   10   11 1
    19   11   12 1
    20   11   21 1
    21   12   16 1
    22   12   13 2
    23   13   14 1
    24   14   15 1
    25   14   35 1
    26   14   36 1
    27   15   16 1
    28   15   37 1
    29   15   38 1
    30   16   17 1
    31   16   18 1
    32   18   19 1
    33   18   39 1
    34   18   40 1
    35   19   20 2
    36   19   47 1
    37   21   22 1
    38   21   41 1
    39   21   42 1
    40   22   27 ar
    41   22   23 ar
    42   23   24 ar
    43   23   43 1
    44   24   25 ar
    45   24   44 1
    46   25   26 ar
    47   25   28 1
    48   26   27 ar
    49   26   45 1
    50   27   46 1
@<TRIPOS>MOLECULE
ZINC03784120
   57    58     0     0     0
SMALL
USER_CHARGES

@<TRIPOS>ATOM
      1 C1         -0.0179    1.4678    0.0101 C.3       1 <0>        -0.0394
      2 C2          0.0021   -0.0041    0.0020 C.1       1 <0>        -0.2016
      3 C3          0.0180   -1.1779   -0.0044 C.1       1 <0>        -0.1806
      4 C4          0.0380   -2.6498   -0.0125 C.3       1 <0>         0.0004
      5 C5         -1.3974   -3.1794   -0.0017 C.3       1 <0>        -0.1117
      6 H1         -1.9342   -2.7566    0.8476 H         1 <0>         0.0826
      7 C6         -2.0993   -2.7769   -1.3002 C.3       1 <0>        -0.1511
      8 C7         -1.3774   -4.7047    0.1157 C.3       1 <0>         0.1418
      9 H2         -0.8773   -4.9914    1.0408 H         1 <0>         0.1089
     10 C8         -2.7912   -5.2263    0.1264 C.2       1 <0>        -0.1920
     11 C9         -3.1616   -6.1325   -0.7441 C.2       1 <0>        -0.1319
     12 C10        -4.5754   -6.6542   -0.7334 C.3       1 <0>        -0.0498
     13 H3         -5.1510   -6.1621    0.0507 H         1 <0>         0.0878
     14 C11        -5.2376   -6.4205   -2.1038 C.3       1 <0>         0.1093
     15 H4         -4.4880   -6.4379   -2.8950 H         1 <0>         0.0604
     16 C12        -6.2219   -7.5926   -2.2727 C.3       1 <0>        -0.1520
     17 C13        -5.6168   -8.7679   -1.4900 C.3       1 <0>        -0.0871
     18 H5         -5.1544   -9.4884   -2.1646 H         1 <0>         0.0799
     19 C14        -4.5770   -8.1750   -0.5160 C.3       1 <0>        -0.0755
     20 H6         -3.5879   -8.5955   -0.6976 H         1 <0>         0.0841
     21 C15        -5.0777   -8.4892    0.9027 C.3       1 <0>        -0.0787
     22 C16        -6.0869   -9.6105    0.7530 C.2       1 <0>        -0.1488
     23 C17        -6.3667  -10.5474    1.6247 C.2       1 <0>        -0.1272
     24 C18        -7.4073  -11.5891    1.3035 C.3       1 <0>        -0.0939
     25 C19        -6.7980  -12.9838    1.4601 C.3       1 <0>        -0.0871
     26 C20        -7.8544  -14.0414    1.1339 C.3       1 <0>        -0.1837
     27 C21        -7.2543  -15.4151    1.2881 C.2       1 <0>         0.4876
     28 O1         -6.0896  -15.5370    1.6274 O.co2     1 <0>        -0.6993
     29 O2         -7.9335  -16.4047    1.0736 O.co2     1 <0>        -0.7098
     30 C22        -6.7101   -9.4344   -0.6398 C.3       1 <0>        -0.0846
     31 O3         -5.9383   -5.1751   -2.1115 O.3       1 <0>        -0.5637
     32 O4         -0.6736   -5.2589   -0.9977 O.3       1 <0>        -0.5561
     33 H7          1.0047    1.8451    0.0024 H         1 <0>         0.0782
     34 H8         -0.5451    1.8289   -0.8729 H         1 <0>         0.0780
     35 H9         -0.5281    1.8193    0.9069 H         1 <0>         0.0783
     36 H10         0.5481   -3.0013   -0.9093 H         1 <0>         0.0909
     37 H11         0.5651   -3.0109    0.8705 H         1 <0>         0.0858
     38 H12        -1.5625   -3.1997   -2.1495 H         1 <0>         0.0537
     39 H13        -3.1219   -3.1542   -1.2925 H         1 <0>         0.0657
     40 H14        -2.1136   -1.6902   -1.3838 H         1 <0>         0.0573
     41 H15        -3.4990   -4.8531    0.8517 H         1 <0>         0.1151
     42 H16        -2.4538   -6.5058   -1.4694 H         1 <0>         0.1165
     43 H17        -7.1954   -7.3280   -1.8599 H         1 <0>         0.0778
     44 H18        -6.3184   -7.8532   -3.3267 H         1 <0>         0.0666
     45 H19        -4.2475   -8.8131    1.5304 H         1 <0>         0.0672
     46 H20        -5.5551   -7.6100    1.3353 H         1 <0>         0.0724
     47 H21        -5.8517  -10.5733    2.5737 H         1 <0>         0.1105
     48 H22        -8.2508  -11.4825    1.9856 H         1 <0>         0.0653
     49 H23        -7.7505  -11.4556    0.2776 H         1 <0>         0.0625
     50 H24        -5.9545  -13.0904    0.7780 H         1 <0>         0.0585
     51 H25        -6.4548  -13.1173    2.4860 H         1 <0>         0.0586
     52 H26        -8.6980  -13.9347    1.8160 H         1 <0>         0.0548
     53 H27        -8.1976  -13.9079    0.1080 H         1 <0>         0.0541
     54 H28        -7.5844   -8.7864   -0.5780 H         1 <0>         0.0721
     55 H29        -6.9856  -10.3970   -1.0705 H         1 <0>         0.0735
     56 H30        -6.3756   -4.9750   -2.9504 H         1 <0>         0.3762
     57 H31        -1.0636   -5.0439   -1.8561 H         1 <0>         0.3731
@<TRIPOS>BOND
     1    1    2 1
     2    1   33 1
     3    1   34 1
     4    1   35 1
     5    2    3 3
     6    3    4 1
     7    4    5 1
     8    4   36 1
     9    4   37 1
    10    5    6 1
    11    5    7 1
    12    5    8 1
    13    7   38 1
    14    7   39 1
    15    7   40 1
    16    8    9 1
    17    8   10 1
    18    8   32 1
    19   10   11 2
    20   10   41 1
    21   11   12 1
    22   11   42 1
    23   12   13 1
    24   12   19 1
    25   12   14 1
    26   14   15 1
    27   14   16 1
    28   14   31 1
    29   16   17 1
    30   16   43 1
    31   16   44 1
    32   17   18 1
    33   17   30 1
    34   17   19 1
    35   19   20 1
    36   19   21 1
    37   21   22 1
    38   21   45 1
    39   21   46 1
    40   22   23 2
    41   22   30 1
    42   23   24 1
    43   23   47 1
    44   24   25 1
    45   24   48 1
    46   24   49 1
    47   25   26 1
    48   25   50 1
    49   25   51 1
    50   26   27 1
    51   26   52 1
    52   26   53 1
    53   27   28 2
    54   27   29 1
    55   30   54 1
    56   30   55 1
    57   31   56 1
    58   32   57 1
@<TRIPOS>MOLECULE
ZINC13587680
   57    58     0     0     0
SMALL
USER_CHARGES

@<TRIPOS>ATOM
      1 C1         -0.0179    1.4678    0.0101 C.3       1 <0>        -0.0394
      2 C2          0.0021   -0.0041    0.0020 C.1       1 <0>        -0.2017
      3 C3          0.0180   -1.1779   -0.0044 C.1       1 <0>        -0.1803
      4 C4          0.0380   -2.6498   -0.0125 C.3       1 <0>        -0.0017
      5 C5         -1.3974   -3.1794   -0.0017 C.3       1 <0>        -0.1097
      6 H1         -1.9503   -2.7476   -0.8359 H         1 <0>         0.0764
      7 C6         -2.0744   -2.7910    1.3143 C.3       1 <0>        -0.1483
      8 C7         -1.3798   -4.7034   -0.1358 C.3       1 <0>         0.1420
      9 H2         -0.8269   -5.1351    0.6985 H         1 <0>         0.1089
     10 C8         -2.7936   -5.2250   -0.1251 C.2       1 <0>        -0.1954
     11 C9         -3.2211   -5.9786   -1.1076 C.2       1 <0>        -0.1316
     12 C10        -4.6350   -6.5002   -1.0969 C.3       1 <0>        -0.0499
     13 H3         -5.1594   -6.1446   -0.2100 H         1 <0>         0.0878
     14 C11        -5.3767   -6.0488   -2.3686 C.3       1 <0>         0.1090
     15 H4         -4.6761   -5.9343   -3.1957 H         1 <0>         0.0605
     16 C12        -6.3766   -7.1814   -2.6665 C.3       1 <0>        -0.1520
     17 C13        -5.7329   -8.4663   -2.1236 C.3       1 <0>        -0.0871
     18 H5         -5.3162   -9.0655   -2.9332 H         1 <0>         0.0801
     19 C14        -4.6328   -8.0361   -1.1304 C.3       1 <0>        -0.0755
     20 H6         -3.6590   -8.4178   -1.4372 H         1 <0>         0.0842
     21 C15        -5.0495   -8.5792    0.2457 C.3       1 <0>        -0.0787
     22 C16        -6.0728   -9.6648   -0.0236 C.2       1 <0>        -0.1488
     23 C17        -6.3055  -10.7323    0.6992 C.2       1 <0>        -0.1271
     24 C18        -7.3699  -11.7116    0.2758 C.3       1 <0>        -0.0939
     25 C19        -6.7609  -13.1109    0.1661 C.3       1 <0>        -0.0871
     26 C20        -7.8415  -14.1051   -0.2637 C.3       1 <0>        -0.1837
     27 C21        -7.2417  -15.4833   -0.3717 C.2       1 <0>         0.4876
     28 O1         -6.0595  -15.6546   -0.1276 O.co2     1 <0>        -0.6993
     29 O2         -7.9386  -16.4272   -0.7033 O.co2     1 <0>        -0.7098
     30 C22        -6.7773   -9.2664   -1.3290 C.3       1 <0>        -0.0846
     31 O3         -6.0689   -4.8215   -2.1311 O.3       1 <0>        -0.5639
     32 O4         -0.7475   -5.0661   -1.3649 O.3       1 <0>        -0.5569
     33 H7          1.0047    1.8451    0.0024 H         1 <0>         0.0782
     34 H8         -0.5451    1.8289   -0.8729 H         1 <0>         0.0782
     35 H9         -0.5281    1.8193    0.9069 H         1 <0>         0.0781
     36 H10         0.5481   -3.0013   -0.9093 H         1 <0>         0.0931
     37 H11         0.5651   -3.0109    0.8705 H         1 <0>         0.0854
     38 H12        -1.5215   -3.2227    2.1486 H         1 <0>         0.0578
     39 H13        -2.0870   -1.7052    1.4098 H         1 <0>         0.0570
     40 H14        -3.0970   -3.1683    1.3220 H         1 <0>         0.0622
     41 H15        -3.4543   -4.9775    0.6926 H         1 <0>         0.1174
     42 H16        -2.5604   -6.2261   -1.9253 H         1 <0>         0.1170
     43 H17        -7.3220   -6.9912   -2.1583 H         1 <0>         0.0779
     44 H18        -6.5378   -7.2672   -3.7411 H         1 <0>         0.0667
     45 H19        -4.1851   -8.9979    0.7611 H         1 <0>         0.0673
     46 H20        -5.4947   -7.7840    0.8437 H         1 <0>         0.0724
     47 H21        -5.7346  -10.9106    1.5985 H         1 <0>         0.1105
     48 H22        -8.1703  -11.7206    1.0157 H         1 <0>         0.0653
     49 H23        -7.7732  -11.4139   -0.6921 H         1 <0>         0.0625
     50 H24        -5.9605  -13.1018   -0.5737 H         1 <0>         0.0585
     51 H25        -6.3576  -13.4085    1.1341 H         1 <0>         0.0586
     52 H26        -8.6419  -14.1141    0.4762 H         1 <0>         0.0548
     53 H27        -8.2448  -13.8074   -1.2316 H         1 <0>         0.0541
     54 H28        -7.6423   -8.6404   -1.1099 H         1 <0>         0.0722
     55 H29        -7.0841  -10.1470   -1.8934 H         1 <0>         0.0736
     56 H30        -6.5546   -4.4890   -2.8983 H         1 <0>         0.3763
     57 H31        -1.1870   -4.7155   -2.1517 H         1 <0>         0.3744
@<TRIPOS>BOND
     1    1    2 1
     2    1   33 1
     3    1   34 1
     4    1   35 1
     5    2    3 3
     6    3    4 1
     7    4    5 1
     8    4   36 1
     9    4   37 1
    10    5    6 1
    11    5    7 1
    12    5    8 1
    13    7   38 1
    14    7   39 1
    15    7   40 1
    16    8    9 1
    17    8   10 1
    18    8   32 1
    19   10   11 2
    20   10   41 1
    21   11   12 1
    22   11   42 1
    23   12   13 1
    24   12   19 1
    25   12   14 1
    26   14   15 1
    27   14   16 1
    28   14   31 1
    29   16   17 1
    30   16   43 1
    31   16   44 1
    32   17   18 1
    33   17   30 1
    34   17   19 1
    35   19   20 1
    36   19   21 1
    37   21   22 1
    38   21   45 1
    39   21   46 1
    40   22   23 2
    41   22   30 1
    42   23   24 1
    43   23   47 1
    44   24   25 1
    45   24   48 1
    46   24   49 1
    47   25   26 1
    48   25   50 1
    49   25   51 1
    50   26   27 1
    51   26   52 1
    52   26   53 1
    53   27   28 2
    54   27   29 1
    55   30   54 1
    56   30   55 1
    57   31   56 1
    58   32   57 1
@<TRIPOS>MOLECULE
ZINC03813088
   58    58     0     0     0
SMALL
USER_CHARGES

@<TRIPOS>ATOM
      1 C1         -0.0187    1.5258    0.0104 C.3       1 <0>        -0.1537
      2 C2          0.0021   -0.0041    0.0020 C.3       1 <0>        -0.1260
      3 C3          0.7182   -0.4975   -1.2568 C.3       1 <0>        -0.1205
      4 C4          0.7390   -2.0273   -1.2652 C.3       1 <0>        -0.1178
      5 C5          1.4551   -2.5207   -2.5240 C.3       1 <0>        -0.1445
      6 C6          1.4758   -4.0506   -2.5324 C.3       1 <0>         0.1347
      7 H1          0.4580   -4.4283   -2.4352 H         1 <0>         0.1081
      8 C7          2.0707   -4.5378   -3.8285 C.2       1 <0>        -0.1841
      9 C8          3.0937   -5.3559   -3.8130 C.2       1 <0>        -0.1390
     10 C9          3.6886   -5.8431   -5.1091 C.3       1 <0>        -0.0471
     11 H2          3.1593   -5.4112   -5.9584 H         1 <0>         0.0970
     12 C10         5.1988   -5.5013   -5.1775 C.3       1 <0>         0.1127
     13 H3          5.6661   -5.6124   -4.1991 H         1 <0>         0.0737
     14 C11         5.7342   -6.5652   -6.1677 C.3       1 <0>        -0.2189
     15 C12         4.9488   -7.8214   -5.8347 C.2       1 <0>         0.3736
     16 O1          5.2904   -8.9585   -6.0554 O.2       1 <0>        -0.4271
     17 C13         3.6544   -7.3841   -5.1758 C.3       1 <0>        -0.1396
     18 H4          3.5903   -7.7992   -4.1699 H         1 <0>         0.1087
     19 C14         2.4572   -7.8449   -6.0095 C.3       1 <0>        -0.1022
     20 C15         2.3621   -9.3713   -5.9651 C.3       1 <0>        -0.1284
     21 C16         1.1649   -9.8322   -6.7989 C.3       1 <0>        -0.1165
     22 C17         1.0698  -11.3586   -6.7545 C.3       1 <0>        -0.1203
     23 C18        -0.1275  -11.8195   -7.5882 C.3       1 <0>        -0.0928
     24 C19        -0.2226  -13.3458   -7.5438 C.3       1 <0>        -0.1840
     25 C20        -1.4018  -13.7998   -8.3650 C.2       1 <0>         0.4875
     26 O2         -2.1013  -12.9786   -8.9332 O.co2     1 <0>        -0.7004
     27 O3         -1.6563  -14.9883   -8.4613 O.co2     1 <0>        -0.7101
     28 O4          5.3985   -4.1812   -5.6868 O.3       1 <0>        -0.5545
     29 O5          2.2655   -4.5223   -1.4388 O.3       1 <0>        -0.5573
     30 H5          1.0039    1.9031    0.0027 H         1 <0>         0.0526
     31 H6         -0.5459    1.8868   -0.8726 H         1 <0>         0.0531
     32 H7         -0.5289    1.8773    0.9072 H         1 <0>         0.0527
     33 H8          0.5293   -0.3651    0.8851 H         1 <0>         0.0606
     34 H9         -1.0205   -0.3814    0.0098 H         1 <0>         0.0609
     35 H10         0.1910   -0.1364   -2.1398 H         1 <0>         0.0602
     36 H11         1.7408   -0.1202   -1.2645 H         1 <0>         0.0595
     37 H12         1.2661   -2.3884   -0.3821 H         1 <0>         0.0678
     38 H13        -0.2836   -2.4046   -1.2575 H         1 <0>         0.0617
     39 H14         0.9279   -2.1597   -3.4071 H         1 <0>         0.0727
     40 H15         2.4777   -2.1435   -2.5317 H         1 <0>         0.0659
     41 H16         1.6537   -4.2124   -4.7701 H         1 <0>         0.1172
     42 H17         3.5108   -5.6813   -2.8714 H         1 <0>         0.1189
     43 H18         5.5434   -6.2584   -7.1961 H         1 <0>         0.1141
     44 H19         6.8001   -6.7297   -6.0101 H         1 <0>         0.0944
     45 H20         1.5432   -7.4120   -5.6031 H         1 <0>         0.0758
     46 H21         2.5861   -7.5188   -7.0416 H         1 <0>         0.0651
     47 H22         3.2761   -9.8043   -6.3716 H         1 <0>         0.0732
     48 H23         2.2333   -9.6975   -4.9331 H         1 <0>         0.0610
     49 H24         0.2509   -9.3992   -6.3924 H         1 <0>         0.0595
     50 H25         1.2937   -9.5061   -7.8309 H         1 <0>         0.0587
     51 H26         1.9838  -11.7916   -7.1609 H         1 <0>         0.0545
     52 H27         0.9409  -11.6847   -5.7224 H         1 <0>         0.0541
     53 H28        -1.0415  -11.3865   -7.1818 H         1 <0>         0.0569
     54 H29         0.0014  -11.4933   -8.6203 H         1 <0>         0.0567
     55 H30         0.6915  -13.7788   -7.9502 H         1 <0>         0.0541
     56 H31        -0.3514  -13.6720   -6.5118 H         1 <0>         0.0541
     57 H32         6.3275   -3.9199   -5.7489 H         1 <0>         0.3805
     58 H33         3.1852   -4.2243   -1.4604 H         1 <0>         0.3726
@<TRIPOS>BOND
     1    1    2 1
     2    1   30 1
     3    1   31 1
     4    1   32 1
     5    2    3 1
     6    2   33 1
     7    2   34 1
     8    3    4 1
     9    3   35 1
    10    3   36 1
    11    4    5 1
    12    4   37 1
    13    4   38 1
    14    5    6 1
    15    5   39 1
    16    5   40 1
    17    6    7 1
    18    6    8 1
    19    6   29 1
    20    8    9 2
    21    8   41 1
    22    9   10 1
    23    9   42 1
    24   10   11 1
    25   10   17 1
    26   10   12 1
    27   12   13 1
    28   12   14 1
    29   12   28 1
    30   14   15 1
    31   14   43 1
    32   14   44 1
    33   15   16 2
    34   15   17 1
    35   17   18 1
    36   17   19 1
    37   19   20 1
    38   19   45 1
    39   19   46 1
    40   20   21 1
    41   20   47 1
    42   20   48 1
    43   21   22 1
    44   21   49 1
    45   21   50 1
    46   22   23 1
    47   22   51 1
    48   22   52 1
    49   23   24 1
    50   23   53 1
    51   23   54 1
    52   24   25 1
    53   24   55 1
    54   24   56 1
    55   25   26 2
    56   25   27 1
    57   28   57 1
    58   29   58 1
@<TRIPOS>MOLECULE
ZINC03830202
   58    58     0     0     0
SMALL
USER_CHARGES
7-[3-hydroxy-2-(3-hydroxyoct-1-enyl)-5-oxo-cyclopentyl]heptanoic acid
@<TRIPOS>ATOM
      1 C1         -1.7110   -9.1359    6.6437 C.3       1 <0>        -0.1537
      2 C2         -1.7227   -7.6077    6.5697 C.3       1 <0>        -0.1260
      3 C3         -1.3547   -7.1628    5.1528 C.3       1 <0>        -0.1205
      4 C4         -1.3664   -5.6347    5.0789 C.3       1 <0>        -0.1174
      5 C5         -0.9984   -5.1898    3.6620 C.3       1 <0>        -0.1471
      6 C6         -1.0100   -3.6617    3.5880 C.3       1 <0>         0.1365
      7 H1         -1.9781   -3.2891    3.9229 H         1 <0>         0.0986
      8 C7         -0.7686   -3.2257    2.1658 C.2       1 <0>        -0.1808
      9 C8         -1.6681   -2.5089    1.5388 C.2       1 <0>        -0.1287
     10 C9         -1.4266   -2.0729    0.1165 C.3       1 <0>        -0.0505
     11 H2         -0.4850   -2.4777   -0.2545 H         1 <0>         0.0991
     12 C10        -2.6029   -2.5086   -0.7937 C.3       1 <0>         0.1103
     13 H3         -3.5538   -2.4167   -0.2688 H         1 <0>         0.0743
     14 C11        -2.5155   -1.4902   -1.9575 C.3       1 <0>        -0.2105
     15 C12        -2.1241   -0.1834   -1.2886 C.2       1 <0>         0.3761
     16 O1         -2.3260    0.9282   -1.7150 O.2       1 <0>        -0.4239
     17 C13        -1.4333   -0.5336    0.0129 C.3       1 <0>        -0.1315
     18 H4         -1.9246   -0.1491    0.7944 H         1 <0>         0.0997
     19 C14         0.0021   -0.0041    0.0020 C.3       1 <0>        -0.1044
     20 C15        -0.0187    1.5258    0.0104 C.3       1 <0>        -0.1292
     21 C16         1.4167    2.0553   -0.0004 C.3       1 <0>        -0.1164
     22 C17         1.3960    3.5852    0.0080 C.3       1 <0>        -0.1196
     23 C18         2.8313    4.1148   -0.0029 C.3       1 <0>        -0.0982
     24 C19         2.8106    5.6446    0.0055 C.3       1 <0>        -0.1583
     25 C20         4.2244    6.1662   -0.0052 C.2       1 <0>         0.4572
     26 O2          5.1533    5.3936   -0.0182 O.co2     1 <0>        -0.6429
     27 O3         -2.4126   -3.8438   -1.2660 O.3       1 <0>        -0.5538
     28 O4          0.0193   -3.1362    4.4285 O.3       1 <0>        -0.5554
     29 H5         -2.4356   -9.5394    5.9364 H         1 <0>         0.0526
     30 H6         -0.7159   -9.5041    6.3942 H         1 <0>         0.0531
     31 H7         -1.9732   -9.4528    7.6531 H         1 <0>         0.0527
     32 H8         -0.9981   -7.2042    7.2769 H         1 <0>         0.0613
     33 H9         -2.7178   -7.2395    6.8192 H         1 <0>         0.0601
     34 H10        -2.0793   -7.5664    4.4456 H         1 <0>         0.0595
     35 H11        -0.3596   -7.5311    4.9033 H         1 <0>         0.0603
     36 H12        -0.6418   -5.2311    5.7861 H         1 <0>         0.0689
     37 H13        -2.3615   -5.2664    5.3283 H         1 <0>         0.0602
     38 H14        -1.7230   -5.5934    2.9547 H         1 <0>         0.0721
     39 H15        -0.0032   -5.5581    3.4125 H         1 <0>         0.0664
     40 H16         0.1460   -3.5042    1.6635 H         1 <0>         0.1138
     41 H17        -2.5827   -2.2304    2.0411 H         1 <0>         0.1127
     42 H18        -1.8330   -1.7989   -2.6200 H         1 <0>         0.1036
     43 H19        -3.4823   -1.3923   -2.4512 H         1 <0>         0.0939
     44 H20         0.5123   -0.3556   -0.8948 H         1 <0>         0.0658
     45 H21         0.5293   -0.3651    0.8851 H         1 <0>         0.0772
     46 H22        -0.5459    1.8868   -0.8726 H         1 <0>         0.0741
     47 H23        -0.5289    1.8773    0.9072 H         1 <0>         0.0616
     48 H24         1.9439    1.6943    0.8826 H         1 <0>         0.0602
     49 H25         1.9269    1.7038   -0.8972 H         1 <0>         0.0590
     50 H26         0.8688    3.9463   -0.8751 H         1 <0>         0.0562
     51 H27         0.8858    3.9367    0.9048 H         1 <0>         0.0559
     52 H28         3.3585    3.7537    0.8802 H         1 <0>         0.0584
     53 H29         3.3415    3.7632   -0.8997 H         1 <0>         0.0580
     54 H30         2.2834    6.0057   -0.8775 H         1 <0>         0.0613
     55 H31         2.3004    5.9961    0.9023 H         1 <0>         0.0613
     56 H32        -3.1224   -4.1628   -1.8400 H         1 <0>         0.3811
     57 H33         0.9098   -3.4267    4.1883 H         1 <0>         0.3755
     58 O5          4.4517    7.4891   -0.0002 O.co2     1 <0>        -0.7801
@<TRIPOS>BOND
     1    1    2 1
     2    1   29 1
     3    1   30 1
     4    1   31 1
     5    2    3 1
     6    2   32 1
     7    2   33 1
     8    3    4 1
     9    3   34 1
    10    3   35 1
    11    4    5 1
    12    4   36 1
    13    4   37 1
    14    5    6 1
    15    5   38 1
    16    5   39 1
    17    6    7 1
    18    6    8 1
    19    6   28 1
    20    8    9 2
    21    8   40 1
    22    9   10 1
    23    9   41 1
    24   10   11 1
    25   10   17 1
    26   10   12 1
    27   12   13 1
    28   12   14 1
    29   12   27 1
    30   14   15 1
    31   14   42 1
    32   14   43 1
    33   15   16 2
    34   15   17 1
    35   17   18 1
    36   17   19 1
    37   19   20 1
    38   19   44 1
    39   19   45 1
    40   20   21 1
    41   20   46 1
    42   20   47 1
    43   21   22 1
    44   21   48 1
    45   21   49 1
    46   22   23 1
    47   22   50 1
    48   22   51 1
    49   23   24 1
    50   23   52 1
    51   23   53 1
    52   24   25 1
    53   24   54 1
    54   24   55 1
    55   25   26 2
    56   25   58 1
    57   27   56 1
    58   28   57 1
@<TRIPOS>MOLECULE
ZINC13836509
   65    66     0     0     0
SMALL
USER_CHARGES
7-[(1R,2R,3R)-3-hydroxy-2-[(E,4S)-4-hydroxy-4-(1-propylcyclobutyl)but-1-enyl]-5-oxo-cyclopentyl]heptanoic acid
@<TRIPOS>ATOM
      1 C1          4.2717   -1.5736   -2.6049 C.3       1 <0>        -0.1567
      2 C2          3.5319   -0.2345   -2.6234 C.3       1 <0>        -0.1298
      3 C3          2.6929   -0.0977   -1.3513 C.3       1 <0>        -0.0991
      4 C4          2.0324    1.2821   -1.3219 C.3       1 <0>        -0.1157
      5 C5          2.9735    2.4265   -1.7335 C.3       1 <0>        -0.1290
      6 C6          2.5141    2.1788   -3.1800 C.3       1 <0>        -0.1612
      7 C7          1.2180    1.6023   -2.5864 C.3       1 <0>        -0.1193
      8 C8          1.2742    1.5501   -0.0203 C.3       1 <0>         0.1287
      9 H1          1.0250    2.6094    0.0435 H         1 <0>         0.0977
     10 C9          2.1517    1.1600    1.1708 C.3       1 <0>        -0.1242
     11 C10         1.4642    1.5556    2.4521 C.2       1 <0>        -0.1306
     12 C11         1.2511    0.6604    3.3845 C.2       1 <0>        -0.1523
     13 C12         0.5636    1.0559    4.6658 C.3       1 <0>        -0.0465
     14 H2          0.3328    2.1212    4.6623 H         1 <0>         0.0969
     15 C13        -0.7252    0.2203    4.8728 C.3       1 <0>         0.1122
     16 H3         -0.5805   -0.8057    4.5343 H         1 <0>         0.0727
     17 C14        -0.9130    0.2768    6.4092 C.3       1 <0>        -0.2115
     18 C15         0.4975    0.1996    6.9660 C.2       1 <0>         0.3759
     19 O1          0.8121   -0.1827    8.0674 O.2       1 <0>        -0.4262
     20 C16         1.4367    0.6912    5.8844 C.3       1 <0>        -0.1321
     21 H4          2.0899   -0.0204    5.6255 H         1 <0>         0.0986
     22 C17         2.1953    1.9269    6.3727 C.3       1 <0>        -0.1042
     23 C18         3.1499    1.5271    7.4995 C.3       1 <0>        -0.1289
     24 C19         3.9085    2.7628    7.9878 C.3       1 <0>        -0.1165
     25 C20         4.8631    2.3629    9.1147 C.3       1 <0>        -0.1195
     26 C21         5.6217    3.5986    9.6030 C.3       1 <0>        -0.0982
     27 C22         6.5763    3.1988   10.7298 C.3       1 <0>        -0.1583
     28 C23         7.3235    4.4159   11.2108 C.2       1 <0>         0.4572
     29 O2          7.1141    5.4926   10.7042 O.co2     1 <0>        -0.6428
     30 O3         -1.8344    0.8225    4.2027 O.3       1 <0>        -0.5512
     31 O4          0.0730    0.7763   -0.0007 O.3       1 <0>        -0.5518
     32 H5          4.8695   -1.6710   -3.5111 H         1 <0>         0.0532
     33 H6          4.9243   -1.6161   -1.7329 H         1 <0>         0.0536
     34 H7          3.5485   -2.3876   -2.5575 H         1 <0>         0.0522
     35 H8          2.8793   -0.1919   -3.4954 H         1 <0>         0.0674
     36 H9          4.2552    0.5796   -2.6708 H         1 <0>         0.0698
     37 H10         3.3354   -0.2116   -0.4783 H         1 <0>         0.0702
     38 H11         1.9231   -0.8693   -1.3391 H         1 <0>         0.0633
     39 H12         2.6759    3.3990   -1.3413 H         1 <0>         0.0808
     40 H13         4.0279    2.2063   -1.5664 H         1 <0>         0.0694
     41 H14         3.1176    1.4416   -3.7096 H         1 <0>         0.0968
     42 H15         2.3629    3.0938   -3.7528 H         1 <0>         0.0622
     43 H16         0.8551    0.7166   -3.1079 H         1 <0>         0.0647
     44 H17         0.4404    2.3494   -2.4274 H         1 <0>         0.0806
     45 H18         2.3154    0.0824    1.1639 H         1 <0>         0.0712
     46 H19         3.1105    1.6736    1.0993 H         1 <0>         0.0825
     47 H20         1.1472    2.5771    2.6018 H         1 <0>         0.1092
     48 H21         1.5681   -0.3612    3.2348 H         1 <0>         0.1077
     49 H22        -1.3748    1.1283    6.6575 H         1 <0>         0.1033
     50 H23        -1.5064   -0.5710    6.7516 H         1 <0>         0.0928
     51 H24         2.7658    2.3527    5.5472 H         1 <0>         0.0763
     52 H25         1.4853    2.6663    6.7432 H         1 <0>         0.0658
     53 H26         2.5794    1.1013    8.3250 H         1 <0>         0.0741
     54 H27         3.8599    0.7877    7.1290 H         1 <0>         0.0608
     55 H28         4.4790    3.1886    7.1624 H         1 <0>         0.0597
     56 H29         3.1985    3.5021    8.3583 H         1 <0>         0.0593
     57 H30         4.2926    1.9371    9.9401 H         1 <0>         0.0563
     58 H31         5.5731    1.6235    8.7442 H         1 <0>         0.0556
     59 H32         6.1922    4.0244    8.7775 H         1 <0>         0.0582
     60 H33         4.9117    4.3380    9.9735 H         1 <0>         0.0582
     61 H34         6.0058    2.7729   11.5553 H         1 <0>         0.0613
     62 H35         7.2863    2.4594   10.3593 H         1 <0>         0.0611
     63 H36        -2.6648    0.3369    4.3021 H         1 <0>         0.3795
     64 H37         0.2191   -0.1781   -0.0545 H         1 <0>         0.3687
     65 O5          8.2217    4.3038   12.2019 O.co2     1 <0>        -0.7801
@<TRIPOS>BOND
     1    1    2 1
     2    1   32 1
     3    1   33 1
     4    1   34 1
     5    2    3 1
     6    2   35 1
     7    2   36 1
     8    3    4 1
     9    3   37 1
    10    3   38 1
    11    4    7 1
    12    4    5 1
    13    4    8 1
    14    5    6 1
    15    5   39 1
    16    5   40 1
    17    6    7 1
    18    6   41 1
    19    6   42 1
    20    7   43 1
    21    7   44 1
    22    8    9 1
    23    8   10 1
    24    8   31 1
    25   10   11 1
    26   10   45 1
    27   10   46 1
    28   11   12 2
    29   11   47 1
    30   12   13 1
    31   12   48 1
    32   13   14 1
    33   13   20 1
    34   13   15 1
    35   15   16 1
    36   15   17 1
    37   15   30 1
    38   17   18 1
    39   17   49 1
    40   17   50 1
    41   18   19 2
    42   18   20 1
    43   20   21 1
    44   20   22 1
    45   22   23 1
    46   22   51 1
    47   22   52 1
    48   23   24 1
    49   23   53 1
    50   23   54 1
    51   24   25 1
    52   24   55 1
    53   24   56 1
    54   25   26 1
    55   25   57 1
    56   25   58 1
    57   26   27 1
    58   26   59 1
    59   26   60 1
    60   27   28 1
    61   27   61 1
    62   27   62 1
    63   28   29 2
    64   28   65 1
    65   30   63 1
    66   31   64 1
@<TRIPOS>MOLECULE
ZINC03776592
   58    60     0     0     0
SMALL
USER_CHARGES
4-[hydroxy-(3-hydroxy-4-methyl-oct-1-en-6-ynyl)-BLAHyl]butanoic acid
@<TRIPOS>ATOM
      1 C1         10.4136   15.8148   -4.8530 C.3       1 <0>        -0.0401
      2 C2         10.5587   14.3819   -4.5488 C.1       1 <0>        -0.1995
      3 C3         10.6745   13.2391   -4.3062 C.1       1 <0>        -0.1826
      4 C4         10.8197   11.8062   -4.0020 C.3       1 <0>         0.0014
      5 C5          9.4473   11.2118   -3.6792 C.3       1 <0>        -0.1125
      6 H1          8.9845   11.7824   -2.8740 H         1 <0>         0.0836
      7 C6          8.5593   11.2735   -4.9237 C.3       1 <0>        -0.1517
      8 C7          9.6126    9.7549   -3.2423 C.3       1 <0>         0.1420
      9 H2         10.2452    9.7109   -2.3558 H         1 <0>         0.1102
     10 C8          8.2608    9.1694   -2.9244 C.2       1 <0>        -0.1858
     11 C9          7.8656    8.0721   -3.5209 C.2       1 <0>        -0.1365
     12 C10         6.5138    7.4866   -3.2030 C.3       1 <0>        -0.0449
     13 H3          6.0016    8.1135   -2.4731 H         1 <0>         0.0943
     14 C11         5.6760    7.3845   -4.4844 C.3       1 <0>         0.1145
     15 H4          6.2476    7.7620   -5.3323 H         1 <0>         0.0629
     16 C12         5.3472    5.8993   -4.6955 C.3       1 <0>        -0.1561
     17 C13         5.5832    5.2117   -3.3420 C.3       1 <0>         0.0796
     18 H5          5.8653    4.1642   -3.4479 H         1 <0>         0.1013
     19 C14         6.6796    6.0647   -2.6445 C.3       1 <0>        -0.0634
     20 H6          7.6895    5.6736   -2.7674 H         1 <0>         0.1079
     21 C15         6.2038    6.0459   -1.2032 C.ar      1 <0>        -0.1710
     22 C16         6.8373    6.3437   -0.0172 C.ar      1 <0>        -0.0780
     23 C17         6.1519    6.2317    1.1795 C.ar      1 <0>        -0.1491
     24 C18         4.8298    5.8261    1.1782 C.ar      1 <0>        -0.0843
     25 C19         4.1946    5.5238   -0.0083 C.ar      1 <0>        -0.0862
     26 C20         4.8771    5.6355   -1.2172 C.ar      1 <0>         0.1175
     27 O1          4.4454    5.4071   -2.4885 O.3       1 <0>        -0.2840
     28 C21         2.7554    5.0768    0.0030 C.3       1 <0>        -0.0795
     29 C22         2.6961    3.5480   -0.0046 C.3       1 <0>        -0.0877
     30 C23         1.2350    3.0943    0.0069 C.3       1 <0>        -0.1571
     31 C24         1.1765    1.5884   -0.0006 C.2       1 <0>         0.4584
     32 O2          2.1986    0.9442   -0.0139 O.co2     1 <0>        -0.6420
     33 O3          4.4681    8.1336   -4.3365 O.3       1 <0>        -0.5581
     34 O4         10.2193    9.0069   -4.2980 O.3       1 <0>        -0.5559
     35 H7         11.3913   16.2383   -5.0830 H         1 <0>         0.0782
     36 H8          9.7529   15.9390   -5.7111 H         1 <0>         0.0789
     37 H9          9.9890   16.3282   -3.9903 H         1 <0>         0.0784
     38 H10        11.4803   11.6821   -3.1440 H         1 <0>         0.0857
     39 H11        11.2442   11.2929   -4.8647 H         1 <0>         0.0909
     40 H12         9.0221   10.7029   -5.7289 H         1 <0>         0.0548
     41 H13         7.5816   10.8500   -4.6937 H         1 <0>         0.0633
     42 H14         8.4416   12.3114   -5.2349 H         1 <0>         0.0589
     43 H15         7.6180    9.6544   -2.2047 H         1 <0>         0.1169
     44 H16         8.5084    7.5871   -4.2406 H         1 <0>         0.1200
     45 H17         4.3061    5.7852   -4.9973 H         1 <0>         0.0912
     46 H18         6.0054    5.4737   -5.4529 H         1 <0>         0.0912
     47 H19         7.8686    6.6642   -0.0211 H         1 <0>         0.1186
     48 H20         6.6462    6.4649    2.1109 H         1 <0>         0.1240
     49 H21         4.2930    5.7417    2.1115 H         1 <0>         0.1295
     50 H22         2.2476    5.4646   -0.8801 H         1 <0>         0.0696
     51 H23         2.2646    5.4550    0.8998 H         1 <0>         0.0676
     52 H24         3.2039    3.1603    0.8785 H         1 <0>         0.0594
     53 H25         3.1869    3.1698   -0.9014 H         1 <0>         0.0598
     54 H26         0.7272    3.4820   -0.8762 H         1 <0>         0.0624
     55 H27         0.7441    3.4725    0.9036 H         1 <0>         0.0621
     56 H28         3.8928    8.1097   -5.1134 H         1 <0>         0.3774
     57 H29         9.7099    9.0023   -5.1199 H         1 <0>         0.3734
     58 O5         -0.0110    0.9628    0.0073 O.co2     1 <0>        -0.7798
@<TRIPOS>BOND
     1    1    2 1
     2    1   35 1
     3    1   36 1
     4    1   37 1
     5    2    3 3
     6    3    4 1
     7    4    5 1
     8    4   38 1
     9    4   39 1
    10    5    6 1
    11    5    7 1
    12    5    8 1
    13    7   40 1
    14    7   41 1
    15    7   42 1
    16    8    9 1
    17    8   10 1
    18    8   34 1
    19   10   11 2
    20   10   43 1
    21   11   12 1
    22   11   44 1
    23   12   13 1
    24   12   19 1
    25   12   14 1
    26   14   15 1
    27   14   16 1
    28   14   33 1
    29   16   17 1
    30   16   45 1
    31   16   46 1
    32   17   18 1
    33   17   27 1
    34   17   19 1
    35   19   20 1
    36   19   21 1
    37   21   26 ar
    38   21   22 ar
    39   22   23 ar
    40   22   47 1
    41   23   24 ar
    42   23   48 1
    43   24   25 ar
    44   24   49 1
    45   25   26 ar
    46   25   28 1
    47   26   27 1
    48   28   29 1
    49   28   50 1
    50   28   51 1
    51   29   30 1
    52   29   52 1
    53   29   53 1
    54   30   31 1
    55   30   54 1
    56   30   55 1
    57   31   32 2
    58   31   58 1
    59   33   56 1
    60   34   57 1
@<TRIPOS>MOLECULE
ZINC13671573
   58    60     0     0     0
SMALL
USER_CHARGES
4-[(1R,2R,3aS,8bS)-2-hydroxy-1-[(E,3S,4S)-3-hydroxy-4-methyl-oct-1-en-6-ynyl]-2,3,3a,8b-tetrahydro-1H-cyclopenta[b]benzofuran-5-yl]butanoic acid
@<TRIPOS>ATOM
      1 C1         10.3474   15.6177   -5.4880 C.3       1 <0>        -0.0400
      2 C2         10.5157   14.2564   -4.9539 C.1       1 <0>        -0.1998
      3 C3         10.6499   13.1706   -4.5279 C.1       1 <0>        -0.1821
      4 C4         10.8181   11.8093   -3.9937 C.3       1 <0>        -0.0008
      5 C5          9.4456   11.2139   -3.6734 C.3       1 <0>        -0.1101
      6 H1          8.8145   11.2576   -4.5611 H         1 <0>         0.0765
      7 C6          8.7935   12.0141   -2.5441 C.3       1 <0>        -0.1492
      8 C7          9.6111    9.7570   -3.2365 C.3       1 <0>         0.1421
      9 H2         10.2422    9.7133   -2.3489 H         1 <0>         0.1102
     10 C8          8.2592    9.1705   -2.9210 C.2       1 <0>        -0.1893
     11 C9          7.8657    8.0731   -3.5185 C.2       1 <0>        -0.1359
     12 C10         6.5138    7.4866   -3.2030 C.3       1 <0>        -0.0453
     13 H3          6.0000    8.1130   -2.4738 H         1 <0>         0.0943
     14 C11         5.6760    7.3845   -4.4844 C.3       1 <0>         0.1143
     15 H4          6.2476    7.7620   -5.3323 H         1 <0>         0.0629
     16 C12         5.3472    5.8993   -4.6955 C.3       1 <0>        -0.1560
     17 C13         5.5832    5.2117   -3.3420 C.3       1 <0>         0.0796
     18 H5          5.8653    4.1642   -3.4479 H         1 <0>         0.1015
     19 C14         6.6796    6.0647   -2.6445 C.3       1 <0>        -0.0633
     20 H6          7.6895    5.6736   -2.7674 H         1 <0>         0.1079
     21 C15         6.2038    6.0459   -1.2032 C.ar      1 <0>        -0.1711
     22 C16         6.8373    6.3437   -0.0172 C.ar      1 <0>        -0.0780
     23 C17         6.1519    6.2317    1.1795 C.ar      1 <0>        -0.1490
     24 C18         4.8298    5.8261    1.1782 C.ar      1 <0>        -0.0843
     25 C19         4.1946    5.5238   -0.0083 C.ar      1 <0>        -0.0861
     26 C20         4.8771    5.6355   -1.2172 C.ar      1 <0>         0.1175
     27 O1          4.4454    5.4071   -2.4885 O.3       1 <0>        -0.2840
     28 C21         2.7554    5.0768    0.0030 C.3       1 <0>        -0.0795
     29 C22         2.6961    3.5480   -0.0046 C.3       1 <0>        -0.0877
     30 C23         1.2350    3.0943    0.0069 C.3       1 <0>        -0.1571
     31 C24         1.1765    1.5884   -0.0006 C.2       1 <0>         0.4584
     32 O2          2.1986    0.9442   -0.0139 O.co2     1 <0>        -0.6420
     33 O3          4.4681    8.1336   -4.3365 O.3       1 <0>        -0.5582
     34 O4         10.2202    9.0096   -4.2913 O.3       1 <0>        -0.5568
     35 H7         11.3252   16.0419   -5.7162 H         1 <0>         0.0784
     36 H8          9.7468   15.5797   -6.3968 H         1 <0>         0.0785
     37 H9          9.8457   16.2395   -4.7466 H         1 <0>         0.0785
     38 H10        11.4188   11.8473   -3.0849 H         1 <0>         0.0853
     39 H11        11.3199   11.1875   -4.7352 H         1 <0>         0.0930
     40 H12         8.6756   13.0520   -2.8554 H         1 <0>         0.0578
     41 H13         7.8157   11.5899   -2.3159 H         1 <0>         0.0624
     42 H14         9.4246   11.9704   -1.6565 H         1 <0>         0.0583
     43 H15         7.6148    9.6550   -2.2024 H         1 <0>         0.1192
     44 H16         8.5101    7.5886   -4.2371 H         1 <0>         0.1204
     45 H17         4.3061    5.7852   -4.9973 H         1 <0>         0.0913
     46 H18         6.0054    5.4737   -5.4529 H         1 <0>         0.0913
     47 H19         7.8686    6.6642   -0.0211 H         1 <0>         0.1186
     48 H20         6.6462    6.4649    2.1109 H         1 <0>         0.1241
     49 H21         4.2930    5.7417    2.1115 H         1 <0>         0.1295
     50 H22         2.2476    5.4646   -0.8801 H         1 <0>         0.0696
     51 H23         2.2646    5.4550    0.8998 H         1 <0>         0.0676
     52 H24         3.2039    3.1603    0.8785 H         1 <0>         0.0594
     53 H25         3.1869    3.1698   -0.9014 H         1 <0>         0.0598
     54 H26         0.7272    3.4820   -0.8762 H         1 <0>         0.0624
     55 H27         0.7441    3.4725    0.9036 H         1 <0>         0.0621
     56 H28         3.8928    8.1097   -5.1134 H         1 <0>         0.3776
     57 H29         9.7122    9.0048   -5.1141 H         1 <0>         0.3747
     58 O5         -0.0110    0.9628    0.0073 O.co2     1 <0>        -0.7798
@<TRIPOS>BOND
     1    1    2 1
     2    1   35 1
     3    1   36 1
     4    1   37 1
     5    2    3 3
     6    3    4 1
     7    4    5 1
     8    4   38 1
     9    4   39 1
    10    5    6 1
    11    5    7 1
    12    5    8 1
    13    7   40 1
    14    7   41 1
    15    7   42 1
    16    8    9 1
    17    8   10 1
    18    8   34 1
    19   10   11 2
    20   10   43 1
    21   11   12 1
    22   11   44 1
    23   12   13 1
    24   12   19 1
    25   12   14 1
    26   14   15 1
    27   14   16 1
    28   14   33 1
    29   16   17 1
    30   16   45 1
    31   16   46 1
    32   17   18 1
    33   17   27 1
    34   17   19 1
    35   19   20 1
    36   19   21 1
    37   21   26 ar
    38   21   22 ar
    39   22   23 ar
    40   22   47 1
    41   23   24 ar
    42   23   48 1
    43   24   25 ar
    44   24   49 1
    45   25   26 ar
    46   25   28 1
    47   26   27 1
    48   28   29 1
    49   28   50 1
    50   28   51 1
    51   29   30 1
    52   29   52 1
    53   29   53 1
    54   30   31 1
    55   30   54 1
    56   30   55 1
    57   31   32 2
    58   31   58 1
    59   33   56 1
    60   34   57 1
