@<TRIPOS>MOLECULE
ZINC13952160
   13    13     0     0     0
SMALL
USER_CHARGES
pyridin-2-amine
@<TRIPOS>ATOM
      1 C1         -1.2206    1.7609    0.0173 C.ar      1 <0>        -0.0333
      2 C2         -0.0126    1.0758    0.0080 C.ar      1 <0>        -0.2360
      3 C3          1.1691    1.7890    0.0005 C.ar      1 <0>         0.1484
      4 N1          1.1632    3.1087    0.0072 N.ar      1 <0>        -0.5484
      5 C4          0.0327    3.7978    0.0212 C.ar      1 <0>         0.4010
      6 C5         -1.1952    3.1436    0.0294 C.ar      1 <0>        -0.2417
      7 N2          0.0730    5.1872    0.0283 N.pl3     1 <0>        -0.8532
      8 H1         -2.1588    1.2259    0.0192 H         1 <0>         0.1330
      9 H2          0.0021   -0.0041    0.0020 H         1 <0>         0.1322
     10 H3          2.1107    1.2603   -0.0113 H         1 <0>         0.1560
     11 H4         -2.1160    3.7079    0.0405 H         1 <0>         0.1298
     12 H5          0.9267    5.6477    0.0230 H         1 <0>         0.4041
     13 H6         -0.7526    5.6963    0.0386 H         1 <0>         0.4081
@<TRIPOS>BOND
     1    1    6 ar
     2    1    2 ar
     3    1    8 1
     4    2    3 ar
     5    2    9 1
     6    3    4 ar
     7    3   10 1
     8    4    5 ar
     9    5    6 ar
    10    5    7 1
    11    6   11 1
    12    7   12 1
    13    7   13 1
@<TRIPOS>MOLECULE
ZINC00087515
   39    42     0     0     0
SMALL
USER_CHARGES
[4-(6-aminopurin-9-yl)-7,7-dimethyl-3,6,8-trioxabicyclo[3.3.0]oct-2-yl]methanol
@<TRIPOS>ATOM
      1 C1         -4.3295    1.5596    4.1901 C.3       1 <0>        -0.1663
      2 C2         -2.9658    1.1318    3.6440 C.3       1 <0>         0.2451
      3 O1         -3.0457   -0.2282    3.1270 O.3       1 <0>        -0.3410
      4 C3         -2.5104   -0.1415    1.8391 C.3       1 <0>         0.0062
      5 H1         -1.4219   -0.1289    1.8951 H         1 <0>         0.0902
      6 C4         -2.9562   -0.9000    0.6125 C.3       1 <0>         0.0926
      7 H2         -4.0351   -1.0548    0.6256 H         1 <0>         0.1111
      8 O2         -2.5720   -0.0108   -0.4776 O.3       1 <0>        -0.3348
      9 C5         -2.5206    1.3539    0.0199 C.3       1 <0>         0.3256
     10 H3         -3.1509    2.0024   -0.5886 H         1 <0>         0.1458
     11 C6         -3.0465    1.2889    1.4274 C.3       1 <0>        -0.0082
     12 H4         -4.1365    1.2908    1.4198 H         1 <0>         0.1102
     13 O3         -2.5781    2.0069    2.5394 O.3       1 <0>        -0.3275
     14 N1         -1.1395    1.8426    0.0169 N.pl3     1 <0>        -0.4780
     15 C7         -0.0126    1.0758    0.0080 C.2       1 <0>         0.2662
     16 N2          1.0431    1.8369    0.0020 N.2       1 <0>        -0.4505
     17 C8          0.6618    3.1368    0.0121 C.ar      1 <0>        -0.0676
     18 C9         -0.7433    3.1561    0.0253 C.ar      1 <0>         0.3084
     19 N3         -1.3730    4.3263    0.0367 N.ar      1 <0>        -0.5340
     20 C10        -0.6935    5.4539    0.0357 C.ar      1 <0>         0.3485
     21 N4          0.6264    5.4861    0.0240 N.ar      1 <0>        -0.5743
     22 C11         1.3422    4.3662    0.0113 C.ar      1 <0>         0.4487
     23 N5          2.7253    4.4100   -0.0010 N.pl3     1 <0>        -0.7435
     24 C12        -2.2205   -2.2372    0.5055 C.3       1 <0>         0.0820
     25 O4         -2.7443   -2.9822   -0.5957 O.3       1 <0>        -0.5633
     26 C13        -1.9161    1.2032    4.7548 C.3       1 <0>        -0.1556
     27 H5         -4.6152    0.9013    5.0105 H         1 <0>         0.0841
     28 H6         -4.2703    2.5862    4.5517 H         1 <0>         0.0856
     29 H7         -5.0746    1.4961    3.3970 H         1 <0>         0.0682
     30 H8          0.0021   -0.0041    0.0020 H         1 <0>         0.2179
     31 H9         -1.2361    6.3876    0.0452 H         1 <0>         0.2065
     32 H10         3.0807    3.9458    0.8103 H         1 <0>         0.3695
     33 H11         3.1835    5.2649   -0.0014 H         1 <0>         0.3738
     34 H12        -1.1573   -2.0553    0.3483 H         1 <0>         0.0587
     35 H13        -2.3600   -2.8033    1.4264 H         1 <0>         0.0740
     36 H14        -2.3234   -3.8434   -0.7236 H         1 <0>         0.3884
     37 H15        -0.9497    0.8870    4.3623 H         1 <0>         0.0681
     38 H16        -1.8424    2.2276    5.1198 H         1 <0>         0.0820
     39 H17        -2.2084    0.5459    5.5737 H         1 <0>         0.0868
@<TRIPOS>BOND
     1    1    2 1
     2    1   27 1
     3    1   28 1
     4    1   29 1
     5    2   13 1
     6    2    3 1
     7    2   26 1
     8    3    4 1
     9    4    5 1
    10    4   11 1
    11    4    6 1
    12    6    7 1
    13    6    8 1
    14    6   24 1
    15    8    9 1
    16    9   10 1
    17    9   11 1
    18    9   14 1
    19   11   12 1
    20   11   13 1
    21   14   18 1
    22   14   15 1
    23   15   16 2
    24   15   30 1
    25   16   17 1
    26   17   22 ar
    27   17   18 ar
    28   18   19 ar
    29   19   20 ar
    30   20   21 ar
    31   20   31 1
    32   21   22 ar
    33   22   23 1
    34   23   32 1
    35   23   33 1
    36   24   25 1
    37   24   34 1
    38   24   35 1
    39   25   36 1
    40   26   37 1
    41   26   38 1
    42   26   39 1
@<TRIPOS>MOLECULE
ZINC00171553
   39    42     0     0     0
SMALL
USER_CHARGES
[4-(6-aminopurin-9-yl)-7,7-dimethyl-3,6,8-trioxabicyclo[3.3.0]oct-2-yl]methanol
@<TRIPOS>ATOM
      1 C1         -3.7336    7.1395   -4.2333 C.3       1 <0>        -0.1850
      2 C2         -2.8160    7.6393   -3.1157 C.3       1 <0>         0.2474
      3 O1         -3.4936    8.6294   -2.3222 O.3       1 <0>        -0.3599
      4 C3         -4.1494    7.9318   -1.2491 C.3       1 <0>         0.0311
      5 H1         -5.2327    8.0496   -1.2758 H         1 <0>         0.1313
      6 C4         -3.5399    8.3854    0.0908 C.3       1 <0>         0.0754
      7 H2         -4.3323    8.5651    0.8174 H         1 <0>         0.1001
      8 O2         -2.6876    7.3210    0.5486 O.3       1 <0>        -0.3459
      9 C5         -3.2612    6.0937    0.0491 C.3       1 <0>         0.3116
     10 H3         -4.1249    5.8031    0.6472 H         1 <0>         0.1260
     11 C6         -3.6935    6.4478   -1.3945 C.3       1 <0>         0.0086
     12 H4         -4.4588    5.7845   -1.7975 H         1 <0>         0.1275
     13 O3         -2.5005    6.5599   -2.2096 O.3       1 <0>        -0.3448
     14 N1         -2.2602    5.0240    0.0391 N.pl3     1 <0>        -0.4627
     15 C7         -0.9067    5.1860    0.0338 C.2       1 <0>         0.3023
     16 N2         -0.3199    4.0245    0.0252 N.2       1 <0>        -0.4722
     17 C8         -1.2568    3.0459    0.0304 C.ar      1 <0>        -0.0948
     18 C9         -2.5131    3.6756    0.0334 C.ar      1 <0>         0.2973
     19 N3         -3.6109    2.9267    0.0346 N.ar      1 <0>        -0.5426
     20 C10        -3.5269    1.6129    0.0275 C.ar      1 <0>         0.3482
     21 N4         -2.3698    0.9768    0.0186 N.ar      1 <0>        -0.5478
     22 C11        -1.2188    1.6414    0.0168 C.ar      1 <0>         0.4557
     23 N5         -0.0111    0.9658    0.0074 N.pl3     1 <0>        -0.7510
     24 C12        -2.7179    9.6593   -0.1152 C.3       1 <0>         0.0926
     25 O4         -2.2352   10.1240    1.1470 O.3       1 <0>        -0.5696
     26 C13        -1.5321    8.2247   -3.7072 C.3       1 <0>        -0.1409
     27 H5         -3.9960    7.9713   -4.8872 H         1 <0>         0.0820
     28 H6         -3.2181    6.3721   -4.8108 H         1 <0>         0.0796
     29 H7         -4.6403    6.7192   -3.7983 H         1 <0>         0.0628
     30 H8         -0.3965    6.1379    0.0369 H         1 <0>         0.2230
     31 H9         -4.4384    1.0338    0.0287 H         1 <0>         0.2099
     32 H10         0.0554    0.3907    0.8227 H         1 <0>         0.3676
     33 H11         0.8223    1.4622    0.0021 H         1 <0>         0.3835
     34 H12        -1.8736    9.4450   -0.7705 H         1 <0>         0.0614
     35 H13        -3.3447   10.4267   -0.5694 H         1 <0>         0.0697
     36 H14        -1.7044   10.9305    1.0924 H         1 <0>         0.3850
     37 H15        -0.8852    8.5702   -2.9008 H         1 <0>         0.0729
     38 H16        -1.0154    7.4578   -4.2843 H         1 <0>         0.0815
     39 H17        -1.7811    9.0630   -4.3578 H         1 <0>         0.0833
@<TRIPOS>BOND
     1    1    2 1
     2    1   27 1
     3    1   28 1
     4    1   29 1
     5    2   13 1
     6    2    3 1
     7    2   26 1
     8    3    4 1
     9    4    5 1
    10    4   11 1
    11    4    6 1
    12    6    7 1
    13    6    8 1
    14    6   24 1
    15    8    9 1
    16    9   10 1
    17    9   11 1
    18    9   14 1
    19   11   12 1
    20   11   13 1
    21   14   18 1
    22   14   15 1
    23   15   16 2
    24   15   30 1
    25   16   17 1
    26   17   22 ar
    27   17   18 ar
    28   18   19 ar
    29   19   20 ar
    30   20   21 ar
    31   20   31 1
    32   21   22 ar
    33   22   23 1
    34   23   32 1
    35   23   33 1
    36   24   25 1
    37   24   34 1
    38   24   35 1
    39   25   36 1
    40   26   37 1
    41   26   38 1
    42   26   39 1
@<TRIPOS>MOLECULE
ZINC03860533
   39    42     0     0     0
SMALL
USER_CHARGES
[4-(6-aminopurin-9-yl)-7,7-dimethyl-3,6,8-trioxabicyclo[3.3.0]oct-2-yl]methanol
@<TRIPOS>ATOM
      1 C1         -1.1094    0.3308   -4.4637 C.3       1 <0>        -0.1699
      2 C2         -0.7235    0.2913   -2.9837 C.3       1 <0>         0.2584
      3 O1         -1.7971    0.8116   -2.1975 O.3       1 <0>        -0.3574
      4 C3         -2.4790   -0.3099   -1.6022 C.3       1 <0>         0.0289
      5 H1         -3.4027   -0.5727   -2.1177 H         1 <0>         0.1289
      6 C4         -2.6880    0.0073   -0.1080 C.3       1 <0>         0.0642
      7 H2         -2.4141    1.0435    0.0904 H         1 <0>         0.1034
      8 O2         -1.8507   -0.8683    0.6527 O.3       1 <0>        -0.3282
      9 C5         -0.8058   -1.3671   -0.1951 C.3       1 <0>         0.2853
     10 H3         -0.4966   -2.3597    0.1323 H         1 <0>         0.1495
     11 C6         -1.4129   -1.4381   -1.6047 C.3       1 <0>         0.0276
     12 H4         -1.8549   -2.4141   -1.8048 H         1 <0>         0.1456
     13 O3         -0.4590   -1.0586   -2.5961 O.3       1 <0>        -0.3389
     14 N1          0.3375   -0.4512   -0.1817 N.pl3     1 <0>        -0.4800
     15 C7          0.3287    0.8439    0.2436 C.2       1 <0>         0.2724
     16 N2          1.5155    1.3621    0.1153 N.2       1 <0>        -0.4516
     17 C8          2.3591    0.4352   -0.3989 C.ar      1 <0>        -0.0713
     18 C9          1.6134   -0.7395   -0.5957 C.ar      1 <0>         0.3162
     19 N3          2.2175   -1.8115   -1.0977 N.ar      1 <0>        -0.5279
     20 C10         3.4966   -1.7776   -1.4069 C.ar      1 <0>         0.3454
     21 N4          4.2379   -0.6977   -1.2399 N.ar      1 <0>        -0.5752
     22 C11         3.7210    0.4221   -0.7445 C.ar      1 <0>         0.4463
     23 N5          4.5058    1.5491   -0.5736 N.pl3     1 <0>        -0.7440
     24 C12        -4.1531   -0.2213    0.2691 C.3       1 <0>         0.0796
     25 O4         -4.3658    0.1862    1.6221 O.3       1 <0>        -0.5625
     26 C13         0.5299    1.1399   -2.7606 C.3       1 <0>        -0.1810
     27 H5         -1.2853    1.3632   -4.7659 H         1 <0>         0.0792
     28 H6         -0.3007   -0.0899   -5.0613 H         1 <0>         0.0769
     29 H7         -2.0169   -0.2527   -4.6182 H         1 <0>         0.0648
     30 H8         -0.5368    1.3645    0.6261 H         1 <0>         0.2176
     31 H9          3.9569   -2.6663   -1.8129 H         1 <0>         0.2048
     32 H10         4.1329    2.3006   -1.1179 H         1 <0>         0.3687
     33 H11         5.4447    1.5276   -0.8160 H         1 <0>         0.3733
     34 H12        -4.7937    0.3631   -0.3914 H         1 <0>         0.0691
     35 H13        -4.3939   -1.2794    0.1661 H         1 <0>         0.0602
     36 H14        -5.2751    0.0693    1.9297 H         1 <0>         0.3874
     37 H15         0.7246    1.2264   -1.6917 H         1 <0>         0.0880
     38 H16         1.3816    0.6651   -3.2478 H         1 <0>         0.0688
     39 H17         0.3765    2.1328   -3.1835 H         1 <0>         0.0771
@<TRIPOS>BOND
     1    1    2 1
     2    1   27 1
     3    1   28 1
     4    1   29 1
     5    2   13 1
     6    2    3 1
     7    2   26 1
     8    3    4 1
     9    4    5 1
    10    4   11 1
    11    4    6 1
    12    6    7 1
    13    6    8 1
    14    6   24 1
    15    8    9 1
    16    9   10 1
    17    9   11 1
    18    9   14 1
    19   11   12 1
    20   11   13 1
    21   14   18 1
    22   14   15 1
    23   15   16 2
    24   15   30 1
    25   16   17 1
    26   17   22 ar
    27   17   18 ar
    28   18   19 ar
    29   19   20 ar
    30   20   21 ar
    31   20   31 1
    32   21   22 ar
    33   22   23 1
    34   23   32 1
    35   23   33 1
    36   24   25 1
    37   24   34 1
    38   24   35 1
    39   25   36 1
    40   26   37 1
    41   26   38 1
    42   26   39 1
@<TRIPOS>MOLECULE
ZINC03860534
   39    42     0     0     0
SMALL
USER_CHARGES
[4-(6-aminopurin-9-yl)-7,7-dimethyl-3,6,8-trioxabicyclo[3.3.0]oct-2-yl]methanol
@<TRIPOS>ATOM
      1 C1         -5.1998    2.8201   -4.1713 C.3       1 <0>        -0.1650
      2 C2         -4.0905    3.6881   -3.5738 C.3       1 <0>         0.2442
      3 O1         -4.6552    4.9349   -3.0717 O.3       1 <0>        -0.3370
      4 C3         -4.1913    5.0172   -1.7636 C.3       1 <0>         0.0071
      5 H1         -3.1485    5.3337   -1.7851 H         1 <0>         0.0850
      6 C4         -4.8483    5.6244   -0.5625 C.3       1 <0>         0.0886
      7 H2         -4.5035    6.6486   -0.4209 H         1 <0>         0.1225
      8 O2         -4.4395    4.7940    0.5645 O.3       1 <0>        -0.3274
      9 C5         -3.6874    3.6530    0.0576 C.3       1 <0>         0.3173
     10 H3         -3.8931    2.7619    0.6507 H         1 <0>         0.1544
     11 C6         -4.2134    3.4898   -1.3543 C.3       1 <0>        -0.0112
     12 H4         -5.2255    3.0852   -1.3536 H         1 <0>         0.1182
     13 O3         -3.4564    2.9963   -2.4376 O.3       1 <0>        -0.3292
     14 N1         -2.2516    3.9439    0.0447 N.pl3     1 <0>        -0.4806
     15 C7         -1.6792    5.1811    0.0459 C.2       1 <0>         0.2646
     16 N2         -0.3825    5.0711    0.0329 N.2       1 <0>        -0.4591
     17 C8         -0.0413    3.7601    0.0226 C.ar      1 <0>        -0.1026
     18 C9         -1.2364    3.0211    0.0301 C.ar      1 <0>         0.3130
     19 N3         -1.1750    1.6936    0.0170 N.ar      1 <0>        -0.5358
     20 C10        -0.0126    1.0758    0.0080 C.ar      1 <0>         0.3521
     21 N4          1.1361    1.7270    0.0005 N.ar      1 <0>        -0.5486
     22 C11         1.1743    3.0555    0.0073 C.ar      1 <0>         0.4579
     23 N5          2.3831    3.7292   -0.0011 N.pl3     1 <0>        -0.7507
     24 C12        -6.3700    5.5952   -0.7193 C.3       1 <0>         0.0716
     25 O4         -6.9752    6.2811    0.3786 O.3       1 <0>        -0.5635
     26 C13        -3.0364    3.9891   -4.6411 C.3       1 <0>        -0.1558
     27 H5         -5.6606    3.3448   -5.0083 H         1 <0>         0.0849
     28 H6         -4.7759    1.8790   -4.5215 H         1 <0>         0.0866
     29 H7         -5.9532    2.6183   -3.4099 H         1 <0>         0.0673
     30 H8         -2.2218    6.1148    0.0568 H         1 <0>         0.2191
     31 H9          0.0021   -0.0041    0.0020 H         1 <0>         0.2099
     32 H10         2.9118    3.4753    0.8088 H         1 <0>         0.3680
     33 H11         2.3979    4.6991    0.0040 H         1 <0>         0.3832
     34 H12        -6.6486    6.0855   -1.6521 H         1 <0>         0.0722
     35 H13        -6.7138    4.5610   -0.7356 H         1 <0>         0.0544
     36 H14        -7.9414    6.3021    0.3448 H         1 <0>         0.3865
     37 H15        -2.2547    4.6167   -4.2129 H         1 <0>         0.0680
     38 H16        -2.5996    3.0549   -4.9940 H         1 <0>         0.0829
     39 H17        -3.5037    4.5102   -5.4766 H         1 <0>         0.0869
@<TRIPOS>BOND
     1    1    2 1
     2    1   27 1
     3    1   28 1
     4    1   29 1
     5    2   13 1
     6    2    3 1
     7    2   26 1
     8    3    4 1
     9    4    5 1
    10    4   11 1
    11    4    6 1
    12    6    7 1
    13    6    8 1
    14    6   24 1
    15    8    9 1
    16    9   10 1
    17    9   11 1
    18    9   14 1
    19   11   12 1
    20   11   13 1
    21   14   18 1
    22   14   15 1
    23   15   16 2
    24   15   30 1
    25   16   17 1
    26   17   22 ar
    27   17   18 ar
    28   18   19 ar
    29   19   20 ar
    30   20   21 ar
    31   20   31 1
    32   21   22 ar
    33   22   23 1
    34   23   32 1
    35   23   33 1
    36   24   25 1
    37   24   34 1
    38   24   35 1
    39   25   36 1
    40   26   37 1
    41   26   38 1
    42   26   39 1
@<TRIPOS>MOLECULE
ZINC01566904
   28    30     0     0     0
SMALL
USER_CHARGES

@<TRIPOS>ATOM
      1 C1         -0.0158    1.3119    0.0093 C.ar      1 <0>         0.3644
      2 N1          1.0888    2.0360    0.0026 N.ar      1 <0>        -0.5942
      3 C2          2.2875    1.4625   -0.0119 C.ar      1 <0>         0.5092
      4 C3          2.3582    0.0588   -0.0202 C.ar      1 <0>        -0.1135
      5 C4          1.1547   -0.6659   -0.0126 C.ar      1 <0>         0.3009
      6 N2          0.0021   -0.0041    0.0020 N.ar      1 <0>        -0.5608
      7 N3          1.5110   -1.9908   -0.0227 N.pl3     1 <0>        -0.4624
      8 C5          2.8729   -2.0476   -0.0358 C.2       1 <0>         0.2504
      9 N4          3.3680   -0.8441   -0.0343 N.2       1 <0>        -0.4635
     10 C6          0.5956   -3.1347   -0.0195 C.3       1 <0>         0.1334
     11 C7          0.8671   -4.0321   -1.2445 C.3       1 <0>        -0.1348
     12 C8          1.8138   -5.1335   -0.7062 C.3       1 <0>        -0.1288
     13 C9          1.2558   -5.3996    0.7140 C.3       1 <0>        -0.1247
     14 C10         0.8428   -4.0041    1.2258 C.3       1 <0>        -0.1358
     15 N5          3.4393    2.2295   -0.0193 N.pl3     1 <0>        -0.8178
     16 H1         -0.9693    1.8187    0.0257 H         1 <0>         0.2047
     17 H2          3.4551   -2.9572   -0.0459 H         1 <0>         0.2175
     18 H3         -0.4371   -2.7861   -0.0326 H         1 <0>         0.1112
     19 H4         -0.0615   -4.4717   -1.6086 H         1 <0>         0.0892
     20 H5          1.3557   -3.4618   -2.0345 H         1 <0>         0.0759
     21 H6          1.7503   -6.0316   -1.3206 H         1 <0>         0.0771
     22 H7          2.8402   -4.7701   -0.6562 H         1 <0>         0.0688
     23 H8          0.3901   -6.0600    0.6662 H         1 <0>         0.0736
     24 H9          2.0282   -5.8271    1.3534 H         1 <0>         0.0737
     25 H10         1.6438   -3.5750    1.8277 H         1 <0>         0.0753
     26 H11        -0.0702   -4.0782    1.8166 H         1 <0>         0.0817
     27 H12         3.3774    3.1975   -0.0138 H         1 <0>         0.4106
     28 H13         4.3085    1.7992   -0.0299 H         1 <0>         0.4188
@<TRIPOS>BOND
     1    1    6 ar
     2    1    2 ar
     3    1   16 1
     4    2    3 ar
     5    3    4 ar
     6    3   15 1
     7    4    9 1
     8    4    5 ar
     9    5    6 ar
    10    5    7 1
    11    7    8 1
    12    7   10 1
    13    8    9 2
    14    8   17 1
    15   10   14 1
    16   10   11 1
    17   10   18 1
    18   11   12 1
    19   11   19 1
    20   11   20 1
    21   12   13 1
    22   12   21 1
    23   12   22 1
    24   13   14 1
    25   13   23 1
    26   13   24 1
    27   14   25 1
    28   14   26 1
    29   15   27 1
    30   15   28 1
@<TRIPOS>MOLECULE
ZINC00012513
   31    33     0     0     0
SMALL
USER_CHARGES
9-cyclohexylpurin-6-amine
@<TRIPOS>ATOM
      1 C1          0.5056    5.6712    4.7403 C.ar      1 <0>         0.3454
      2 N1         -0.4224    5.8792    5.6568 N.ar      1 <0>        -0.5764
      3 C2         -1.6373    5.3542    5.5375 C.ar      1 <0>         0.4477
      4 C3         -1.9186    4.5667    4.4079 C.ar      1 <0>        -0.0709
      5 C4         -0.8978    4.3755    3.4619 C.ar      1 <0>         0.2898
      6 N2          0.2874    4.9413    3.6670 N.ar      1 <0>        -0.5384
      7 N3         -1.4353    3.5815    2.4806 N.pl3     1 <0>        -0.4667
      8 C5         -2.7263    3.3178    2.8299 C.2       1 <0>         0.2603
      9 N4         -3.0062    3.8922    3.9636 N.2       1 <0>        -0.4566
     10 C6         -0.7496    3.1091    1.2752 C.3       1 <0>         0.1397
     11 C7         -0.7288    1.5792    1.2668 C.3       1 <0>        -0.1282
     12 C8         -0.0127    1.0858    0.0080 C.3       1 <0>        -0.1164
     13 C9         -0.7527    1.5927   -1.2315 C.3       1 <0>        -0.1245
     14 C10        -0.7734    3.1225   -1.2231 C.3       1 <0>        -0.1163
     15 C11        -1.4896    3.6159    0.0357 C.3       1 <0>        -0.1279
     16 N5         -2.6032    5.5781    6.5029 N.pl3     1 <0>        -0.7440
     17 H1          1.4798    6.1171    4.8764 H         1 <0>         0.2057
     18 H2         -3.4143    2.7182    2.2524 H         1 <0>         0.2214
     19 H3          0.2730    3.4864    1.2675 H         1 <0>         0.1087
     20 H4         -1.7514    1.2020    1.2746 H         1 <0>         0.0733
     21 H5         -0.2017    1.2182    2.1499 H         1 <0>         0.0709
     22 H6          0.0021   -0.0041    0.0020 H         1 <0>         0.0729
     23 H7          1.0099    1.4631    0.0003 H         1 <0>         0.0677
     24 H8         -0.2425    1.2411   -2.1283 H         1 <0>         0.0692
     25 H9         -1.7753    1.2154   -1.2238 H         1 <0>         0.0660
     26 H10         0.2491    3.4998   -1.2308 H         1 <0>         0.0678
     27 H11        -1.3006    3.4836   -2.1062 H         1 <0>         0.0728
     28 H12        -1.5044    4.7058    0.0417 H         1 <0>         0.0707
     29 H13        -2.5122    3.2386    0.0434 H         1 <0>         0.0733
     30 H14        -3.3895    6.0358    6.0878 H         1 <0>         0.3695
     31 H15        -2.3969    6.1235    7.2781 H         1 <0>         0.3733
@<TRIPOS>BOND
     1    1    6 ar
     2    1    2 ar
     3    1   17 1
     4    2    3 ar
     5    3    4 ar
     6    3   16 1
     7    4    9 1
     8    4    5 ar
     9    5    6 ar
    10    5    7 1
    11    7    8 1
    12    7   10 1
    13    8    9 2
    14    8   18 1
    15   10   15 1
    16   10   11 1
    17   10   19 1
    18   11   12 1
    19   11   20 1
    20   11   21 1
    21   12   13 1
    22   12   22 1
    23   12   23 1
    24   13   14 1
    25   13   24 1
    26   13   25 1
    27   14   15 1
    28   14   26 1
    29   14   27 1
    30   15   28 1
    31   15   29 1
    32   16   30 1
    33   16   31 1
