@<TRIPOS>MOLECULE
ZINC37858692
   37    40     0     0     0
SMALL
USER_CHARGES

@<TRIPOS>ATOM
      1 C1          0.0269    1.2799   -0.9668 C.ar      1 <0>        -0.0753
      2 C2          1.2108    2.0132   -0.9686 C.ar      1 <0>        -0.0973
      3 C3          2.4101    1.4061   -0.7479 C.ar      1 <0>        -0.0938
      4 C4          2.4567    0.0226   -0.5147 C.ar      1 <0>        -0.0622
      5 C5          1.2528   -0.7240   -0.5122 C.ar      1 <0>         0.0009
      6 C6          0.0352   -0.0637   -0.7441 C.ar      1 <0>        -0.1062
      7 C7          1.2900   -2.1132   -0.2795 C.ar      1 <0>        -0.0878
      8 C8          2.4732   -2.7373   -0.0581 C.ar      1 <0>        -0.0669
      9 C9          3.6796   -2.0136   -0.0560 C.ar      1 <0>        -0.1476
     10 C10         3.6813   -0.6374   -0.2832 C.ar      1 <0>         0.1811
     11 O1          4.8431    0.0485   -0.2803 O.3       1 <0>        -0.2137
     12 C11         6.0240   -0.5614   -0.0619 C.2       1 <0>         0.5100
     13 C12         6.1020   -1.9513    0.1750 C.2       1 <0>        -0.3865
     14 C13         4.9612   -2.6969    0.1855 C.2       1 <0>         0.3406
     15 O2          5.0054   -4.0316    0.4105 O.3       1 <0>        -0.4171
     16 N1          7.1259    0.1513   -0.0699 N.pl3     1 <0>        -0.4977
     17 C14         8.4458   -0.4935    0.0163 C.3       1 <0>         0.0537
     18 C15         9.3250    0.0516   -1.1149 C.3       1 <0>         0.0434
     19 O3          9.3127    1.4806   -1.0738 O.3       1 <0>        -0.3613
     20 C16         8.0240    2.0611   -1.2883 C.3       1 <0>         0.0446
     21 C17         7.0783    1.6186   -0.1716 C.3       1 <0>         0.0409
     22 H1         -0.9120    1.7848   -1.1402 H         1 <0>         0.1433
     23 H2          1.1777    3.0778   -1.1478 H         1 <0>         0.1419
     24 H3          3.3209    1.9864   -0.7527 H         1 <0>         0.1366
     25 H4         -0.8909   -0.6193   -0.7460 H         1 <0>         0.1493
     26 H5          0.3725   -2.6829   -0.2771 H         1 <0>         0.1562
     27 H6          2.4896   -3.8025    0.1192 H         1 <0>         0.1571
     28 H7          7.0594   -2.4202    0.3478 H         1 <0>         0.1882
     29 H8          8.9033   -0.2659    0.9791 H         1 <0>         0.1238
     30 H9          8.3350   -1.5724   -0.0922 H         1 <0>         0.1220
     31 H10        10.3463   -0.3075   -0.9875 H         1 <0>         0.1344
     32 H11         8.9358   -0.2884   -2.0746 H         1 <0>         0.0713
     33 H12         8.1092    3.1478   -1.2856 H         1 <0>         0.1323
     34 H13         7.6300    1.7284   -2.2486 H         1 <0>         0.0698
     35 H14         6.0623    1.9376   -0.4045 H         1 <0>         0.1192
     36 H15         7.3958    2.0624    0.7719 H         1 <0>         0.1209
     37 H16         5.8969   -4.3765    0.5569 H         1 <0>         0.4319
@<TRIPOS>BOND
     1    1    6 ar
     2    1    2 ar
     3    1   22 1
     4    2    3 ar
     5    2   23 1
     6    3    4 ar
     7    3   24 1
     8    4   10 ar
     9    4    5 ar
    10    5    6 ar
    11    5    7 ar
    12    6   25 1
    13    7    8 ar
    14    7   26 1
    15    8    9 ar
    16    8   27 1
    17    9   14 1
    18    9   10 ar
    19   10   11 1
    20   11   12 1
    21   12   13 1
    22   12   16 2
    23   13   14 2
    24   13   28 1
    25   14   15 1
    26   15   37 1
    27   16   21 1
    28   16   17 1
    29   17   18 1
    30   17   29 1
    31   17   30 1
    32   18   19 1
    33   18   31 1
    34   18   32 1
    35   19   20 1
    36   20   21 1
    37   20   33 1
    38   20   34 1
    39   21   35 1
    40   21   36 1
@<TRIPOS>MOLECULE
ZINC37858692
   36    39     0     0     0
SMALL
USER_CHARGES

@<TRIPOS>ATOM
      1 C1         -0.0027    1.3314   -0.5809 C.ar      1 <0>        -0.0957
      2 C2          1.1814    2.0639   -0.5824 C.ar      1 <0>        -0.1189
      3 C3          2.3878    1.4437   -0.4550 C.ar      1 <0>        -0.0885
      4 C4          2.4414    0.0480   -0.3203 C.ar      1 <0>        -0.0638
      5 C5          1.2377   -0.6980   -0.3186 C.ar      1 <0>        -0.0077
      6 C6          0.0127   -0.0245   -0.4520 C.ar      1 <0>        -0.1117
      7 C7          1.2810   -2.1004   -0.1848 C.ar      1 <0>        -0.1294
      8 C8          2.4713   -2.7380   -0.0577 C.ar      1 <0>        -0.0442
      9 C9          3.6757   -2.0151   -0.0567 C.ar      1 <0>        -0.2125
     10 C10         3.6738   -0.6264   -0.1867 C.ar      1 <0>         0.1717
     11 O1          4.8376    0.0519   -0.1847 O.3       1 <0>        -0.2410
     12 C11         6.0234   -0.5588   -0.0603 C.2       1 <0>         0.4275
     13 C12         6.1365   -1.9100    0.0731 C.2       1 <0>        -0.3910
     14 C13         4.9739   -2.7047    0.0820 C.2       1 <0>         0.4293
     15 O2          5.0371   -3.9184    0.1993 O.2       1 <0>        -0.4888
     16 N1          7.1643    0.2032   -0.0680 N.pl3     1 <0>        -0.6067
     17 C14         8.4220   -0.3216   -0.6231 C.3       1 <0>         0.0934
     18 C15         8.9802    0.7073   -1.6128 C.3       1 <0>         0.0439
     19 O3          9.0521    1.9841   -0.9739 O.3       1 <0>        -0.3748
     20 C16         7.7856    2.5064   -0.5653 C.3       1 <0>         0.0447
     21 C17         7.1648    1.5716    0.4730 C.3       1 <0>         0.0804
     22 H1         -0.9471    1.8460   -0.6788 H         1 <0>         0.1304
     23 H2          1.1431    3.1382   -0.6864 H         1 <0>         0.1299
     24 H3          3.2989    2.0237   -0.4581 H         1 <0>         0.1312
     25 H4         -0.9138   -0.5795   -0.4529 H         1 <0>         0.1369
     26 H5          0.3631   -2.6694   -0.1831 H         1 <0>         0.1399
     27 H6          2.4933   -3.8129    0.0443 H         1 <0>         0.1431
     28 H7          7.1097   -2.3679    0.1714 H         1 <0>         0.1553
     29 H8          9.1391   -0.4835    0.1817 H         1 <0>         0.0892
     30 H9          8.2310   -1.2621   -1.1399 H         1 <0>         0.1019
     31 H10         9.9772    0.4027   -1.9311 H         1 <0>         0.1148
     32 H11         8.3238    0.7710   -2.4807 H         1 <0>         0.0592
     33 H12         7.9232    3.4961   -0.1299 H         1 <0>         0.1116
     34 H13         7.1249    2.5766   -1.4294 H         1 <0>         0.0585
     35 H14         6.1417    1.8843    0.6816 H         1 <0>         0.0958
     36 H15         7.7532    1.6036    1.3900 H         1 <0>         0.0861
@<TRIPOS>BOND
     1    1    6 ar
     2    1    2 ar
     3    1   22 1
     4    2    3 ar
     5    2   23 1
     6    3    4 ar
     7    3   24 1
     8    4   10 ar
     9    4    5 ar
    10    5    6 ar
    11    5    7 ar
    12    6   25 1
    13    7    8 ar
    14    7   26 1
    15    8    9 ar
    16    8   27 1
    17    9   14 1
    18    9   10 ar
    19   10   11 1
    20   11   12 1
    21   12   13 2
    22   12   16 1
    23   13   14 1
    24   13   28 1
    25   14   15 2
    26   16   21 1
    27   16   17 1
    28   17   18 1
    29   17   29 1
    30   17   30 1
    31   18   19 1
    32   18   31 1
    33   18   32 1
    34   19   20 1
    35   20   21 1
    36   20   33 1
    37   20   34 1
    38   21   35 1
    39   21   36 1
@<TRIPOS>MOLECULE
ZINC20148984
   41    45     0     0     0
SMALL
USER_CHARGES
1-cyclopentyl-3-(1H-pyrrolo[3,2-e]pyridin-5-yl)pyrazolo[4,5-e]pyrimidin-4-amine
@<TRIPOS>ATOM
      1 C1          4.4845    4.9055    2.0125 C.2       1 <0>        -0.1900
      2 C2          5.5992    4.3307    1.5348 C.2       1 <0>         0.0669
      3 N1          5.2848    3.4893    0.5015 N.pl3     1 <0>        -0.5784
      4 H1          5.9256    2.9627   -0.0014 H         1 <0>         0.4233
      5 C3          3.9281    3.5001    0.2812 C.ar      1 <0>         0.2921
      6 C4          3.3669    4.3889    1.2195 C.ar      1 <0>        -0.1505
      7 C5          1.9890    4.6049    1.2249 C.ar      1 <0>         0.0123
      8 C6          1.2154    3.9130    0.2940 C.ar      1 <0>        -0.1086
      9 C7          1.8449    3.0477   -0.6050 C.ar      1 <0>         0.1517
     10 N2          3.1471    2.8701   -0.5872 N.ar      1 <0>        -0.4865
     11 C8         -0.2553    4.0974    0.2542 C.2       1 <0>         0.1769
     12 C9         -1.2579    3.0400    0.1283 C.ar      1 <0>        -0.3246
     13 C10        -1.2161    1.6416    0.0009 C.ar      1 <0>         0.5185
     14 N3         -2.3661    0.9828   -0.1017 N.ar      1 <0>        -0.6042
     15 C11        -3.5224    1.6223   -0.0898 C.ar      1 <0>         0.3863
     16 N4         -3.6100    2.9293    0.0228 N.ar      1 <0>        -0.5738
     17 C12        -2.5123    3.6779    0.1313 C.ar      1 <0>         0.3755
     18 N5         -2.2765    5.0144    0.2581 N.pl3     1 <0>        -0.3684
     19 N6         -0.8976    5.2388    0.3304 N.2       1 <0>        -0.2292
     20 C13        -3.3071    6.0542    0.3110 C.3       1 <0>         0.1632
     21 C14        -3.0862    7.0753   -0.8240 C.3       1 <0>        -0.1330
     22 C15        -3.4640    8.4369   -0.1879 C.3       1 <0>        -0.1220
     23 C16        -2.9184    8.3038    1.2556 C.3       1 <0>        -0.1210
     24 C17        -3.2009    6.8348    1.6328 C.3       1 <0>        -0.1322
     25 N7         -0.0104    0.9674   -0.0117 N.pl3     1 <0>        -0.8291
     26 H2          4.4234    5.6137    2.8256 H         1 <0>         0.1556
     27 H3          6.5967    4.5059    1.9100 H         1 <0>         0.1829
     28 H4          1.5348    5.2845    1.9308 H         1 <0>         0.1424
     29 H5          1.2485    2.5132   -1.3297 H         1 <0>         0.1671
     30 H6         -4.4328    1.0478   -0.1756 H         1 <0>         0.2050
     31 H7         -4.2959    5.6044    0.2215 H         1 <0>         0.1144
     32 H8         -2.0422    7.0775   -1.1374 H         1 <0>         0.0814
     33 H9         -3.7386    6.8539   -1.6687 H         1 <0>         0.0742
     34 H10        -4.5455    8.5726   -0.1810 H         1 <0>         0.0720
     35 H11        -2.9740    9.2575   -0.7119 H         1 <0>         0.0733
     36 H12        -3.4484    8.9788    1.9276 H         1 <0>         0.0704
     37 H13        -1.8473    8.5043    1.2786 H         1 <0>         0.0705
     38 H14        -4.1384    6.7646    2.1843 H         1 <0>         0.0772
     39 H15        -2.3825    6.4400    2.2349 H         1 <0>         0.0748
     40 H16         0.0305    0.0526   -0.3317 H         1 <0>         0.4120
     41 H17         0.7961    1.4102    0.2956 H         1 <0>         0.4116
@<TRIPOS>BOND
     1    1    6 1
     2    1    2 2
     3    1   26 1
     4    2    3 1
     5    2   27 1
     6    3    4 1
     7    3    5 1
     8    5   10 ar
     9    5    6 ar
    10    6    7 ar
    11    7    8 ar
    12    7   28 1
    13    8    9 ar
    14    8   11 1
    15    9   10 ar
    16    9   29 1
    17   11   19 2
    18   11   12 1
    19   12   17 ar
    20   12   13 ar
    21   13   14 ar
    22   13   25 1
    23   14   15 ar
    24   15   16 ar
    25   15   30 1
    26   16   17 ar
    27   17   18 1
    28   18   19 1
    29   18   20 1
    30   20   24 1
    31   20   21 1
    32   20   31 1
    33   21   22 1
    34   21   32 1
    35   21   33 1
    36   22   23 1
    37   22   34 1
    38   22   35 1
    39   23   24 1
    40   23   36 1
    41   23   37 1
    42   24   38 1
    43   24   39 1
    44   25   40 1
    45   25   41 1
@<TRIPOS>MOLECULE
ZINC43202843
   62    66     0     0     0
SMALL
USER_CHARGES

@<TRIPOS>ATOM
      1 C1          0.0663    1.5038    0.0112 C.3       1 <0>        -0.1003
      2 C2          0.0824   -0.0031    0.0029 C.2       1 <0>        -0.1188
      3 C3          0.1212   -0.6676   -1.1675 C.2       1 <0>        -0.0899
      4 S1          0.1260   -2.3778   -0.6558 S.3       1 <0>         0.1038
      5 C4          0.0759   -2.1184    1.0972 C.ar      1 <0>        -0.3084
      6 C5          0.0627   -0.7114    1.2178 C.ar      1 <0>         0.2180
      7 N1          0.0284   -0.2311    2.4843 N.ar      1 <0>        -0.5330
      8 C6          0.0134   -1.0391    3.5231 C.ar      1 <0>         0.4334
      9 N2          0.0307   -2.3645    3.4179 N.ar      1 <0>        -0.5664
     10 C7          0.0546   -2.9360    2.2150 C.ar      1 <0>         0.5100
     11 N3          0.0727   -4.3152    2.0853 N.pl3     1 <0>        -0.5948
     12 C8          0.1949   -5.1855    3.2656 C.3       1 <0>         0.0867
     13 C9         -0.9159   -6.2403    3.2056 C.3       1 <0>         0.0450
     14 O1         -0.8807   -6.8890    1.9321 O.3       1 <0>        -0.3749
     15 C10        -1.1300   -6.0193    0.8251 C.3       1 <0>         0.0494
     16 C11        -0.0359   -4.9533    0.7637 C.3       1 <0>         0.0888
     17 C12        -0.0242   -0.4414    4.8790 C.ar      1 <0>        -0.2179
     18 C13        -0.0357   -1.2505    6.0189 C.ar      1 <0>         0.2462
     19 N4         -0.0694   -0.6801    7.2097 N.ar      1 <0>        -0.5746
     20 C14        -0.0922    0.6398    7.3314 C.ar      1 <0>         0.5760
     21 N5         -0.0823    1.4402    6.2746 N.ar      1 <0>        -0.5738
     22 C15        -0.0432    0.9459    5.0504 C.ar      1 <0>         0.2480
     23 N6         -0.1278    1.1973    8.5958 N.pl3     1 <0>        -0.8132
     24 C16         0.1522   -0.1059   -2.5656 C.3       1 <0>         0.1316
     25 N7          1.5466    0.0925   -2.9829 N.3       1 <0>        -0.5299
     26 C17         2.1978    1.1271   -2.1683 C.3       1 <0>         0.0340
     27 C18         3.6909    1.1766   -2.5096 C.3       1 <0>         0.1221
     28 N8          3.8323    1.3491   -3.9634 N.pl3     1 <0>        -1.0029
     29 C19         3.0971    0.4323   -4.8477 C.3       1 <0>         0.1225
     30 C20         1.6274    0.4121   -4.4144 C.3       1 <0>         0.0445
     31 S2          4.7944    2.5435   -4.5879 S.o2      1 <0>         2.6089
     32 O2          4.2447    2.8191   -5.8690 O.2       1 <0>        -0.9540
     33 O3          4.8259    3.5468   -3.5821 O.2       1 <0>        -0.9534
     34 C21         6.4312    1.7809   -4.7612 C.3       1 <0>        -0.6726
     35 H1          1.0897    1.8780    0.0366 H         1 <0>         0.0749
     36 H2         -0.4310    1.8668   -0.8883 H         1 <0>         0.0654
     37 H3         -0.4715    1.8565    0.8912 H         1 <0>         0.0774
     38 H4          1.1680   -5.6765    3.2605 H         1 <0>         0.0789
     39 H5          0.0878   -4.5909    4.1728 H         1 <0>         0.1103
     40 H6         -0.7613   -6.9771    3.9938 H         1 <0>         0.1116
     41 H7         -1.8838   -5.7579    3.3418 H         1 <0>         0.0584
     42 H8         -1.1294   -6.5970   -0.0991 H         1 <0>         0.1139
     43 H9         -2.0987   -5.5361    0.9527 H         1 <0>         0.0589
     44 H10        -0.2957   -4.2049    0.0150 H         1 <0>         0.0896
     45 H11         0.9136   -5.4204    0.5025 H         1 <0>         0.0879
     46 H12        -0.0176   -2.3264    5.9272 H         1 <0>         0.1785
     47 H13        -0.0306    1.6039    4.1940 H         1 <0>         0.1811
     48 H14        -0.1357    0.6242    9.3784 H         1 <0>         0.4169
     49 H15        -0.1448    2.1615    8.7005 H         1 <0>         0.4172
     50 H16        -0.3357   -0.8021   -3.2478 H         1 <0>         0.0990
     51 H17        -0.3723    0.8495   -2.5849 H         1 <0>         0.0678
     52 H18         1.7441    2.0954   -2.3795 H         1 <0>         0.0474
     53 H19         2.0739    0.8896   -1.1117 H         1 <0>         0.0961
     54 H20         4.1566    2.0165   -1.9942 H         1 <0>         0.0994
     55 H21         4.1676    0.2454   -2.2033 H         1 <0>         0.0774
     56 H22         3.1702    0.7802   -5.8781 H         1 <0>         0.1006
     57 H23         3.5167   -0.5704   -4.7662 H         1 <0>         0.0789
     58 H24         1.0897   -0.3439   -4.9867 H         1 <0>         0.0923
     59 H25         1.1816    1.3904   -4.5943 H         1 <0>         0.0468
     60 H26         6.3639    0.9250   -5.4327 H         1 <0>         0.1277
     61 H27         7.1302    2.5100   -5.1709 H         1 <0>         0.1283
     62 H28         6.7829    1.4495   -3.7842 H         1 <0>         0.1275
@<TRIPOS>BOND
     1    1    2 1
     2    1   35 1
     3    1   36 1
     4    1   37 1
     5    2    6 1
     6    2    3 2
     7    3    4 1
     8    3   24 1
     9    4    5 1
    10    5   10 ar
    11    5    6 ar
    12    6    7 ar
    13    7    8 ar
    14    8    9 ar
    15    8   17 1
    16    9   10 ar
    17   10   11 1
    18   11   16 1
    19   11   12 1
    20   12   13 1
    21   12   38 1
    22   12   39 1
    23   13   14 1
    24   13   40 1
    25   13   41 1
    26   14   15 1
    27   15   16 1
    28   15   42 1
    29   15   43 1
    30   16   44 1
    31   16   45 1
    32   17   22 ar
    33   17   18 ar
    34   18   19 ar
    35   18   46 1
    36   19   20 ar
    37   20   21 ar
    38   20   23 1
    39   21   22 ar
    40   22   47 1
    41   23   48 1
    42   23   49 1
    43   24   25 1
    44   24   50 1
    45   24   51 1
    46   25   30 1
    47   25   26 1
    48   26   27 1
    49   26   52 1
    50   26   53 1
    51   27   28 1
    52   27   54 1
    53   27   55 1
    54   28   29 1
    55   28   31 1
    56   29   30 1
    57   29   56 1
    58   29   57 1
    59   30   58 1
    60   30   59 1
    61   31   32 2
    62   31   33 2
    63   31   34 1
    64   34   60 1
    65   34   61 1
    66   34   62 1
@<TRIPOS>MOLECULE
ZINC43202843
   63    67     0     0     0
SMALL
USER_CHARGES

@<TRIPOS>ATOM
      1 C1          0.0663    1.5038    0.0112 C.3       1 <0>        -0.1242
      2 C2          0.0824   -0.0031    0.0029 C.2       1 <0>        -0.0388
      3 C3          0.1212   -0.6676   -1.1675 C.2       1 <0>        -0.2275
      4 S1          0.1260   -2.3778   -0.6558 S.3       1 <0>         0.1269
      5 C4          0.0759   -2.1184    1.0972 C.ar      1 <0>        -0.2903
      6 C5          0.0627   -0.7114    1.2178 C.ar      1 <0>         0.1970
      7 N1          0.0284   -0.2311    2.4843 N.ar      1 <0>        -0.5281
      8 C6          0.0134   -1.0391    3.5231 C.ar      1 <0>         0.4529
      9 N2          0.0307   -2.3645    3.4179 N.ar      1 <0>        -0.5514
     10 C7          0.0546   -2.9360    2.2150 C.ar      1 <0>         0.5109
     11 N3          0.0727   -4.3152    2.0853 N.pl3     1 <0>        -0.5893
     12 C8          0.1949   -5.1855    3.2656 C.3       1 <0>         0.0831
     13 C9         -0.9159   -6.2403    3.2056 C.3       1 <0>         0.0435
     14 O1         -0.8807   -6.8890    1.9321 O.3       1 <0>        -0.3700
     15 C10        -1.1300   -6.0193    0.8251 C.3       1 <0>         0.0481
     16 C11        -0.0359   -4.9533    0.7637 C.3       1 <0>         0.0915
     17 C12        -0.0242   -0.4414    4.8790 C.ar      1 <0>        -0.2377
     18 C13        -0.0357   -1.2505    6.0189 C.ar      1 <0>         0.2547
     19 N4         -0.0694   -0.6801    7.2097 N.ar      1 <0>        -0.5723
     20 C14        -0.0922    0.6398    7.3314 C.ar      1 <0>         0.5850
     21 N5         -0.0823    1.4402    6.2746 N.ar      1 <0>        -0.5733
     22 C15        -0.0432    0.9459    5.0504 C.ar      1 <0>         0.2547
     23 N6         -0.1278    1.1973    8.5958 N.pl3     1 <0>        -0.8063
     24 C16         0.1522   -0.1059   -2.5656 C.3       1 <0>         0.0916
     25 N7          1.5466    0.0925   -2.9829 N.4       1 <0>        -0.3826
     26 C17         2.1706    1.1118   -2.1298 C.3       1 <0>        -0.0315
     27 C18         3.6551    1.2374   -2.4883 C.3       1 <0>         0.0947
     28 N8          3.7655    1.5025   -3.9311 N.pl3     1 <0>        -1.0164
     29 C19         3.0341    0.6225   -4.8557 C.3       1 <0>         0.0931
     30 C20         1.5790    0.5260   -4.3854 C.3       1 <0>        -0.0189
     31 S2          4.6867    2.7563   -4.4984 S.o2      1 <0>         2.6061
     32 O2          4.1063    3.0952   -5.7503 O.2       1 <0>        -0.9392
     33 O3          4.7135    3.6971   -3.4338 O.2       1 <0>        -0.9389
     34 C21         6.3376    2.0467   -4.7468 C.3       1 <0>        -0.6665
     35 H1          1.0897    1.8780    0.0366 H         1 <0>         0.0853
     36 H2         -0.4310    1.8668   -0.8883 H         1 <0>         0.0739
     37 H3         -0.4715    1.8565    0.8912 H         1 <0>         0.0967
     38 H4          1.1680   -5.6765    3.2605 H         1 <0>         0.0853
     39 H5          0.0878   -4.5909    4.1728 H         1 <0>         0.1137
     40 H6         -0.7613   -6.9771    3.9938 H         1 <0>         0.1174
     41 H7         -1.8838   -5.7579    3.3418 H         1 <0>         0.0612
     42 H8         -1.1294   -6.5970   -0.0991 H         1 <0>         0.1165
     43 H9         -2.0987   -5.5361    0.9527 H         1 <0>         0.0609
     44 H10        -0.2957   -4.2049    0.0150 H         1 <0>         0.0810
     45 H11         0.9136   -5.4204    0.5025 H         1 <0>         0.0928
     46 H12        -0.0176   -2.3264    5.9272 H         1 <0>         0.1791
     47 H13        -0.0306    1.6039    4.1940 H         1 <0>         0.1798
     48 H14        -0.1357    0.6242    9.3784 H         1 <0>         0.4202
     49 H15        -0.1448    2.1615    8.7005 H         1 <0>         0.4199
     50 H16        -0.3357   -0.8021   -3.2478 H         1 <0>         0.1511
     51 H17        -0.3723    0.8495   -2.5849 H         1 <0>         0.1515
     52 H18         1.6762    2.0703   -2.2879 H         1 <0>         0.1415
     53 H19         2.0727    0.8202   -1.0841 H         1 <0>         0.1454
     54 H20         4.0984    2.0615   -1.9295 H         1 <0>         0.1409
     55 H21         4.1702    0.3078   -2.2462 H         1 <0>         0.0984
     56 H22         3.0669    1.0402   -5.8619 H         1 <0>         0.1422
     57 H23         3.4866   -0.3691   -4.8526 H         1 <0>         0.0994
     58 H24         1.0451   -0.1973   -5.0018 H         1 <0>         0.1485
     59 H25         1.1025    1.5022   -4.4752 H         1 <0>         0.1402
     60 H26         6.2780    1.2316   -5.4680 H         1 <0>         0.1318
     61 H27         7.0111    2.8165   -5.1234 H         1 <0>         0.1387
     62 H28         6.7157    1.6655   -3.7982 H         1 <0>         0.1315
     63 H29         2.0513   -0.7762   -2.8889 H         1 <0>         0.4243
@<TRIPOS>BOND
     1    1    2 1
     2    1   35 1
     3    1   36 1
     4    1   37 1
     5    2    6 1
     6    2    3 2
     7    3    4 1
     8    3   24 1
     9    4    5 1
    10    5   10 ar
    11    5    6 ar
    12    6    7 ar
    13    7    8 ar
    14    8    9 ar
    15    8   17 1
    16    9   10 ar
    17   10   11 1
    18   11   16 1
    19   11   12 1
    20   12   13 1
    21   12   38 1
    22   12   39 1
    23   13   14 1
    24   13   40 1
    25   13   41 1
    26   14   15 1
    27   15   16 1
    28   15   42 1
    29   15   43 1
    30   16   44 1
    31   16   45 1
    32   17   22 ar
    33   17   18 ar
    34   18   19 ar
    35   18   46 1
    36   19   20 ar
    37   20   21 ar
    38   20   23 1
    39   21   22 ar
    40   22   47 1
    41   23   48 1
    42   23   49 1
    43   24   25 1
    44   24   50 1
    45   24   51 1
    46   25   30 1
    47   25   26 1
    48   25   63 1
    49   26   27 1
    50   26   52 1
    51   26   53 1
    52   27   28 1
    53   27   54 1
    54   27   55 1
    55   28   29 1
    56   28   31 1
    57   29   30 1
    58   29   56 1
    59   29   57 1
    60   30   58 1
    61   30   59 1
    62   31   32 2
    63   31   33 2
    64   31   34 1
    65   34   60 1
    66   34   61 1
    67   34   62 1
@<TRIPOS>MOLECULE
ZINC03841590
   49    53     0     0     0
SMALL
USER_CHARGES

@<TRIPOS>ATOM
      1 C1         -0.0184    1.5028    0.0103 C.3       1 <0>        -0.1219
      2 C2          0.0021   -0.0041    0.0020 C.ar      1 <0>        -0.0589
      3 C3          0.0057   -0.6889   -1.1976 C.ar      1 <0>        -0.1097
      4 C4          0.0240   -2.0714   -1.2060 C.ar      1 <0>        -0.0940
      5 C5          0.0391   -2.7729   -0.0142 C.ar      1 <0>        -0.1139
      6 C6          0.0360   -2.0941    1.1883 C.ar      1 <0>        -0.0959
      7 C7          0.0230   -0.7054    1.2001 C.ar      1 <0>         0.0867
      8 N1          0.0252   -0.0139    2.4181 N.am      1 <0>        -0.4932
      9 C8         -1.1552    0.2981    3.0185 C.2       1 <0>         0.3750
     10 N2         -1.2352    0.9368    4.1461 N.2       1 <0>        -0.4934
     11 C9         -0.1264    1.3428    4.8137 C.ar      1 <0>         0.1556
     12 C10        -0.2121    2.0293    6.0267 C.ar      1 <0>        -0.1122
     13 C11         0.9394    2.4224    6.6706 C.ar      1 <0>        -0.0657
     14 C12         2.1878    2.1449    6.1288 C.ar      1 <0>        -0.1389
     15 C13         2.2984    1.4695    4.9333 C.ar      1 <0>        -0.0025
     16 C14         1.1450    1.0622    4.2656 C.ar      1 <0>        -0.1956
     17 C15         1.2016    0.3332    2.9902 C.2       1 <0>         0.5548
     18 O1          2.2652    0.0560    2.4671 O.2       1 <0>        -0.4870
     19 C16         3.6567    1.1732    4.3517 C.3       1 <0>        -0.1340
     20 C17        -2.4348   -0.1182    2.3400 C.3       1 <0>         0.1703
     21 N3         -3.5785    0.3125    3.1479 N.pl3     1 <0>        -0.4573
     22 C18        -4.2410   -0.4383    4.0728 C.2       1 <0>         0.2625
     23 N4         -5.2049    0.2574    4.6024 N.2       1 <0>        -0.4579
     24 C19        -5.2222    1.4954    4.0526 C.ar      1 <0>        -0.1083
     25 C20        -4.1754    1.5474    3.1166 C.ar      1 <0>         0.3219
     26 N5         -3.9732    2.6705    2.4354 N.ar      1 <0>        -0.5590
     27 C21        -4.7389    3.7227    2.6340 C.ar      1 <0>         0.3651
     28 N6         -5.7319    3.7226    3.5044 N.ar      1 <0>        -0.5932
     29 C22        -6.0154    2.6424    4.2251 C.ar      1 <0>         0.5085
     30 N7         -7.0574    2.6522    5.1358 N.pl3     1 <0>        -0.8186
     31 H1          1.0042    1.8801    0.0026 H         1 <0>         0.0773
     32 H2         -0.5455    1.8639   -0.8728 H         1 <0>         0.0794
     33 H3         -0.5286    1.8543    0.9071 H         1 <0>         0.0628
     34 H4         -0.0060   -0.1439   -2.1299 H         1 <0>         0.1346
     35 H5          0.0261   -2.6045   -2.1453 H         1 <0>         0.1328
     36 H6          0.0529   -3.8528   -0.0241 H         1 <0>         0.1344
     37 H7          0.0478   -2.6425    2.1186 H         1 <0>         0.1282
     38 H8         -1.1773    2.2510    6.4576 H         1 <0>         0.1367
     39 H9          0.8712    2.9535    7.6085 H         1 <0>         0.1365
     40 H10         3.0796    2.4617    6.6491 H         1 <0>         0.1354
     41 H11         4.0063    0.2081    4.7184 H         1 <0>         0.0772
     42 H12         3.5881    1.1456    3.2642 H         1 <0>         0.0986
     43 H13         4.3581    1.9517    4.6518 H         1 <0>         0.0680
     44 H14        -2.4910    0.3448    1.3548 H         1 <0>         0.1278
     45 H15        -2.4532   -1.2028    2.2333 H         1 <0>         0.1299
     46 H16        -4.0016   -1.4600    4.3282 H         1 <0>         0.2198
     47 H17        -4.5476    4.6198    2.0639 H         1 <0>         0.2022
     48 H18        -7.2474    1.8611    5.6640 H         1 <0>         0.4187
     49 H19        -7.5978    3.4502    5.2458 H         1 <0>         0.4102
@<TRIPOS>BOND
     1    1    2 1
     2    1   31 1
     3    1   32 1
     4    1   33 1
     5    2    7 ar
     6    2    3 ar
     7    3    4 ar
     8    3   34 1
     9    4    5 ar
    10    4   35 1
    11    5    6 ar
    12    5   36 1
    13    6    7 ar
    14    6   37 1
    15    7    8 1
    16    8   17 am
    17    8    9 1
    18    9   10 2
    19    9   20 1
    20   10   11 1
    21   11   16 ar
    22   11   12 ar
    23   12   13 ar
    24   12   38 1
    25   13   14 ar
    26   13   39 1
    27   14   15 ar
    28   14   40 1
    29   15   16 ar
    30   15   19 1
    31   16   17 1
    32   17   18 2
    33   19   41 1
    34   19   42 1
    35   19   43 1
    36   20   21 1
    37   20   44 1
    38   20   45 1
    39   21   25 1
    40   21   22 1
    41   22   23 2
    42   22   46 1
    43   23   24 1
    44   24   29 ar
    45   24   25 ar
    46   25   26 ar
    47   26   27 ar
    48   27   28 ar
    49   27   47 1
    50   28   29 ar
    51   29   30 1
    52   30   48 1
    53   30   49 1
@<TRIPOS>MOLECULE
ZINC16052698
   46    50     0     0     0
SMALL
USER_CHARGES
5-chloro-3-(2-methoxyphenyl)-2-(7H-purin-6-ylsulfanylmethyl)quinazolin-4-one
@<TRIPOS>ATOM
      1 C1         -1.0686   -2.1272    0.0013 C.3       1 <0>         0.0250
      2 O1         -1.1648   -0.7015    0.0099 O.3       1 <0>        -0.3125
      3 C2          0.0021   -0.0041    0.0020 C.ar      1 <0>         0.1519
      4 C3          1.2135   -0.6770   -0.0132 C.ar      1 <0>        -0.1990
      5 C4          2.3990    0.0335   -0.0211 C.ar      1 <0>        -0.0552
      6 C5          2.3809    1.4164   -0.0135 C.ar      1 <0>        -0.1436
      7 C6          1.1774    2.0950    0.0021 C.ar      1 <0>        -0.0576
      8 C7         -0.0168    1.3888    0.0097 C.ar      1 <0>         0.0581
      9 N1         -1.2391    2.0751    0.0192 N.am      1 <0>        -0.4806
     10 C8         -1.8240    2.3937    1.2052 C.2       1 <0>         0.4261
     11 N2         -2.9513    3.0319    1.2961 N.2       1 <0>        -0.5128
     12 C9         -3.6388    3.4210    0.1935 C.ar      1 <0>         0.1711
     13 C10        -4.8534    4.1026    0.2906 C.ar      1 <0>        -0.1057
     14 C11        -5.5183    4.4796   -0.8547 C.ar      1 <0>        -0.0588
     15 C12        -4.9969    4.1903   -2.1084 C.ar      1 <0>        -0.1307
     16 C13        -3.7986    3.5184   -2.2315 C.ar      1 <0>         0.0347
     17 C14        -3.1095    3.1278   -1.0833 C.ar      1 <0>        -0.1927
     18 C15        -1.8295    2.4098   -1.1518 C.2       1 <0>         0.5518
     19 O2         -1.3194    2.1273   -2.2205 O.2       1 <0>        -0.4684
     20 Cl1        -3.1531    3.1616   -3.8030 Cl        1 <0>        -0.0283
     21 C16        -1.1251    1.9913    2.4783 C.3       1 <0>        -0.0701
     22 S1         -2.1057    2.5301    3.9010 S.3       1 <0>         0.0539
     23 C17        -1.0856    1.9471    5.2141 C.ar      1 <0>         0.1770
     24 C18        -1.4552    2.1437    6.5469 C.ar      1 <0>        -0.0533
     25 C19        -0.6089    1.6608    7.5579 C.ar      1 <0>         0.3064
     26 N3         -1.1858    1.9751    8.7330 N.2       1 <0>        -0.4889
     27 C20        -2.3070    2.6058    8.5193 C.2       1 <0>         0.3108
     28 N4         -2.5206    2.7363    7.1905 N.pl3     1 <0>        -0.5766
     29 H1         -3.3046    3.1797    6.7560 H         1 <0>         0.4399
     30 N5          0.5172    1.0314    7.2053 N.ar      1 <0>        -0.4846
     31 C21         0.8239    0.8691    5.9374 C.ar      1 <0>         0.3155
     32 N6          0.0518    1.3046    4.9585 N.ar      1 <0>        -0.5223
     33 H2         -2.0694   -2.5590    0.0089 H         1 <0>         0.1039
     34 H3         -0.5403   -2.4503   -0.8958 H         1 <0>         0.0608
     35 H4         -0.5226   -2.4598    0.8841 H         1 <0>         0.0615
     36 H5          1.2312   -1.7568   -0.0191 H         1 <0>         0.1394
     37 H6          3.3421   -0.4926   -0.0330 H         1 <0>         0.1360
     38 H7          3.3098    1.9673   -0.0198 H         1 <0>         0.1372
     39 H8          1.1663    3.1750    0.0076 H         1 <0>         0.1349
     40 H9         -5.2699    4.3330    1.2601 H         1 <0>         0.1479
     41 H10        -6.4576    5.0068   -0.7768 H         1 <0>         0.1466
     42 H11        -5.5340    4.4939   -2.9949 H         1 <0>         0.1455
     43 H12        -1.0126    0.9075    2.5040 H         1 <0>         0.1315
     44 H13        -0.1416    2.4597    2.5165 H         1 <0>         0.1326
     45 H14        -2.9685    2.9707    9.2911 H         1 <0>         0.2343
     46 H15         1.7408    0.3564    5.6865 H         1 <0>         0.2074
@<TRIPOS>BOND
     1    1    2 1
     2    1   33 1
     3    1   34 1
     4    1   35 1
     5    2    3 1
     6    3    8 ar
     7    3    4 ar
     8    4    5 ar
     9    4   36 1
    10    5    6 ar
    11    5   37 1
    12    6    7 ar
    13    6   38 1
    14    7    8 ar
    15    7   39 1
    16    8    9 1
    17    9   18 am
    18    9   10 1
    19   10   11 2
    20   10   21 1
    21   11   12 1
    22   12   17 ar
    23   12   13 ar
    24   13   14 ar
    25   13   40 1
    26   14   15 ar
    27   14   41 1
    28   15   16 ar
    29   15   42 1
    30   16   17 ar
    31   16   20 1
    32   17   18 1
    33   18   19 2
    34   21   22 1
    35   21   43 1
    36   21   44 1
    37   22   23 1
    38   23   32 ar
    39   23   24 ar
    40   24   28 1
    41   24   25 ar
    42   25   26 1
    43   25   30 ar
    44   26   27 2
    45   27   28 1
    46   27   45 1
    47   28   29 1
    48   30   31 ar
    49   31   32 ar
    50   31   46 1
@<TRIPOS>MOLECULE
ZINC16052698
   47    51     0     0     0
SMALL
USER_CHARGES
5-chloro-3-(2-methoxyphenyl)-2-(7H-purin-6-ylsulfanylmethyl)quinazolin-4-one
@<TRIPOS>ATOM
      1 C1         -1.0686   -2.1272    0.0013 C.3       1 <0>         0.0241
      2 O1         -1.1648   -0.7015    0.0099 O.3       1 <0>        -0.3136
      3 C2          0.0021   -0.0041    0.0020 C.ar      1 <0>         0.1511
      4 C3          1.2135   -0.6770   -0.0132 C.ar      1 <0>        -0.1987
      5 C4          2.3990    0.0335   -0.0211 C.ar      1 <0>        -0.0528
      6 C5          2.3809    1.4164   -0.0135 C.ar      1 <0>        -0.1430
      7 C6          1.1774    2.0950    0.0021 C.ar      1 <0>        -0.0585
      8 C7         -0.0168    1.3888    0.0097 C.ar      1 <0>         0.0513
      9 N1         -1.2391    2.0751    0.0192 N.am      1 <0>        -0.4788
     10 C8         -1.8240    2.3937    1.2052 C.2       1 <0>         0.4181
     11 N2         -2.9513    3.0319    1.2961 N.2       1 <0>        -0.5175
     12 C9         -3.6388    3.4210    0.1935 C.ar      1 <0>         0.1638
     13 C10        -4.8534    4.1026    0.2906 C.ar      1 <0>        -0.1046
     14 C11        -5.5183    4.4796   -0.8547 C.ar      1 <0>        -0.0570
     15 C12        -4.9969    4.1903   -2.1084 C.ar      1 <0>        -0.1234
     16 C13        -3.7986    3.5184   -2.2315 C.ar      1 <0>         0.0333
     17 C14        -3.1095    3.1278   -1.0833 C.ar      1 <0>        -0.1871
     18 C15        -1.8295    2.4098   -1.1518 C.2       1 <0>         0.5506
     19 O2         -1.3194    2.1273   -2.2205 O.2       1 <0>        -0.4593
     20 Cl1        -3.1531    3.1616   -3.8030 Cl        1 <0>        -0.0211
     21 C16        -1.1251    1.9913    2.4783 C.3       1 <0>        -0.0778
     22 S1         -2.1057    2.5301    3.9010 S.3       1 <0>         0.1257
     23 C17        -1.0856    1.9471    5.2141 C.ar      1 <0>         0.1953
     24 C18        -1.4552    2.1437    6.5469 C.ar      1 <0>        -0.0357
     25 C19        -0.6089    1.6608    7.5579 C.ar      1 <0>         0.3247
     26 C20        -2.3070    2.6058    8.5193 C.cat     1 <0>         0.4168
     27 N3         -2.5206    2.7363    7.1905 N.pl3     1 <0>        -0.5070
     28 H1         -3.3046    3.1797    6.7560 H         1 <0>         0.4798
     29 N4          0.5172    1.0314    7.2053 N.ar      1 <0>        -0.4996
     30 C21         0.8239    0.8691    5.9374 C.ar      1 <0>         0.3802
     31 N5          0.0518    1.3046    4.9585 N.ar      1 <0>        -0.5010
     32 H2         -2.0694   -2.5590    0.0089 H         1 <0>         0.1055
     33 H3         -0.5403   -2.4503   -0.8958 H         1 <0>         0.0635
     34 H4         -0.5226   -2.4598    0.8841 H         1 <0>         0.0608
     35 H5          1.2312   -1.7568   -0.0191 H         1 <0>         0.1409
     36 H6          3.3421   -0.4926   -0.0330 H         1 <0>         0.1379
     37 H7          3.3098    1.9673   -0.0198 H         1 <0>         0.1388
     38 H8          1.1663    3.1750    0.0076 H         1 <0>         0.1355
     39 H9         -5.2699    4.3330    1.2601 H         1 <0>         0.1471
     40 H10        -6.4576    5.0068   -0.7768 H         1 <0>         0.1492
     41 H11        -5.5340    4.4939   -2.9949 H         1 <0>         0.1490
     42 H12        -1.0126    0.9075    2.5040 H         1 <0>         0.1399
     43 H13        -0.1416    2.4597    2.5165 H         1 <0>         0.1412
     44 H14        -2.9685    2.9707    9.2911 H         1 <0>         0.2853
     45 H15         1.7408    0.3564    5.6865 H         1 <0>         0.2324
     46 N6         -1.1851    1.9747    8.7347 N.pl3     1 <0>        -0.4960
     47 H16        -0.8002    1.7514    9.6600 H         1 <0>         0.4906
@<TRIPOS>BOND
     1    1    2 1
     2    1   32 1
     3    1   33 1
     4    1   34 1
     5    2    3 1
     6    3    8 ar
     7    3    4 ar
     8    4    5 ar
     9    4   35 1
    10    5    6 ar
    11    5   36 1
    12    6    7 ar
    13    6   37 1
    14    7    8 ar
    15    7   38 1
    16    8    9 1
    17    9   18 am
    18    9   10 1
    19   10   11 2
    20   10   21 1
    21   11   12 1
    22   12   17 ar
    23   12   13 ar
    24   13   14 ar
    25   13   39 1
    26   14   15 ar
    27   14   40 1
    28   15   16 ar
    29   15   41 1
    30   16   17 ar
    31   16   20 1
    32   17   18 1
    33   18   19 2
    34   21   22 1
    35   21   42 1
    36   21   43 1
    37   22   23 1
    38   23   31 ar
    39   23   24 ar
    40   24   27 1
    41   24   25 ar
    42   25   29 ar
    43   25   46 1
    44   26   27 1
    45   26   44 1
    46   26   46 2
    47   27   28 1
    48   29   30 ar
    49   30   31 ar
    50   30   45 1
    51   46   47 1
@<TRIPOS>MOLECULE
ZINC02361761
   50    53     0     0     0
SMALL
USER_CHARGES

@<TRIPOS>ATOM
      1 C1          0.7438    1.6754   -4.2706 C.3       1 <0>         0.0297
      2 O1          0.7844    0.2545   -4.4177 O.3       1 <0>        -0.3117
      3 C2          0.9942   -0.4765   -3.2915 C.ar      1 <0>         0.1804
      4 C3          1.0507   -1.8598   -3.3638 C.ar      1 <0>        -0.1879
      5 C4          1.2655   -2.6066   -2.2130 C.ar      1 <0>         0.2567
      6 C5          1.4236   -1.9670   -0.9906 C.ar      1 <0>        -0.2275
      7 C6          1.3668   -0.5836   -0.9202 C.ar      1 <0>         0.1804
      8 C7          1.1574    0.1617   -2.0710 C.ar      1 <0>        -0.3272
      9 O2          1.5210    0.0426    0.2760 O.3       1 <0>        -0.3158
     10 C8          1.4510    1.4698    0.2749 C.3       1 <0>         0.0300
     11 N1          1.3221   -4.0009   -2.2848 N.pl3     1 <0>        -0.6290
     12 C9          1.8449   -4.6168   -3.4129 C.ar      1 <0>         0.3665
     13 C10         1.7923   -6.0265   -3.5331 C.ar      1 <0>         0.4201
     14 N2          1.2186   -6.7832   -2.5226 N.2       1 <0>        -1.0698
     15 S1          1.1543   -8.4324   -2.6579 S.o2      1 <0>         2.6410
     16 O3          0.2817   -8.7172   -3.7426 O.2       1 <0>        -1.0083
     17 O4          2.4971   -8.8958   -2.6186 O.2       1 <0>        -1.0087
     18 C11         0.3677   -9.0441   -1.2048 C.ar      1 <0>        -0.6401
     19 C12         1.1240   -9.3644   -0.0927 C.ar      1 <0>         0.0057
     20 C13         0.5082   -9.8438    1.0477 C.ar      1 <0>        -0.1790
     21 C14        -0.8669  -10.0034    1.0763 C.ar      1 <0>         0.1339
     22 C15        -1.6233   -9.6823   -0.0380 C.ar      1 <0>        -0.1791
     23 C16        -1.0058   -9.1981   -1.1756 C.ar      1 <0>         0.0058
     24 F1         -1.4700  -10.4724    2.1905 F         1 <0>        -0.1390
     25 N3          2.2843   -6.6233   -4.5986 N.ar      1 <0>        -0.5655
     26 C17         2.8388   -5.8911   -5.5763 C.ar      1 <0>         0.1215
     27 C18         3.3698   -6.5041   -6.7224 C.ar      1 <0>        -0.1049
     28 C19         3.9274   -5.7390   -7.7017 C.ar      1 <0>        -0.1126
     29 C20         3.9798   -4.3527   -7.5833 C.ar      1 <0>        -0.1480
     30 C21         3.4747   -3.7250   -6.4850 C.ar      1 <0>        -0.0698
     31 C22         2.8915   -4.4819   -5.4561 C.ar      1 <0>         0.0399
     32 N4          2.3821   -3.8861   -4.3678 N.ar      1 <0>        -0.4834
     33 H1         -0.0632    1.9473   -3.5903 H         1 <0>         0.0514
     34 H2          1.6934    2.0261   -3.8665 H         1 <0>         0.0521
     35 H3          0.5703    2.1365   -5.2430 H         1 <0>         0.0966
     36 H4          0.9273   -2.3565   -4.3149 H         1 <0>         0.1468
     37 H5          1.5903   -2.5470   -0.0950 H         1 <0>         0.1321
     38 H6          1.1177    1.2396   -2.0161 H         1 <0>         0.1275
     39 H7          2.2334    1.8715   -0.3689 H         1 <0>         0.0528
     40 H8          0.4764    1.7855   -0.0974 H         1 <0>         0.0526
     41 H9          1.5897    1.8412    1.2903 H         1 <0>         0.0966
     42 H10         0.9960   -4.5383   -1.5461 H         1 <0>         0.4336
     43 H11         2.1966   -9.2402   -0.1154 H         1 <0>         0.1474
     44 H12         1.0992  -10.0943    1.9162 H         1 <0>         0.1398
     45 H13        -2.6960   -9.8067   -0.0170 H         1 <0>         0.1397
     46 H14        -1.5961   -8.9434   -2.0434 H         1 <0>         0.1474
     47 H15         3.3365   -7.5785   -6.8270 H         1 <0>         0.1240
     48 H16         4.3348   -6.2141   -8.5819 H         1 <0>         0.1170
     49 H17         4.4272   -3.7672   -8.3728 H         1 <0>         0.1164
     50 H18         3.5219   -2.6489   -6.4062 H         1 <0>         0.1220
@<TRIPOS>BOND
     1    1    2 1
     2    1   33 1
     3    1   34 1
     4    1   35 1
     5    2    3 1
     6    3    8 ar
     7    3    4 ar
     8    4    5 ar
     9    4   36 1
    10    5    6 ar
    11    5   11 1
    12    6    7 ar
    13    6   37 1
    14    7    8 ar
    15    7    9 1
    16    8   38 1
    17    9   10 1
    18   10   39 1
    19   10   40 1
    20   10   41 1
    21   11   12 1
    22   11   42 1
    23   12   32 ar
    24   12   13 ar
    25   13   14 1
    26   13   25 ar
    27   14   15 1
    28   15   16 2
    29   15   17 2
    30   15   18 1
    31   18   23 ar
    32   18   19 ar
    33   19   20 ar
    34   19   43 1
    35   20   21 ar
    36   20   44 1
    37   21   22 ar
    38   21   24 1
    39   22   23 ar
    40   22   45 1
    41   23   46 1
    42   25   26 ar
    43   26   31 ar
    44   26   27 ar
    45   27   28 ar
    46   27   47 1
    47   28   29 ar
    48   28   48 1
    49   29   30 ar
    50   29   49 1
    51   30   31 ar
    52   30   50 1
    53   31   32 ar
@<TRIPOS>MOLECULE
ZINC02361761
   50    53     0     0     0
SMALL
USER_CHARGES

@<TRIPOS>ATOM
      1 C1          2.7016   -2.1721    3.2457 C.3       1 <0>         0.0224
      2 O1          1.8083   -2.3968    2.1531 O.3       1 <0>        -0.2975
      3 C2          2.3390   -2.9108    1.0235 C.2       1 <0>         0.1626
      4 C3          3.6517   -3.1973    0.9518 C.2       1 <0>        -0.2720
      5 C4          4.2330   -3.7343   -0.2123 C.2       1 <0>         0.2171
      6 C5          3.5140   -4.0048   -1.3543 C.2       1 <0>        -0.3202
      7 C6          2.1398   -3.7536   -1.4140 C.2       1 <0>         0.2761
      8 N1          1.4492   -4.0122   -2.5068 N.2       1 <0>        -0.4529
      9 C7          2.0877   -4.4270   -3.6312 C.ar      1 <0>         0.3039
     10 C8          2.1952   -5.8574   -3.9329 C.ar      1 <0>         0.4335
     11 N2          2.8158   -6.2482   -5.0257 N.ar      1 <0>        -0.5851
     12 C9          3.3470   -5.3390   -5.8588 C.ar      1 <0>         0.1417
     13 C10         4.0102   -5.7496   -7.0265 C.ar      1 <0>        -0.1138
     14 C11         4.5455   -4.8192   -7.8656 C.ar      1 <0>        -0.1047
     15 C12         4.4455   -3.4599   -7.5823 C.ar      1 <0>        -0.1573
     16 C13         3.8098   -3.0256   -6.4588 C.ar      1 <0>        -0.0623
     17 C14         3.2445   -3.9573   -5.5706 C.ar      1 <0>         0.0115
     18 N3          2.6123   -3.5408   -4.4650 N.ar      1 <0>        -0.4584
     19 N4          1.6470   -6.7930   -3.0719 N.2       1 <0>        -1.0404
     20 S1          1.7708   -8.4080   -3.4165 S.o2      1 <0>         2.6312
     21 O2          1.0025   -8.6328   -4.5906 O.2       1 <0>        -1.0093
     22 O3          3.1510   -8.7361   -3.3348 O.2       1 <0>        -1.0112
     23 C15         0.9675   -9.2816   -2.1141 C.ar      1 <0>        -0.6372
     24 C16         1.6843   -9.6687   -0.9972 C.ar      1 <0>         0.0058
     25 C17         1.0552  -10.3536    0.0251 C.ar      1 <0>        -0.1790
     26 C18        -0.2935  -10.6520   -0.0696 C.ar      1 <0>         0.1337
     27 C19        -1.0104  -10.2638   -1.1888 C.ar      1 <0>        -0.1783
     28 C20        -0.3804   -9.5744   -2.2074 C.ar      1 <0>         0.0067
     29 F1         -0.9094  -11.3218    0.9289 F         1 <0>        -0.1390
     30 C21         1.4673   -3.1812   -0.1836 C.3       1 <0>        -0.0454
     31 O4          5.5607   -3.9965   -0.2086 O.3       1 <0>        -0.3155
     32 C22         6.1179   -4.5410   -1.4065 C.3       1 <0>         0.0250
     33 H1          3.1597   -3.1163    3.5405 H         1 <0>         0.0626
     34 H2          3.4785   -1.4707    2.9415 H         1 <0>         0.0623
     35 H3          2.1480   -1.7581    4.0884 H         1 <0>         0.1045
     36 H4          4.2773   -3.0096    1.8119 H         1 <0>         0.1342
     37 H5          4.0182   -4.4163   -2.2162 H         1 <0>         0.1275
     38 H6          4.0961   -6.8008   -7.2587 H         1 <0>         0.1241
     39 H7          5.0545   -5.1406   -8.7623 H         1 <0>         0.1174
     40 H8          4.8779   -2.7406   -8.2619 H         1 <0>         0.1166
     41 H9          3.7400   -1.9681   -6.2509 H         1 <0>         0.1206
     42 H10         2.7364   -9.4361   -0.9237 H         1 <0>         0.1457
     43 H11         1.6155  -10.6562    0.8974 H         1 <0>         0.1395
     44 H12        -2.0624  -10.4963   -1.2638 H         1 <0>         0.1401
     45 H13        -0.9404   -9.2676   -3.0785 H         1 <0>         0.1472
     46 H14         0.6784   -3.8690    0.1210 H         1 <0>         0.1223
     47 H15         0.9942   -2.2424   -0.4715 H         1 <0>         0.1195
     48 H16         5.9592   -3.8449   -2.2302 H         1 <0>         0.0593
     49 H17         7.1869   -4.7034   -1.2689 H         1 <0>         0.1006
     50 H18         5.6326   -5.4901   -1.6343 H         1 <0>         0.0641
@<TRIPOS>BOND
     1    1    2 1
     2    1   33 1
     3    1   34 1
     4    1   35 1
     5    2    3 1
     6    3   30 1
     7    3    4 2
     8    4    5 1
     9    4   36 1
    10    5    6 2
    11    5   31 1
    12    6    7 1
    13    6   37 1
    14    7    8 2
    15    7   30 1
    16    8    9 1
    17    9   18 ar
    18    9   10 ar
    19   10   11 ar
    20   10   19 1
    21   11   12 ar
    22   12   17 ar
    23   12   13 ar
    24   13   14 ar
    25   13   38 1
    26   14   15 ar
    27   14   39 1
    28   15   16 ar
    29   15   40 1
    30   16   17 ar
    31   16   41 1
    32   17   18 ar
    33   19   20 1
    34   20   21 2
    35   20   22 2
    36   20   23 1
    37   23   28 ar
    38   23   24 ar
    39   24   25 ar
    40   24   42 1
    41   25   26 ar
    42   25   43 1
    43   26   27 ar
    44   26   29 1
    45   27   28 ar
    46   27   44 1
    47   28   45 1
    48   30   46 1
    49   30   47 1
    50   31   32 1
    51   32   48 1
    52   32   49 1
    53   32   50 1
@<TRIPOS>MOLECULE
ZINC02361761
   51    54     0     0     0
SMALL
USER_CHARGES

@<TRIPOS>ATOM
      1 C1         -4.1099    1.5776    1.4911 C.3       1 <0>         0.0264
      2 O1         -4.2219    0.1536    1.5342 O.3       1 <0>        -0.3098
      3 C2         -3.3333   -0.5578    0.7918 C.ar      1 <0>         0.1871
      4 C3         -3.3895   -1.9430    0.7836 C.ar      1 <0>        -0.1845
      5 C4         -2.4817   -2.6698    0.0246 C.ar      1 <0>         0.2354
      6 C5         -1.5184   -2.0082   -0.7256 C.ar      1 <0>        -0.2192
      7 C6         -1.4638   -0.6230   -0.7162 C.ar      1 <0>         0.1876
      8 C7         -2.3742    0.1022    0.0381 C.ar      1 <0>        -0.3127
      9 O2         -0.5209    0.0246   -1.4499 O.3       1 <0>        -0.3123
     10 C8         -0.5227    1.4525   -1.3934 C.3       1 <0>         0.0267
     11 N1         -2.5373   -4.0659    0.0161 N.pl3     1 <0>        -0.6470
     12 C9         -3.7598   -4.7123    0.1295 C.ar      1 <0>         0.3610
     13 C10        -3.8021   -6.1231    0.2401 C.ar      1 <0>         0.3430
     14 N2         -4.9556   -6.7487    0.3488 N.ar      1 <0>        -0.4505
     15 C11        -6.0976   -6.0449    0.3547 C.ar      1 <0>         0.0847
     16 C12        -7.3398   -6.6889    0.4701 C.ar      1 <0>        -0.0790
     17 C13        -8.4856   -5.9523    0.4741 C.ar      1 <0>        -0.1026
     18 C14        -8.4441   -4.5649    0.3647 C.ar      1 <0>        -0.0941
     19 C15        -7.2564   -3.9075    0.2513 C.ar      1 <0>        -0.0850
     20 C16        -6.0552   -4.6346    0.2441 C.ar      1 <0>         0.1040
     21 N3         -4.8733   -4.0093    0.1390 N.ar      1 <0>        -0.4507
     22 N4         -2.6216   -6.8505    0.2334 N.pl3     1 <0>        -1.0283
     23 S1         -2.6653   -8.5009    0.3625 S.o2      1 <0>         2.6929
     24 O3         -1.3183   -8.9491    0.2984 O.2       1 <0>        -0.9422
     25 O4         -3.5162   -8.8000    1.4605 O.2       1 <0>        -0.9172
     26 C17        -3.4696   -9.1152   -1.0799 C.ar      1 <0>        -0.6897
     27 C18        -4.8423   -9.2789   -1.0884 C.ar      1 <0>         0.0329
     28 C19        -5.4742   -9.7602   -2.2193 C.ar      1 <0>        -0.1800
     29 C20        -4.7320  -10.0784   -3.3440 C.ar      1 <0>         0.1624
     30 C21        -3.3573   -9.9140   -3.3342 C.ar      1 <0>        -0.1794
     31 C22        -2.7281   -9.4276   -2.2040 C.ar      1 <0>         0.0097
     32 F1         -5.3487  -10.5494   -4.4499 F         1 <0>        -0.1277
     33 H1         -4.8766    2.0217    2.1260 H         1 <0>         0.1028
     34 H2         -3.1244    1.8755    1.8490 H         1 <0>         0.0558
     35 H3         -4.2434    1.9217    0.4655 H         1 <0>         0.0561
     36 H4         -4.1388   -2.4567    1.3676 H         1 <0>         0.1455
     37 H5         -0.8118   -2.5727   -1.3159 H         1 <0>         0.1355
     38 H6         -2.3337    1.1815    0.0417 H         1 <0>         0.1353
     39 H7         -1.4812    1.8290   -1.7505 H         1 <0>         0.0564
     40 H8         -0.3659    1.7756   -0.3643 H         1 <0>         0.0567
     41 H9          0.2778    1.8420   -2.0225 H         1 <0>         0.1031
     42 H10        -1.7212   -4.5832   -0.0691 H         1 <0>         0.4194
     43 H11        -7.3867   -7.7646    0.5549 H         1 <0>         0.1399
     44 H12        -9.4393   -6.4513    0.5630 H         1 <0>         0.1366
     45 H13        -9.3660   -4.0023    0.3695 H         1 <0>         0.1361
     46 H14        -7.2388   -2.8309    0.1671 H         1 <0>         0.1403
     47 H15        -5.4209   -9.0309   -0.2109 H         1 <0>         0.1607
     48 H16        -6.5466   -9.8883   -2.2256 H         1 <0>         0.1475
     49 H17        -2.7773  -10.1622   -4.2108 H         1 <0>         0.1476
     50 H18        -1.6563   -9.2951   -2.1977 H         1 <0>         0.1508
     51 H19        -1.7702   -6.3927    0.1532 H         1 <0>         0.4321
@<TRIPOS>BOND
     1    1    2 1
     2    1   33 1
     3    1   34 1
     4    1   35 1
     5    2    3 1
     6    3    8 ar
     7    3    4 ar
     8    4    5 ar
     9    4   36 1
    10    5    6 ar
    11    5   11 1
    12    6    7 ar
    13    6   37 1
    14    7    8 ar
    15    7    9 1
    16    8   38 1
    17    9   10 1
    18   10   39 1
    19   10   40 1
    20   10   41 1
    21   11   12 1
    22   11   42 1
    23   12   21 ar
    24   12   13 ar
    25   13   14 ar
    26   13   22 1
    27   14   15 ar
    28   15   20 ar
    29   15   16 ar
    30   16   17 ar
    31   16   43 1
    32   17   18 ar
    33   17   44 1
    34   18   19 ar
    35   18   45 1
    36   19   20 ar
    37   19   46 1
    38   20   21 ar
    39   22   23 1
    40   22   51 1
    41   23   24 2
    42   23   25 2
    43   23   26 1
    44   26   31 ar
    45   26   27 ar
    46   27   28 ar
    47   27   47 1
    48   28   29 ar
    49   28   48 1
    50   29   30 ar
    51   29   32 1
    52   30   31 ar
    53   30   49 1
    54   31   50 1
@<TRIPOS>MOLECULE
ZINC20148983
   39    42     0     0     0
SMALL
USER_CHARGES
1-isopropyl-3-(6-quinolyl)pyrazolo[4,5-e]pyrimidin-4-amine
@<TRIPOS>ATOM
      1 C1          1.0254    8.7978   -2.0248 C.3       1 <0>        -0.1621
      2 C2          1.2018    8.9153   -0.5095 C.3       1 <0>         0.1606
      3 C3         -0.1710    9.0289    0.1564 C.3       1 <0>        -0.1621
      4 N1          1.8926    7.7262   -0.0046 N.pl3     1 <0>        -0.3691
      5 C4          3.0880    7.7288    0.6508 C.ar      1 <0>         0.3756
      6 C5          3.3891    6.3885    0.9574 C.ar      1 <0>        -0.3235
      7 C6          2.2832    5.5859    0.4354 C.2       1 <0>         0.1611
      8 N2          1.4309    6.4112   -0.1252 N.2       1 <0>        -0.2249
      9 C7          2.1525    4.1119    0.5188 C.ar      1 <0>        -0.0128
     10 C8          1.7465    3.3824   -0.6110 C.ar      1 <0>        -0.0754
     11 C9          1.6190    2.0318   -0.5611 C.ar      1 <0>        -0.0829
     12 C10         1.8956    1.3409    0.6333 C.ar      1 <0>         0.1347
     13 C11         2.3061    2.0687    1.7786 C.ar      1 <0>        -0.1018
     14 C12         2.4317    3.4637    1.7084 C.ar      1 <0>        -0.0831
     15 C13         2.5804    1.3697    2.9700 C.ar      1 <0>        -0.0542
     16 C14         2.4374    0.0111    2.9678 C.ar      1 <0>        -0.1718
     17 C15         2.0303   -0.6425    1.8073 C.ar      1 <0>         0.1391
     18 N3          1.7757    0.0115    0.6997 N.ar      1 <0>        -0.4734
     19 C16         4.5832    6.1084    1.6415 C.ar      1 <0>         0.5181
     20 N4          5.3762    7.1241    1.9688 N.ar      1 <0>        -0.6038
     21 C17         5.0541    8.3678    1.6609 C.ar      1 <0>         0.3865
     22 N5          3.9473    8.6775    1.0220 N.ar      1 <0>        -0.5731
     23 N6          4.9255    4.8098    1.9657 N.pl3     1 <0>        -0.8303
     24 H1          2.0034    8.7169   -2.4992 H         1 <0>         0.0603
     25 H2          0.4358    7.9102   -2.2542 H         1 <0>         0.0702
     26 H3          0.5114    9.6825   -2.4004 H         1 <0>         0.0791
     27 H4          1.7914    9.8029   -0.2801 H         1 <0>         0.1120
     28 H5         -0.0453    9.1126    1.2359 H         1 <0>         0.0600
     29 H6         -0.6850    9.9136   -0.2192 H         1 <0>         0.0791
     30 H7         -0.7606    8.1413   -0.0730 H         1 <0>         0.0701
     31 H8          1.5326    3.9036   -1.5325 H         1 <0>         0.1376
     32 H9          1.3057    1.4868   -1.4393 H         1 <0>         0.1440
     33 H10         2.7434    4.0269    2.5755 H         1 <0>         0.1398
     34 H11         2.8910    1.8936    3.8619 H         1 <0>         0.1419
     35 H12         2.6394   -0.5553    3.8649 H         1 <0>         0.1418
     36 H13         1.9210   -1.7169    1.8201 H         1 <0>         0.1629
     37 H14         5.7273    9.1628    1.9460 H         1 <0>         0.2058
     38 H15         4.4796    4.0672    1.5292 H         1 <0>         0.4125
     39 H16         5.6119    4.6406    2.6300 H         1 <0>         0.4110
@<TRIPOS>BOND
     1    1    2 1
     2    1   24 1
     3    1   25 1
     4    1   26 1
     5    2    3 1
     6    2    4 1
     7    2   27 1
     8    3   28 1
     9    3   29 1
    10    3   30 1
    11    4    8 1
    12    4    5 1
    13    5   22 ar
    14    5    6 ar
    15    6    7 1
    16    6   19 ar
    17    7    8 2
    18    7    9 1
    19    9   14 ar
    20    9   10 ar
    21   10   11 ar
    22   10   31 1
    23   11   12 ar
    24   11   32 1
    25   12   18 ar
    26   12   13 ar
    27   13   14 ar
    28   13   15 ar
    29   14   33 1
    30   15   16 ar
    31   15   34 1
    32   16   17 ar
    33   16   35 1
    34   17   18 ar
    35   17   36 1
    36   19   20 ar
    37   19   23 1
    38   20   21 ar
    39   21   22 ar
    40   21   37 1
    41   23   38 1
    42   23   39 1
@<TRIPOS>MOLECULE
ZINC64479803
   28    31     0     0     0
SMALL
USER_CHARGES

@<TRIPOS>ATOM
      1 C1          0.5734    0.2607    1.7090 C.ar      1 <0>        -0.0968
      2 C2          1.7855    0.9164    1.7833 C.ar      1 <0>        -0.0956
      3 C3          2.6025    1.0004    0.6663 C.ar      1 <0>         0.0496
      4 C4          2.2013    0.4212   -0.5370 C.ar      1 <0>         0.0388
      5 C5          0.9878   -0.2369   -0.6157 C.ar      1 <0>        -0.0670
      6 C6          0.1673   -0.3201    0.5088 C.ar      1 <0>        -0.0169
      7 C7         -1.1344   -1.0246    0.4278 C.2       1 <0>         0.1756
      8 C8         -2.4095   -0.5536    0.9681 C.ar      1 <0>        -0.3232
      9 C9         -2.8292    0.5869    1.6726 C.ar      1 <0>         0.5197
     10 N1         -4.1105    0.6816    2.0140 N.ar      1 <0>        -0.6022
     11 C10        -4.9721   -0.2701    1.7012 C.ar      1 <0>         0.3901
     12 N2         -4.6251   -1.3542    1.0434 N.ar      1 <0>        -0.5739
     13 C11        -3.3629   -1.5409    0.6572 C.ar      1 <0>         0.3793
     14 N3         -2.7066   -2.5266   -0.0178 N.pl3     1 <0>        -0.4767
     15 H1         -3.1133   -3.3383   -0.3593 H         1 <0>         0.4499
     16 N4         -1.3567   -2.1830   -0.1469 N.2       1 <0>        -0.2263
     17 N5         -1.9328    1.5849    2.0028 N.pl3     1 <0>        -0.8280
     18 O1          3.1719    0.6412   -1.4716 O.3       1 <0>        -0.3037
     19 C12         3.9802    1.7086   -0.9423 C.3       1 <0>         0.2118
     20 O2          3.8240    1.5820    0.4834 O.3       1 <0>        -0.3039
     21 H2         -0.0586    0.1937    2.5822 H         1 <0>         0.1483
     22 H3          2.0983    1.3658    2.7142 H         1 <0>         0.1472
     23 H4          0.6757   -0.6860   -1.5470 H         1 <0>         0.1441
     24 H5         -6.0038   -0.1527    1.9985 H         1 <0>         0.2076
     25 H6         -1.0708    1.6284    1.5602 H         1 <0>         0.4136
     26 H7         -2.1655    2.2422    2.6771 H         1 <0>         0.4125
     27 H8          5.0241    1.5756   -1.2264 H         1 <0>         0.1366
     28 H9          3.6095    2.6751   -1.2837 H         1 <0>         0.0896
@<TRIPOS>BOND
     1    1    6 ar
     2    1    2 ar
     3    1   21 1
     4    2    3 ar
     5    2   22 1
     6    3   20 1
     7    3    4 ar
     8    4    5 ar
     9    4   18 1
    10    5    6 ar
    11    5   23 1
    12    6    7 1
    13    7   16 2
    14    7    8 1
    15    8   13 ar
    16    8    9 ar
    17    9   10 ar
    18    9   17 1
    19   10   11 ar
    20   11   12 ar
    21   11   24 1
    22   12   13 ar
    23   13   14 1
    24   14   15 1
    25   14   16 1
    26   17   25 1
    27   17   26 1
    28   18   19 1
    29   19   20 1
    30   19   27 1
    31   19   28 1
@<TRIPOS>MOLECULE
ZINC08581906
   35    37     0     0     0
SMALL
USER_CHARGES

@<TRIPOS>ATOM
      1 C1          0.4062    0.7134    0.7743 C.3       1 <0>        -0.1622
      2 C2          0.2062   -0.7227    0.2861 C.3       1 <0>         0.1603
      3 C3          0.8807   -1.6910    1.2599 C.3       1 <0>        -0.1622
      4 N1         -1.2267   -1.0197    0.2161 N.pl3     1 <0>        -0.3682
      5 C4         -1.9008   -1.3860   -0.9107 C.ar      1 <0>         0.3764
      6 C5         -3.2452   -1.5750   -0.5394 C.ar      1 <0>        -0.3225
      7 C6         -3.3224   -1.2938    0.8939 C.2       1 <0>         0.1576
      8 N2         -2.1144   -0.9772    1.2964 N.2       1 <0>        -0.2230
      9 C7         -4.5398   -1.3596    1.7373 C.ar      1 <0>         0.0119
     10 C8         -5.4110   -2.4425    1.6242 C.ar      1 <0>        -0.1154
     11 C9         -6.5434   -2.5019    2.4107 C.ar      1 <0>        -0.0699
     12 C10        -6.8177   -1.4892    3.3123 C.ar      1 <0>        -0.1122
     13 C11        -5.9551   -0.4073    3.4309 C.ar      1 <0>         0.1435
     14 C12        -4.8137   -0.3425    2.6492 C.ar      1 <0>        -0.1062
     15 O1         -6.2283    0.5856    4.3181 O.3       1 <0>        -0.4823
     16 Br1        -8.3720   -1.5780    4.3858 Br        1 <0>        -0.0262
     17 C13        -4.1663   -1.9613   -1.5268 C.ar      1 <0>         0.5186
     18 N3         -3.7252   -2.1311   -2.7695 N.ar      1 <0>        -0.6031
     19 C14        -2.4536   -1.9426   -3.0738 C.ar      1 <0>         0.3877
     20 N4         -1.5560   -1.5814   -2.1832 N.ar      1 <0>        -0.5731
     21 N5         -5.4973   -2.1603   -1.2145 N.pl3     1 <0>        -0.8288
     22 H1          1.4723    0.9344    0.8264 H         1 <0>         0.0796
     23 H2         -0.0744    1.4033    0.0805 H         1 <0>         0.0606
     24 H3         -0.0369    0.8258    1.7638 H         1 <0>         0.0698
     25 H4          0.6493   -0.8351   -0.7034 H         1 <0>         0.1127
     26 H5          0.4376   -1.5786    2.2494 H         1 <0>         0.0699
     27 H6          0.7383   -2.7142    0.9121 H         1 <0>         0.0604
     28 H7          1.9468   -1.4701    1.3120 H         1 <0>         0.0794
     29 H8         -5.1997   -3.2345    0.9210 H         1 <0>         0.1438
     30 H9         -7.2175   -3.3410    2.3219 H         1 <0>         0.1472
     31 H10        -4.1397    0.4960    2.7436 H         1 <0>         0.1455
     32 H11        -5.8524    0.4419    5.1973 H         1 <0>         0.3991
     33 H12        -2.1380   -2.0919   -4.0958 H         1 <0>         0.2063
     34 H13        -5.8559   -1.8196   -0.3801 H         1 <0>         0.4127
     35 H14        -6.0732   -2.6406   -1.8297 H         1 <0>         0.4121
@<TRIPOS>BOND
     1    1    2 1
     2    1   22 1
     3    1   23 1
     4    1   24 1
     5    2    3 1
     6    2    4 1
     7    2   25 1
     8    3   26 1
     9    3   27 1
    10    3   28 1
    11    4    8 1
    12    4    5 1
    13    5   20 ar
    14    5    6 ar
    15    6    7 1
    16    6   17 ar
    17    7    8 2
    18    7    9 1
    19    9   14 ar
    20    9   10 ar
    21   10   11 ar
    22   10   29 1
    23   11   12 ar
    24   11   30 1
    25   12   13 ar
    26   12   16 1
    27   13   14 ar
    28   13   15 1
    29   14   31 1
    30   15   32 1
    31   17   18 ar
    32   17   21 1
    33   18   19 ar
    34   19   20 ar
    35   19   33 1
    36   21   34 1
    37   21   35 1
@<TRIPOS>MOLECULE
ZINC36056301
   39    42     0     0     0
SMALL
USER_CHARGES

@<TRIPOS>ATOM
      1 C1          0.9254    1.9991    0.1115 C.3       1 <0>        -0.1625
      2 C2          0.5644    0.5164    0.0017 C.3       1 <0>         0.1602
      3 C3         -0.9547    0.3678   -0.1037 C.3       1 <0>        -0.1630
      4 N1          1.1948   -0.0526   -1.1921 N.pl3     1 <0>        -0.3660
      5 C4          2.0845   -1.0857   -1.1960 C.ar      1 <0>         0.3791
      6 C5          2.4399   -1.3150   -2.5382 C.ar      1 <0>        -0.3289
      7 C6          1.6949   -0.3401   -3.3365 C.2       1 <0>         0.1761
      8 N2          0.9724    0.3761   -2.5050 N.2       1 <0>        -0.2098
      9 C7          1.7418   -0.1929   -4.8056 C.2       1 <0>         0.1339
     10 C8          0.6708    0.0518   -5.6025 C.2       1 <0>        -0.1346
     11 C9          1.1678    0.1218   -6.9754 C.ar      1 <0>        -0.0943
     12 C10         0.5575    0.3431   -8.2141 C.ar      1 <0>        -0.0897
     13 C11         1.3249    0.3481   -9.3611 C.ar      1 <0>         0.0805
     14 C12         2.6992    0.1341   -9.2873 C.ar      1 <0>        -0.1109
     15 C13         3.3112   -0.0854   -8.0732 C.ar      1 <0>        -0.1139
     16 C14         2.5568   -0.0941   -6.9049 C.ar      1 <0>         0.1038
     17 N3          2.8789   -0.2768   -5.5757 N.pl3     1 <0>        -0.5932
     18 H1          3.7722   -0.4418   -5.2356 H         1 <0>         0.4168
     19 O1          0.7369    0.5623  -10.5684 O.3       1 <0>        -0.4967
     20 C15         3.3555   -2.3402   -2.8244 C.ar      1 <0>         0.5168
     21 N4          3.8460   -3.0492   -1.8121 N.ar      1 <0>        -0.6021
     22 C16         3.4845   -2.7997   -0.5663 C.ar      1 <0>         0.3889
     23 N5          2.6311   -1.8502   -0.2510 N.ar      1 <0>        -0.5714
     24 N6          3.7369   -2.6060   -4.1255 N.pl3     1 <0>        -0.8317
     25 H2          2.0076    2.1050    0.1866 H         1 <0>         0.0602
     26 H3          0.5693    2.5263   -0.7736 H         1 <0>         0.0709
     27 H4          0.4564    2.4224    0.9997 H         1 <0>         0.0802
     28 H5          0.9205   -0.0108    0.8868 H         1 <0>         0.1134
     29 H6         -1.3108    0.8949   -0.9888 H         1 <0>         0.0712
     30 H7         -1.2119   -0.6886   -0.1820 H         1 <0>         0.0610
     31 H8         -1.4237    0.7911    0.7845 H         1 <0>         0.0801
     32 H9         -0.3538    0.1719   -5.2829 H         1 <0>         0.1573
     33 H10        -0.5081    0.5089   -8.2728 H         1 <0>         0.1338
     34 H11         3.2906    0.1399  -10.1910 H         1 <0>         0.1358
     35 H12         4.3776   -0.2505   -8.0283 H         1 <0>         0.1290
     36 H13         0.6969    1.4933  -10.8268 H         1 <0>         0.3892
     37 H14         3.9074   -3.3999    0.2258 H         1 <0>         0.2077
     38 H15         3.2729   -2.1806   -4.8634 H         1 <0>         0.4091
     39 H16         4.4688   -3.2179   -4.3009 H         1 <0>         0.4134
@<TRIPOS>BOND
     1    1    2 1
     2    1   25 1
     3    1   26 1
     4    1   27 1
     5    2    3 1
     6    2    4 1
     7    2   28 1
     8    3   29 1
     9    3   30 1
    10    3   31 1
    11    4    8 1
    12    4    5 1
    13    5   23 ar
    14    5    6 ar
    15    6    7 1
    16    6   20 ar
    17    7    8 2
    18    7    9 1
    19    9   17 1
    20    9   10 2
    21   10   11 1
    22   10   32 1
    23   11   16 ar
    24   11   12 ar
    25   12   13 ar
    26   12   33 1
    27   13   14 ar
    28   13   19 1
    29   14   15 ar
    30   14   34 1
    31   15   16 ar
    32   15   35 1
    33   16   17 1
    34   17   18 1
    35   19   36 1
    36   20   21 ar
    37   20   24 1
    38   21   22 ar
    39   22   23 ar
    40   22   37 1
    41   24   38 1
    42   24   39 1
@<TRIPOS>MOLECULE
ZINC36056301
   40    43     0     0     0
SMALL
NO_CHARGES

@<TRIPOS>ATOM
      1 C1          0.4668   -0.4939    1.1218 C.3       1 <0>        -0.1699
      2 C2          0.3340   -1.7615    0.2754 C.3       1 <0>         0.1613
      3 C3          1.1061   -2.9024    0.9410 C.3       1 <0>        -0.1701
      4 N1         -1.0799   -2.1284    0.1641 N.pl3     1 <0>        -0.3634
      5 C4         -1.7908   -2.2350   -1.0057 C.ar      1 <0>         0.4043
      6 C5         -3.1109   -2.6092   -0.6652 C.ar      1 <0>        -0.2157
      7 C6         -4.0447   -2.7836   -1.7054 C.ar      1 <0>         0.3985
      8 N2         -3.6387   -2.5876   -2.9589 N.ar      1 <0>        -0.5485
      9 C7         -2.3961   -2.2391   -3.2258 C.ar      1 <0>         0.3110
     10 N3         -1.4867   -2.0641   -2.2858 N.ar      1 <0>        -0.5580
     11 N4         -5.3440   -3.1479   -1.4334 N.pl3     1 <0>        -0.8571
     12 C8         -3.1685   -2.7231    0.7407 C.2       1 <0>         0.1060
     13 C9         -4.3454   -3.0906    1.5281 C.2       1 <0>         0.1145
     14 C10        -4.5167   -2.8192    2.8889 C.2       1 <0>        -0.1932
     15 C11        -5.7650   -3.3339    3.2429 C.ar      1 <0>        -0.0803
     16 C12        -6.5191   -3.3917    4.4278 C.ar      1 <0>        -0.1106
     17 C13        -7.7442   -3.9909    4.4147 C.ar      1 <0>         0.0839
     18 C14        -8.2689   -4.5512    3.2463 C.ar      1 <0>        -0.1283
     19 C15        -7.5862   -4.5260    2.0714 C.ar      1 <0>        -0.1066
     20 C16        -6.3164   -3.9222    2.0150 C.ar      1 <0>         0.0610
     21 N5         -5.4208   -3.7321    1.0501 N.pl3     1 <0>        -0.5313
     22 O1         -8.4709   -4.0448    5.5631 O.3       1 <0>        -0.5017
     23 N6         -1.9318   -2.4352    1.2329 N.pl3     1 <0>        -0.4440
     24 H1          1.5188   -0.2209    1.2046 H         1 <0>         0.0835
     25 H2         -0.0832    0.3190    0.6476 H         1 <0>         0.0676
     26 H3          0.0595   -0.6766    2.1162 H         1 <0>         0.0606
     27 H4          0.7413   -1.5787   -0.7190 H         1 <0>         0.1243
     28 H5          1.0115   -3.8055    0.3380 H         1 <0>         0.0673
     29 H6          2.1581   -2.6294    1.0238 H         1 <0>         0.0835
     30 H7          0.6988   -3.0851    1.9354 H         1 <0>         0.0606
     31 H8         -2.1102   -2.0906   -4.2566 H         1 <0>         0.1998
     32 H9         -5.8197   -2.7336   -0.6966 H         1 <0>         0.4069
     33 H10        -5.7838   -3.8189   -1.9786 H         1 <0>         0.4071
     34 H11        -3.8197   -2.3112    3.5389 H         1 <0>         0.1445
     35 H12        -6.1313   -2.9654    5.3413 H         1 <0>         0.1279
     36 H13        -9.2428   -5.0169    3.2782 H         1 <0>         0.1286
     37 H14        -8.0164   -4.9676    1.1847 H         1 <0>         0.1247
     38 H15        -9.0572   -3.2870    5.6936 H         1 <0>         0.3860
     39 H16        -1.6823   -2.4395    2.1702 H         1 <0>         0.4490
     40 H17        -5.5296   -4.0197    0.1301 H         1 <0>         0.4163
@<TRIPOS>BOND
     1    1    2 1
     2    1   24 1
     3    1   25 1
     4    1   26 1
     5    2    3 1
     6    2    4 1
     7    2   27 1
     8    3   28 1
     9    3   29 1
    10    3   30 1
    11    4   23 1
    12    4    5 1
    13    5   10 ar
    14    5    6 ar
    15    6    7 ar
    16    6   12 1
    17    7    8 ar
    18    7   11 1
    19    8    9 ar
    20    9   10 ar
    21    9   31 1
    22   11   32 1
    23   11   33 1
    24   12   13 2
    25   12   23 1
    26   13   21 1
    27   13   14 1
    28   14   15 2
    29   14   34 1
    30   15   20 ar
    31   15   16 ar
    32   16   17 ar
    33   16   35 1
    34   17   18 ar
    35   17   22 1
    36   18   19 ar
    37   18   36 1
    38   19   20 ar
    39   19   37 1
    40   20   21 2
    41   21   40 1
    42   22   38 1
    43   23   39 1
@<TRIPOS>MOLECULE
ZINC62260316
   60    65     0     0     0
SMALL
USER_CHARGES

@<TRIPOS>ATOM
      1 C1          1.0153    1.9189    1.6964 C.3       1 <0>        -0.1214
      2 C2          0.9391    0.4646    1.3089 C.ar      1 <0>        -0.0618
      3 C3          1.1840    0.0829    0.0041 C.ar      1 <0>        -0.1105
      4 C4          1.1137   -1.2511   -0.3523 C.ar      1 <0>        -0.0943
      5 C5          0.7986   -2.2075    0.5958 C.ar      1 <0>        -0.1128
      6 C6          0.5531   -1.8324    1.9019 C.ar      1 <0>        -0.0928
      7 C7          0.6281   -0.4937    2.2642 C.ar      1 <0>         0.0873
      8 N1          0.3848   -0.1106    3.5893 N.am      1 <0>        -0.4934
      9 C8         -0.8818    0.1947    3.9812 C.2       1 <0>         0.3779
     10 N2         -1.1865    0.5579    5.1899 N.2       1 <0>        -0.4934
     11 C9         -0.2448    0.6587    6.1610 C.ar      1 <0>         0.1574
     12 C10        -0.5724    1.0489    7.4613 C.ar      1 <0>        -0.1140
     13 C11         0.4155    1.1375    8.4159 C.ar      1 <0>        -0.0658
     14 C12         1.7363    0.8436    8.1026 C.ar      1 <0>        -0.1408
     15 C13         2.0845    0.4570    6.8270 C.ar      1 <0>        -0.0018
     16 C14         1.0995    0.3605    5.8459 C.ar      1 <0>        -0.1970
     17 C15         1.4110   -0.0526    4.4699 C.2       1 <0>         0.5551
     18 O1          2.5482   -0.3282    4.1345 O.2       1 <0>        -0.4882
     19 C16         3.5200    0.1408    6.4950 C.3       1 <0>        -0.1339
     20 C17        -1.9870    0.1073    2.9605 C.3       1 <0>         0.1991
     21 N3         -3.2598    0.4743    3.5863 N.pl3     1 <0>        -0.3622
     22 C18        -4.1124   -0.3919    4.2037 C.ar      1 <0>         0.3937
     23 C19        -5.2051    0.3674    4.6624 C.ar      1 <0>        -0.3170
     24 C20        -4.9402    1.7519    4.2721 C.2       1 <0>         0.1726
     25 N4         -3.7861    1.7690    3.6484 N.2       1 <0>        -0.2195
     26 C21        -5.8121    2.9213    4.5378 C.ar      1 <0>        -0.0054
     27 C22        -6.3811    3.0972    5.7986 C.ar      1 <0>        -0.1181
     28 C23        -7.1919    4.1868    6.0435 C.ar      1 <0>        -0.0970
     29 C24        -7.4428    5.1058    5.0414 C.ar      1 <0>        -0.1319
     30 C25        -6.8807    4.9380    3.7834 C.ar      1 <0>         0.1123
     31 C26        -6.0606    3.8507    3.5303 C.ar      1 <0>        -0.1119
     32 O2         -7.1305    5.8437    2.8014 O.3       1 <0>        -0.4963
     33 C27        -6.2419   -0.2916    5.3430 C.ar      1 <0>         0.5187
     34 N5         -6.1435   -1.6052    5.5232 N.ar      1 <0>        -0.6028
     35 C28        -5.0990   -2.2789    5.0755 C.ar      1 <0>         0.3881
     36 N6         -4.1050   -1.7045    4.4340 N.ar      1 <0>        -0.5735
     37 N7         -7.3365    0.4076    5.8139 N.pl3     1 <0>        -0.8287
     38 H1          2.0326    2.1599    2.0049 H         1 <0>         0.0780
     39 H2          0.7385    2.5374    0.8426 H         1 <0>         0.0789
     40 H3          0.3301    2.1115    2.5219 H         1 <0>         0.0602
     41 H4          1.4304    0.8274   -0.7385 H         1 <0>         0.1342
     42 H5          1.3050   -1.5469   -1.3732 H         1 <0>         0.1328
     43 H6          0.7441   -3.2487    0.3143 H         1 <0>         0.1347
     44 H7          0.3070   -2.5797    2.6418 H         1 <0>         0.1296
     45 H8         -1.5960    1.2803    7.7166 H         1 <0>         0.1358
     46 H9          0.1604    1.4398    9.4209 H         1 <0>         0.1359
     47 H10         2.4970    0.9191    8.8655 H         1 <0>         0.1349
     48 H11         3.7085   -0.9184    6.6699 H         1 <0>         0.0772
     49 H12         3.7110    0.3758    5.4479 H         1 <0>         0.0986
     50 H13         4.1788    0.7363    7.1271 H         1 <0>         0.0676
     51 H14        -1.7764    0.7904    2.1376 H         1 <0>         0.1279
     52 H15        -2.0500   -0.9120    2.5795 H         1 <0>         0.1313
     53 H16        -6.1876    2.3807    6.5833 H         1 <0>         0.1349
     54 H17        -7.6320    4.3219    7.0204 H         1 <0>         0.1370
     55 H18        -8.0782    5.9567    5.2380 H         1 <0>         0.1350
     56 H19        -5.6187    3.7214    2.5534 H         1 <0>         0.1359
     57 H20        -6.4976    6.5742    2.7698 H         1 <0>         0.3950
     58 H21        -5.0595   -3.3449    5.2437 H         1 <0>         0.2041
     59 H22        -7.5166    1.3033    5.4881 H         1 <0>         0.4136
     60 H23        -7.9249    0.0028    6.4702 H         1 <0>         0.4111
@<TRIPOS>BOND
     1    1    2 1
     2    1   38 1
     3    1   39 1
     4    1   40 1
     5    2    7 ar
     6    2    3 ar
     7    3    4 ar
     8    3   41 1
     9    4    5 ar
    10    4   42 1
    11    5    6 ar
    12    5   43 1
    13    6    7 ar
    14    6   44 1
    15    7    8 1
    16    8   17 am
    17    8    9 1
    18    9   10 2
    19    9   20 1
    20   10   11 1
    21   11   16 ar
    22   11   12 ar
    23   12   13 ar
    24   12   45 1
    25   13   14 ar
    26   13   46 1
    27   14   15 ar
    28   14   47 1
    29   15   16 ar
    30   15   19 1
    31   16   17 1
    32   17   18 2
    33   19   48 1
    34   19   49 1
    35   19   50 1
    36   20   21 1
    37   20   51 1
    38   20   52 1
    39   21   25 1
    40   21   22 1
    41   22   36 ar
    42   22   23 ar
    43   23   24 1
    44   23   33 ar
    45   24   25 2
    46   24   26 1
    47   26   31 ar
    48   26   27 ar
    49   27   28 ar
    50   27   53 1
    51   28   29 ar
    52   28   54 1
    53   29   30 ar
    54   29   55 1
    55   30   31 ar
    56   30   32 1
    57   31   56 1
    58   32   57 1
    59   33   34 ar
    60   33   37 1
    61   34   35 ar
    62   35   36 ar
    63   35   58 1
    64   37   59 1
    65   37   60 1
@<TRIPOS>MOLECULE
ZINC43465534
   35    37     0     0     0
SMALL
USER_CHARGES

@<TRIPOS>ATOM
      1 C1          0.4068    0.7074    0.7781 C.3       1 <0>        -0.1627
      2 C2          0.2063   -0.7277    0.2871 C.3       1 <0>         0.1599
      3 C3          0.8804   -1.6981    1.2590 C.3       1 <0>        -0.1628
      4 N1         -1.2267   -1.0239    0.2164 N.pl3     1 <0>        -0.3665
      5 C4         -1.9011   -1.3879   -0.9114 C.ar      1 <0>         0.3770
      6 C5         -3.2456   -1.5763   -0.5412 C.ar      1 <0>        -0.3202
      7 C6         -3.3233   -1.2974    0.8930 C.2       1 <0>         0.1500
      8 N2         -2.1144   -0.9832    1.2968 N.2       1 <0>        -0.2166
      9 C7         -4.5400   -1.3639    1.7350 C.ar      1 <0>         0.0405
     10 C8         -5.4108   -2.4492    1.6175 C.ar      1 <0>        -0.1236
     11 C9         -6.5343   -2.5157    2.3909 C.ar      1 <0>        -0.0350
     12 C10        -6.8185   -1.4966    3.3050 C.ar      1 <0>        -0.0471
     13 C11        -5.9488   -0.4059    3.4275 C.ar      1 <0>         0.1574
     14 C12        -4.8115   -0.3452    2.6483 C.ar      1 <0>        -0.1216
     15 F1         -6.2198    0.5812    4.3092 F         1 <0>        -0.1185
     16 C13        -7.9977   -1.5677    4.1144 C.1       1 <0>         0.2436
     17 N3         -8.9331   -1.6242    4.7564 N.1       1 <0>        -0.3868
     18 C14        -4.1666   -1.9604   -1.5294 C.ar      1 <0>         0.5185
     19 N4         -3.7251   -2.1289   -2.7722 N.ar      1 <0>        -0.6017
     20 C15        -2.4531   -1.9410   -3.0755 C.ar      1 <0>         0.3888
     21 N5         -1.5559   -1.5814   -2.1840 N.ar      1 <0>        -0.5722
     22 N6         -5.4979   -2.1588   -1.2179 N.pl3     1 <0>        -0.8291
     23 H1          1.4730    0.9278    0.8306 H         1 <0>         0.0799
     24 H2         -0.0734    1.3988    0.0856 H         1 <0>         0.0609
     25 H3         -0.0363    0.8181    1.7678 H         1 <0>         0.0705
     26 H4          0.6494   -0.8384   -0.7026 H         1 <0>         0.1133
     27 H5          0.4373   -1.5875    2.2488 H         1 <0>         0.0706
     28 H6          0.7375   -2.7206    0.9093 H         1 <0>         0.0608
     29 H7          1.9466   -1.4777    1.3116 H         1 <0>         0.0797
     30 H8         -5.1952   -3.2384    0.9125 H         1 <0>         0.1508
     31 H9         -7.2048   -3.3571    2.2960 H         1 <0>         0.1545
     32 H10        -4.1355    0.4918    2.7420 H         1 <0>         0.1555
     33 H11        -2.1372   -2.0892   -4.0976 H         1 <0>         0.2066
     34 H12        -5.8568   -1.8178   -0.3838 H         1 <0>         0.4121
     35 H13        -6.0736   -2.6390   -1.8334 H         1 <0>         0.4130
@<TRIPOS>BOND
     1    1    2 1
     2    1   23 1
     3    1   24 1
     4    1   25 1
     5    2    3 1
     6    2    4 1
     7    2   26 1
     8    3   27 1
     9    3   28 1
    10    3   29 1
    11    4    8 1
    12    4    5 1
    13    5   21 ar
    14    5    6 ar
    15    6    7 1
    16    6   18 ar
    17    7    8 2
    18    7    9 1
    19    9   14 ar
    20    9   10 ar
    21   10   11 ar
    22   10   30 1
    23   11   12 ar
    24   11   31 1
    25   12   13 ar
    26   12   16 1
    27   13   14 ar
    28   13   15 1
    29   14   32 1
    30   16   17 3
    31   18   19 ar
    32   18   22 1
    33   19   20 ar
    34   20   21 ar
    35   20   33 1
    36   22   34 1
    37   22   35 1
@<TRIPOS>MOLECULE
ZINC64521265
   46    49     0     0     0
SMALL
USER_CHARGES

@<TRIPOS>ATOM
      1 C1          0.3476   -2.5642    0.7938 C.3       1 <0>        -0.1628
      2 C2         -0.3724   -2.4367   -0.5502 C.3       1 <0>         0.1606
      3 C3         -0.6891   -3.8315   -1.0934 C.3       1 <0>        -0.1622
      4 N1         -1.6190   -1.6892   -0.3674 N.pl3     1 <0>        -0.3682
      5 C4         -1.9328   -0.5173   -0.9891 C.ar      1 <0>         0.3758
      6 C5         -3.2117   -0.1436   -0.5353 C.ar      1 <0>        -0.3225
      7 C6         -3.6371   -1.1809    0.4040 C.2       1 <0>         0.1593
      8 N2         -2.6746   -2.0702    0.4677 N.2       1 <0>        -0.2224
      9 C7         -4.9218   -1.2229    1.1432 C.ar      1 <0>        -0.0245
     10 C8         -6.1183   -0.9455    0.4812 C.ar      1 <0>        -0.0801
     11 C9         -7.3162   -0.9844    1.1672 C.ar      1 <0>        -0.1161
     12 C10        -7.3388   -1.2973    2.5117 C.ar      1 <0>        -0.0731
     13 C11        -6.1481   -1.5766    3.1861 C.ar      1 <0>        -0.1285
     14 C12        -4.9368   -1.5447    2.4966 C.ar      1 <0>        -0.0211
     15 C13        -6.1728   -1.9106    4.6256 C.2       1 <0>         0.5570
     16 O1         -5.1357   -2.1534    5.2109 O.2       1 <0>        -0.4587
     17 N3         -7.3453   -1.9460    5.2893 N.am      1 <0>        -0.6240
     18 C14        -7.3683   -2.2582    6.6345 C.2       1 <0>         0.4093
     19 N4         -6.3504   -2.5344    7.3965 N.2       1 <0>        -0.5323
     20 C15        -6.5264   -2.8706    8.7976 C.3       1 <0>         0.0491
     21 C16        -7.9176   -2.4104    9.3123 C.3       1 <0>        -0.0885
     22 S1         -8.8003   -2.3601    7.6961 S.3       1 <0>        -0.2223
     23 C17        -3.7785    1.0433   -1.0279 C.ar      1 <0>         0.5179
     24 N5         -3.0796    1.7609   -1.9021 N.ar      1 <0>        -0.6035
     25 C18        -1.8816    1.3723   -2.3010 C.ar      1 <0>         0.3866
     26 N6         -1.3117    0.2693   -1.8675 N.ar      1 <0>        -0.5726
     27 N7         -5.0310    1.4545   -0.6148 N.pl3     1 <0>        -0.8297
     28 H1          1.2751   -3.1204    0.6578 H         1 <0>         0.0793
     29 H2          0.5732   -1.5705    1.1808 H         1 <0>         0.0605
     30 H3         -0.2926   -3.0925    1.5003 H         1 <0>         0.0708
     31 H4          0.2678   -1.9084   -1.2566 H         1 <0>         0.1123
     32 H5         -1.2020   -3.7407   -2.0509 H         1 <0>         0.0601
     33 H6          0.2384   -4.3877   -1.2294 H         1 <0>         0.0792
     34 H7         -1.3293   -4.3598   -0.3870 H         1 <0>         0.0703
     35 H8         -6.1075   -0.6993   -0.5703 H         1 <0>         0.1397
     36 H9         -8.2394   -0.7687    0.6498 H         1 <0>         0.1436
     37 H10        -8.2787   -1.3258    3.0429 H         1 <0>         0.1334
     38 H11        -4.0135   -1.7645    3.0120 H         1 <0>         0.1460
     39 H12        -8.1730   -1.7523    4.8221 H         1 <0>         0.4258
     40 H13        -6.4387   -3.9501    8.9203 H         1 <0>         0.1010
     41 H14        -5.7483   -2.3813    9.3834 H         1 <0>         0.1095
     42 H15        -8.3569   -3.1421    9.9903 H         1 <0>         0.1289
     43 H16        -7.8696   -1.4222    9.7696 H         1 <0>         0.1075
     44 H17        -1.3485    1.9855   -3.0124 H         1 <0>         0.2059
     45 H18        -5.4326    1.0649    0.1775 H         1 <0>         0.4118
     46 H19        -5.5089    2.1329   -1.1171 H         1 <0>         0.4117
@<TRIPOS>BOND
     1    1    2 1
     2    1   28 1
     3    1   29 1
     4    1   30 1
     5    2    3 1
     6    2    4 1
     7    2   31 1
     8    3   32 1
     9    3   33 1
    10    3   34 1
    11    4    8 1
    12    4    5 1
    13    5   26 ar
    14    5    6 ar
    15    6    7 1
    16    6   23 ar
    17    7    8 2
    18    7    9 1
    19    9   14 ar
    20    9   10 ar
    21   10   11 ar
    22   10   35 1
    23   11   12 ar
    24   11   36 1
    25   12   13 ar
    26   12   37 1
    27   13   14 ar
    28   13   15 1
    29   14   38 1
    30   15   16 2
    31   15   17 am
    32   17   18 1
    33   17   39 1
    34   18   22 1
    35   18   19 2
    36   19   20 1
    37   20   21 1
    38   20   40 1
    39   20   41 1
    40   21   22 1
    41   21   42 1
    42   21   43 1
    43   23   24 ar
    44   23   27 1
    45   24   25 ar
    46   25   26 ar
    47   25   44 1
    48   27   45 1
    49   27   46 1
@<TRIPOS>MOLECULE
ZINC36056300
   40    43     0     0     0
SMALL
USER_CHARGES

@<TRIPOS>ATOM
      1 C1          0.4126    0.6880    0.7885 C.3       1 <0>        -0.1627
      2 C2          0.2093   -0.7440    0.2895 C.3       1 <0>         0.1569
      3 C3          0.8826   -1.7211    1.2552 C.3       1 <0>        -0.1634
      4 N1         -1.2243   -1.0374    0.2184 N.pl3     1 <0>        -0.3592
      5 C4         -1.9000   -1.3937   -0.9107 C.ar      1 <0>         0.3794
      6 C5         -3.2446   -1.5828   -0.5400 C.ar      1 <0>        -0.3179
      7 C6         -3.3202   -1.3125    0.8956 C.2       1 <0>         0.1232
      8 N2         -2.1110   -1.0014    1.2998 N.2       1 <0>        -0.2051
      9 C7         -4.5366   -1.3827    1.7391 C.ar      1 <0>         0.1178
     10 C8         -5.4061   -2.4812    1.6050 C.ar      1 <0>        -0.1519
     11 C9         -6.5306   -2.5915    2.3528 C.ar      1 <0>         0.0142
     12 C10        -6.8501   -1.5908    3.2916 C.ar      1 <0>        -0.2346
     13 C11        -5.9500   -0.4370    3.4429 C.ar      1 <0>         0.2401
     14 C12        -4.7906   -0.3737    2.6433 C.ar      1 <0>        -0.1296
     15 N3         -6.4749    0.3393    4.3746 N.pl3     1 <0>        -0.4206
     16 H1         -8.2337    0.1398    5.5248 H         1 <0>         0.4708
     17 N4         -7.6615   -0.2385    4.8390 N.pl3     1 <0>        -0.4328
     18 C13        -7.8916   -1.3947    4.1942 C.2       1 <0>         0.5311
     19 N5         -8.9722   -2.2404    4.3922 N.pl3     1 <0>        -0.7811
     20 C14        -4.1671   -1.9596   -1.5297 C.ar      1 <0>         0.5166
     21 N6         -3.7272   -2.1207   -2.7740 N.ar      1 <0>        -0.5953
     22 C15        -2.4554   -1.9324   -3.0777 C.ar      1 <0>         0.3950
     23 N7         -1.5565   -1.5799   -2.1849 N.ar      1 <0>        -0.5665
     24 N8         -5.4983   -2.1583   -1.2179 N.pl3     1 <0>        -0.8311
     25 H2          1.4792    0.9063    0.8414 H         1 <0>         0.0837
     26 H3         -0.0671    1.3841    0.1005 H         1 <0>         0.0618
     27 H4         -0.0295    0.7936    1.7793 H         1 <0>         0.0688
     28 H5          0.6513   -0.8497   -0.7013 H         1 <0>         0.1176
     29 H6          0.7377   -2.7413    0.8997 H         1 <0>         0.0624
     30 H7          1.9492   -1.5028    1.3081 H         1 <0>         0.0836
     31 H8          0.4405   -1.6155    2.2459 H         1 <0>         0.0694
     32 H9         -5.1717   -3.2546    0.8885 H         1 <0>         0.1568
     33 H10        -7.1810   -3.4447    2.2292 H         1 <0>         0.1566
     34 H11        -4.1097    0.4595    2.7357 H         1 <0>         0.1611
     35 H12        -9.0501   -3.0570    3.8746 H         1 <0>         0.4467
     36 H13        -9.6503   -2.0154    5.0483 H         1 <0>         0.4297
     37 H14        -2.1408   -2.0745   -4.1010 H         1 <0>         0.2111
     38 H15        -5.8569   -1.8183   -0.3832 H         1 <0>         0.4073
     39 H16        -6.0742   -2.6377   -1.8338 H         1 <0>         0.4151
     40 H17        -6.0974    1.1764    4.6871 H         1 <0>         0.4749
@<TRIPOS>BOND
     1    1    2 1
     2    1   25 1
     3    1   26 1
     4    1   27 1
     5    2    3 1
     6    2    4 1
     7    2   28 1
     8    3   29 1
     9    3   30 1
    10    3   31 1
    11    4    8 1
    12    4    5 1
    13    5   23 ar
    14    5    6 ar
    15    6    7 1
    16    6   20 ar
    17    7    8 2
    18    7    9 1
    19    9   14 ar
    20    9   10 ar
    21   10   11 ar
    22   10   32 1
    23   11   12 ar
    24   11   33 1
    25   12   13 ar
    26   12   18 2
    27   13   14 ar
    28   13   15 2
    29   14   34 1
    30   15   17 1
    31   15   40 1
    32   16   17 1
    33   17   18 1
    34   18   19 1
    35   19   35 1
    36   19   36 1
    37   20   21 ar
    38   20   24 1
    39   21   22 ar
    40   22   23 ar
    41   22   37 1
    42   24   38 1
    43   24   39 1
@<TRIPOS>MOLECULE
ZINC36056300
   39    42     0     0     0
SMALL
USER_CHARGES

@<TRIPOS>ATOM
      1 C1          0.4081    0.7032    0.7800 C.3       1 <0>        -0.1618
      2 C2          0.2069   -0.7312    0.2873 C.3       1 <0>         0.1609
      3 C3          0.8807   -1.7032    1.2580 C.3       1 <0>        -0.1621
      4 N1         -1.2263   -1.0267    0.2166 N.pl3     1 <0>        -0.3701
      5 C4         -1.9009   -1.3889   -0.9113 C.ar      1 <0>         0.3750
      6 C5         -3.2455   -1.5776   -0.5407 C.ar      1 <0>        -0.3215
      7 C6         -3.3224   -1.3007    0.8936 C.2       1 <0>         0.1630
      8 N2         -2.1138   -0.9869    1.2972 N.2       1 <0>        -0.2264
      9 C7         -4.5394   -1.3682    1.7366 C.ar      1 <0>         0.0337
     10 C8         -5.4112   -2.4583    1.6155 C.ar      1 <0>        -0.1607
     11 C9         -6.5335   -2.5344    2.3833 C.ar      1 <0>        -0.0251
     12 C10        -6.8222   -1.5187    3.3018 C.ar      1 <0>        -0.1880
     13 C11        -5.9521   -0.4186    3.4315 C.ar      1 <0>         0.1561
     14 C12        -4.8063   -0.3538    2.6457 C.ar      1 <0>        -0.1126
     15 N3         -6.4874    0.3998    4.3930 N.pl3     1 <0>        -0.5024
     16 N4         -7.6751   -0.1655    4.8679 N.2       1 <0>        -0.3148
     17 C13        -7.9109   -1.2946    4.2539 C.2       1 <0>         0.3617
     18 N5         -9.0056   -2.1367    4.4680 N.pl3     1 <0>        -0.8327
     19 C14        -4.1668   -1.9602   -1.5291 C.ar      1 <0>         0.5189
     20 N6         -3.7258   -2.1271   -2.7723 N.ar      1 <0>        -0.6051
     21 C15        -2.4540   -1.9390   -3.0760 C.ar      1 <0>         0.3863
     22 N7         -1.5563   -1.5804   -2.1845 N.ar      1 <0>        -0.5746
     23 N8         -5.4980   -2.1588   -1.2175 N.pl3     1 <0>        -0.8276
     24 H1          1.4744    0.9231    0.8327 H         1 <0>         0.0786
     25 H2         -0.0719    1.3956    0.0885 H         1 <0>         0.0601
     26 H3         -0.0347    0.8128    1.7700 H         1 <0>         0.0697
     27 H4          0.6497   -0.8409   -0.7026 H         1 <0>         0.1118
     28 H5          0.4378   -1.5935    2.2479 H         1 <0>         0.0700
     29 H6          0.7373   -2.7251    0.9069 H         1 <0>         0.0603
     30 H7          1.9470   -1.4833    1.3106 H         1 <0>         0.0785
     31 H8         -5.1917   -3.2441    0.9078 H         1 <0>         0.1359
     32 H9         -7.2005   -3.3779    2.2831 H         1 <0>         0.1334
     33 H10        -4.1302    0.4831    2.7395 H         1 <0>         0.1348
     34 H11        -9.0923   -2.9581    3.9594 H         1 <0>         0.4132
     35 H12        -9.6785   -1.8997    5.1251 H         1 <0>         0.4096
     36 H13        -2.1385   -2.0855   -4.0984 H         1 <0>         0.2050
     37 H14        -5.8568   -1.8182   -0.3831 H         1 <0>         0.4149
     38 H15        -6.0739   -2.6388   -1.8330 H         1 <0>         0.4105
     39 H16        -6.1031    1.2373    4.6959 H         1 <0>         0.4433
@<TRIPOS>BOND
     1    1    2 1
     2    1   24 1
     3    1   25 1
     4    1   26 1
     5    2    3 1
     6    2    4 1
     7    2   27 1
     8    3   28 1
     9    3   29 1
    10    3   30 1
    11    4    8 1
    12    4    5 1
    13    5   22 ar
    14    5    6 ar
    15    6    7 1
    16    6   19 ar
    17    7    8 2
    18    7    9 1
    19    9   14 ar
    20    9   10 ar
    21   10   11 ar
    22   10   31 1
    23   11   12 ar
    24   11   32 1
    25   12   13 ar
    26   12   17 1
    27   13   14 ar
    28   13   15 1
    29   14   33 1
    30   15   16 1
    31   15   39 1
    32   16   17 2
    33   17   18 1
    34   18   34 1
    35   18   35 1
    36   19   20 ar
    37   19   23 1
    38   20   21 ar
    39   21   22 ar
    40   21   36 1
    41   23   37 1
    42   23   38 1
@<TRIPOS>MOLECULE
ZINC64539506
   73    79     0     0     0
SMALL
USER_CHARGES

@<TRIPOS>ATOM
      1 C1         -0.8034    1.1981   -2.0475 C.3       1 <0>        -0.1373
      2 C2         -0.9132   -0.3251   -1.9533 C.3       1 <0>        -0.1439
      3 C3         -1.8869   -0.6921   -0.8632 C.2       1 <0>         0.5116
      4 O1         -2.4388    0.1788   -0.2246 O.2       1 <0>        -0.5400
      5 N1         -2.1445   -1.9882   -0.5981 N.am      1 <0>        -0.6057
      6 C4         -1.4786   -3.0541   -1.3597 C.3       1 <0>         0.0914
      7 C5         -0.7731   -3.9935   -0.3738 C.3       1 <0>         0.1227
      8 N2         -1.7246   -4.3662    0.6825 N.pl3     1 <0>        -0.6412
      9 C6         -2.3905   -3.3002    1.4441 C.3       1 <0>         0.0982
     10 C7         -3.0917   -2.3609    0.4620 C.3       1 <0>         0.0636
     11 C8         -1.9917   -5.7105    0.9575 C.ar      1 <0>         0.2762
     12 C9         -0.9536   -6.5704    1.2942 C.ar      1 <0>        -0.1610
     13 C10        -1.2176   -7.8974    1.5661 C.ar      1 <0>        -0.0493
     14 C11        -2.5211   -8.3734    1.5033 C.ar      1 <0>         0.0715
     15 C12        -3.5587   -7.5142    1.1664 C.ar      1 <0>        -0.0251
     16 C13        -3.2958   -6.1854    0.8999 C.ar      1 <0>        -0.2300
     17 C14        -4.4227   -5.2515    0.5409 C.3       1 <0>         0.5187
     18 F1         -5.5990   -5.9873    0.3618 F         1 <0>        -0.1736
     19 F2         -4.6056   -4.3235    1.5717 F         1 <0>        -0.1666
     20 F3         -4.1097   -4.5767   -0.6439 F         1 <0>        -0.1590
     21 N3         -2.7889   -9.7207    1.7794 N.am      1 <0>        -0.4580
     22 C15        -3.0107  -10.5803    0.7663 C.2       1 <0>         0.5296
     23 O2         -2.9762  -10.1764   -0.3836 O.2       1 <0>        -0.5112
     24 C16        -3.2818  -11.9407    1.0174 C.2       1 <0>        -0.2197
     25 C17        -3.3235  -12.4049    2.2923 C.2       1 <0>         0.0019
     26 C18        -3.0911  -11.5032    3.3608 C.ar      1 <0>        -0.1955
     27 C19        -2.8179  -10.1560    3.0758 C.ar      1 <0>         0.2428
     28 C20        -2.5848   -9.2810    4.1622 C.ar      1 <0>        -0.1182
     29 C21        -2.3121   -7.9243    3.9592 C.ar      1 <0>        -0.1236
     30 C22        -2.0902   -7.1022    5.0517 C.ar      1 <0>        -0.0374
     31 C23        -2.1382   -7.6250    6.3522 C.ar      1 <0>        -0.0785
     32 C24        -2.4020   -8.9415    6.5657 C.ar      1 <0>        -0.0891
     33 C25        -2.6316   -9.8018    5.4788 C.ar      1 <0>         0.1627
     34 N4         -2.8928  -11.1013    5.6841 N.ar      1 <0>        -0.4901
     35 C26        -3.1232  -11.9324    4.7010 C.ar      1 <0>         0.2010
     36 C27        -1.7999   -5.6625    4.8453 C.ar      1 <0>        -0.1016
     37 C28        -1.5923   -4.8284    5.9343 C.ar      1 <0>        -0.0453
     38 C29        -1.3208   -3.4723    5.6840 C.ar      1 <0>        -0.0944
     39 C30        -1.0992   -2.5671    6.7358 C.ar      1 <0>        -0.0959
     40 C31        -0.8385   -1.2607    6.4555 C.ar      1 <0>        -0.1116
     41 C32        -0.7888   -0.8087    5.1382 C.ar      1 <0>        -0.0939
     42 C33        -0.9990   -1.6577    4.0955 C.ar      1 <0>        -0.0952
     43 C34        -1.2702   -3.0147    4.3431 C.ar      1 <0>         0.1182
     44 N5         -1.4790   -3.8675    3.3344 N.ar      1 <0>        -0.4443
     45 C35        -1.7275   -5.1349    3.5462 C.ar      1 <0>         0.0932
     46 H1         -0.0991    1.4635   -2.8359 H         1 <0>         0.0611
     47 H2         -1.7820    1.6193   -2.2775 H         1 <0>         0.0612
     48 H3         -0.4509    1.5965   -1.0961 H         1 <0>         0.0611
     49 H4         -1.2657   -0.7235   -2.9046 H         1 <0>         0.0917
     50 H5          0.0655   -0.7463   -1.7232 H         1 <0>         0.0919
     51 H6         -2.2196   -3.6131   -1.9312 H         1 <0>         0.0768
     52 H7         -0.7449   -2.6165   -2.0367 H         1 <0>         0.0956
     53 H8         -0.4386   -4.8891   -0.8974 H         1 <0>         0.0876
     54 H9          0.0831   -3.4839    0.0682 H         1 <0>         0.0691
     55 H10        -3.1241   -3.7379    2.1211 H         1 <0>         0.1097
     56 H11        -1.6495   -2.7412    2.0156 H         1 <0>         0.1163
     57 H12        -3.4232   -1.4654    0.9877 H         1 <0>         0.0941
     58 H13        -3.9503   -2.8693    0.0232 H         1 <0>         0.0751
     59 H14         0.0599   -6.2005    1.3427 H         1 <0>         0.1551
     60 H15        -0.4106   -8.5659    1.8275 H         1 <0>         0.1467
     61 H16        -4.5721   -7.8845    1.1173 H         1 <0>         0.1487
     62 H17        -3.4573  -12.6157    0.1928 H         1 <0>         0.1630
     63 H18        -3.5312  -13.4462    2.4896 H         1 <0>         0.1550
     64 H19        -2.2745   -7.5207    2.9581 H         1 <0>         0.1643
     65 H20        -1.9630   -6.9732    7.1952 H         1 <0>         0.1371
     66 H21        -2.4352   -9.3272    7.5739 H         1 <0>         0.1467
     67 H22        -3.3290  -12.9695    4.9208 H         1 <0>         0.1769
     68 H23        -1.6383   -5.2094    6.9438 H         1 <0>         0.1431
     69 H24        -1.1358   -2.9058    7.7606 H         1 <0>         0.1315
     70 H25        -0.6683   -0.5656    7.2644 H         1 <0>         0.1300
     71 H26        -0.5805    0.2326    4.9415 H         1 <0>         0.1318
     72 H27        -0.9575   -1.2900    3.0808 H         1 <0>         0.1353
     73 H28        -1.8855   -5.7895    2.7018 H         1 <0>         0.1764
@<TRIPOS>BOND
     1    1    2 1
     2    1   46 1
     3    1   47 1
     4    1   48 1
     5    2    3 1
     6    2   49 1
     7    2   50 1
     8    3    4 2
     9    3    5 am
    10    5   10 1
    11    5    6 1
    12    6    7 1
    13    6   51 1
    14    6   52 1
    15    7    8 1
    16    7   53 1
    17    7   54 1
    18    8    9 1
    19    8   11 1
    20    9   10 1
    21    9   55 1
    22    9   56 1
    23   10   57 1
    24   10   58 1
    25   11   16 ar
    26   11   12 ar
    27   12   13 ar
    28   12   59 1
    29   13   14 ar
    30   13   60 1
    31   14   15 ar
    32   14   21 1
    33   15   16 ar
    34   15   61 1
    35   16   17 1
    36   17   18 1
    37   17   19 1
    38   17   20 1
    39   21   27 1
    40   21   22 am
    41   22   23 2
    42   22   24 1
    43   24   25 2
    44   24   62 1
    45   25   26 1
    46   25   63 1
    47   26   35 ar
    48   26   27 ar
    49   27   28 ar
    50   28   33 ar
    51   28   29 ar
    52   29   30 ar
    53   29   64 1
    54   30   31 ar
    55   30   36 1
    56   31   32 ar
    57   31   65 1
    58   32   33 ar
    59   32   66 1
    60   33   34 ar
    61   34   35 ar
    62   35   67 1
    63   36   45 ar
    64   36   37 ar
    65   37   38 ar
    66   37   68 1
    67   38   43 ar
    68   38   39 ar
    69   39   40 ar
    70   39   69 1
    71   40   41 ar
    72   40   70 1
    73   41   42 ar
    74   41   71 1
    75   42   43 ar
    76   42   72 1
    77   43   44 ar
    78   44   45 ar
    79   45   73 1
@<TRIPOS>MOLECULE
ZINC64744203
   44    47     0     0     0
SMALL
USER_CHARGES

@<TRIPOS>ATOM
      1 C1         -0.0055    1.4955    0.4053 C.3       1 <0>        -0.1666
      2 C2          0.0135   -0.0104    0.3513 C.2       1 <0>         0.5025
      3 O1          1.0712   -0.6032    0.3340 O.2       1 <0>        -0.4720
      4 N1         -1.1451   -0.6983    0.3221 N.am      1 <0>        -0.6203
      5 C3         -1.1277   -2.0825    0.2725 C.2       1 <0>         0.3552
      6 N2         -0.0949   -2.8927    0.2531 N.2       1 <0>        -0.4984
      7 C4         -0.2257   -4.2354    0.2035 C.ar      1 <0>         0.0890
      8 C5          0.7997   -5.2108    0.1777 C.ar      1 <0>        -0.0571
      9 C6          0.5046   -6.5350    0.1263 C.ar      1 <0>        -0.0952
     10 C7         -0.8178   -6.9885    0.0974 C.ar      1 <0>         0.0025
     11 C8         -1.8543   -6.0561    0.1220 C.ar      1 <0>        -0.0583
     12 C9         -1.5546   -4.7198    0.1734 C.ar      1 <0>        -0.1363
     13 S1         -2.5055   -3.2199    0.2263 S.3       1 <0>        -0.0053
     14 C10        -1.1138   -8.4409    0.0408 C.ar      1 <0>        -0.0495
     15 C11        -0.0755   -9.3759    0.0214 C.ar      1 <0>        -0.2045
     16 C12        -0.4055  -10.7247   -0.0319 C.ar      1 <0>         0.2566
     17 C13        -1.7471  -11.0932   -0.0639 C.ar      1 <0>         0.1229
     18 N3         -2.7004  -10.1820   -0.0446 N.ar      1 <0>        -0.4446
     19 C14        -2.4313   -8.8932    0.0120 C.ar      1 <0>         0.0216
     20 Cl1        -2.1716  -12.7752   -0.1306 Cl        1 <0>        -0.0448
     21 N4          0.5971  -11.6987   -0.0537 N.2       1 <0>        -1.0618
     22 S2          2.1861  -11.2488   -0.1759 S.o2      1 <0>         2.6037
     23 O2          2.3229  -10.5748   -1.4194 O.2       1 <0>        -1.0221
     24 O3          2.5327  -10.6422    1.0615 O.2       1 <0>        -1.0212
     25 C15         3.1382  -12.7265   -0.2965 C.ar      1 <0>        -0.6279
     26 C16         3.6074  -13.3412    0.8493 C.ar      1 <0>         0.0065
     27 C17         4.3539  -14.5005    0.7560 C.ar      1 <0>        -0.1789
     28 C18         4.6317  -15.0463   -0.4859 C.ar      1 <0>         0.1347
     29 C19         4.1612  -14.4296   -1.6328 C.ar      1 <0>        -0.1789
     30 C20         3.4105  -13.2733   -1.5367 C.ar      1 <0>         0.0067
     31 F1          5.3617  -16.1793   -0.5784 F         1 <0>        -0.1387
     32 H1          1.0175    1.8714    0.4227 H         1 <0>         0.1008
     33 H2         -0.5205    1.8842   -0.4733 H         1 <0>         0.0946
     34 H3         -0.5273    1.8203    1.3055 H         1 <0>         0.0946
     35 H4         -1.9912   -0.2241    0.3359 H         1 <0>         0.4279
     36 H5          1.8329   -4.8968    0.1988 H         1 <0>         0.1353
     37 H6          1.3097   -7.2546    0.1070 H         1 <0>         0.1393
     38 H7         -2.8832   -6.3837    0.1001 H         1 <0>         0.1410
     39 H8          0.9565   -9.0585    0.0469 H         1 <0>         0.1226
     40 H9         -3.2413   -8.1791    0.0311 H         1 <0>         0.1487
     41 H10         3.3909  -12.9152    1.8178 H         1 <0>         0.1477
     42 H11         4.7207  -14.9804    1.6512 H         1 <0>         0.1402
     43 H12         4.3776  -14.8542   -2.6020 H         1 <0>         0.1402
     44 H13         3.0396  -12.7946   -2.4309 H         1 <0>         0.1477
@<TRIPOS>BOND
     1    1    2 1
     2    1   32 1
     3    1   33 1
     4    1   34 1
     5    2    3 2
     6    2    4 am
     7    4    5 1
     8    4   35 1
     9    5   13 1
    10    5    6 2
    11    6    7 1
    12    7   12 ar
    13    7    8 ar
    14    8    9 ar
    15    8   36 1
    16    9   10 ar
    17    9   37 1
    18   10   11 ar
    19   10   14 1
    20   11   12 ar
    21   11   38 1
    22   12   13 1
    23   14   19 ar
    24   14   15 ar
    25   15   16 ar
    26   15   39 1
    27   16   17 ar
    28   16   21 1
    29   17   18 ar
    30   17   20 1
    31   18   19 ar
    32   19   40 1
    33   21   22 1
    34   22   23 2
    35   22   24 2
    36   22   25 1
    37   25   30 ar
    38   25   26 ar
    39   26   27 ar
    40   26   41 1
    41   27   28 ar
    42   27   42 1
    43   28   29 ar
    44   28   31 1
    45   29   30 ar
    46   29   43 1
    47   30   44 1
@<TRIPOS>MOLECULE
ZINC66252202
   30    32     0     0     0
SMALL
USER_CHARGES

@<TRIPOS>ATOM
      1 C1         -0.0170    1.3920   -0.0056 C.ar      1 <0>        -0.2111
      2 C2          1.1482    2.1036   -0.0132 C.ar      1 <0>         0.0094
      3 C3          2.3699    1.4305   -0.0134 C.ar      1 <0>        -0.2561
      4 C4          2.4024    0.0162   -0.0057 C.ar      1 <0>         0.2008
      5 C5          1.2041   -0.6939    0.0020 C.ar      1 <0>        -0.2012
      6 C6          0.0021   -0.0041    0.0020 C.ar      1 <0>         0.2663
      7 N1         -1.1975   -0.7096    0.0102 N.pl3     1 <0>        -0.6219
      8 C7         -2.4867   -0.0105    0.1305 C.3       1 <0>         0.0802
      9 C8         -3.4113   -0.5053   -0.9876 C.3       1 <0>         0.0453
     10 O1         -3.4589   -1.9339   -0.9614 O.3       1 <0>        -0.3779
     11 C9         -2.2007   -2.5660   -1.2087 C.3       1 <0>         0.0457
     12 C10        -1.2144   -2.1763   -0.1075 C.3       1 <0>         0.0803
     13 N2          3.6039   -0.6148   -0.0066 N.2       1 <0>        -0.5295
     14 C11         4.7199    0.0487   -0.0142 C.2       1 <0>         0.3823
     15 N3          4.7818    1.4060   -0.0218 N.am      1 <0>        -0.6609
     16 H1          5.6457    1.8472   -0.0276 H         1 <0>         0.4196
     17 C12         3.6505    2.1484   -0.0218 C.2       1 <0>         0.5517
     18 O2          3.6929    3.3652   -0.0282 O.2       1 <0>        -0.5190
     19 H2         -0.9624    1.9140   -0.0009 H         1 <0>         0.1335
     20 H3          1.1241    3.1833   -0.0193 H         1 <0>         0.1382
     21 H4          1.2116   -1.7739    0.0075 H         1 <0>         0.1394
     22 H5         -2.9338   -0.2292    1.1003 H         1 <0>         0.0773
     23 H6         -2.3324    1.0639    0.0308 H         1 <0>         0.0970
     24 H7         -4.4135   -0.1048   -0.8353 H         1 <0>         0.1081
     25 H8         -3.0276   -0.1714   -1.9517 H         1 <0>         0.0576
     26 H9         -2.3320   -3.6481   -1.2154 H         1 <0>         0.1088
     27 H10        -1.8126   -2.2397   -2.1736 H         1 <0>         0.0571
     28 H11        -0.2180   -2.5355   -0.3648 H         1 <0>         0.0979
     29 H12        -1.5312   -2.6168    0.8379 H         1 <0>         0.0766
     30 H13         5.6463   -0.5066   -0.0141 H         1 <0>         0.2044
@<TRIPOS>BOND
     1    1    6 ar
     2    1    2 ar
     3    1   19 1
     4    2    3 ar
     5    2   20 1
     6    3   17 1
     7    3    4 ar
     8    4    5 ar
     9    4   13 1
    10    5    6 ar
    11    5   21 1
    12    6    7 1
    13    7   12 1
    14    7    8 1
    15    8    9 1
    16    8   22 1
    17    8   23 1
    18    9   10 1
    19    9   24 1
    20    9   25 1
    21   10   11 1
    22   11   12 1
    23   11   26 1
    24   11   27 1
    25   12   28 1
    26   12   29 1
    27   13   14 2
    28   14   15 1
    29   14   30 1
    30   15   16 1
    31   15   17 am
    32   17   18 2
@<TRIPOS>MOLECULE
ZINC00141265
   24    26     0     0     0
SMALL
USER_CHARGES
4-[5-(2-thienylmethyl)-1,2,4-oxadiazol-3-yl]-1,2,5-oxadiazol-3-amine
@<TRIPOS>ATOM
      1 C1          2.2199    1.0478   -0.0135 C.2       1 <0>        -0.1655
      2 C2          1.3000    2.0794    0.0008 C.2       1 <0>        -0.1293
      3 C3         -0.0221    1.7810    0.0118 C.2       1 <0>        -0.1757
      4 S1          0.0021   -0.0041    0.0020 S.3       1 <0>         0.0687
      5 C4          1.7727   -0.2318   -0.0161 C.2       1 <0>        -0.1619
      6 C5         -1.2055    2.7140    0.0228 C.3       1 <0>         0.0624
      7 C6         -1.6075    3.0323   -1.3943 C.2       1 <0>         0.1984
      8 N1         -2.4673    2.3692   -2.1266 N.2       1 <0>        -0.4471
      9 C7         -2.5062    3.0141   -3.3144 C.2       1 <0>         0.2573
     10 N2         -1.6761    4.0209   -3.2344 N.2       1 <0>        -0.3609
     11 O1         -1.1578    4.0478   -2.1381 O.3       1 <0>         0.0995
     12 C8         -3.3366    2.6478   -4.4892 C.2       1 <0>         0.0219
     13 C9         -3.4196    3.3139   -5.8090 C.2       1 <0>         0.3130
     14 N3         -4.2967    2.5745   -6.4470 N.2       1 <0>        -0.4062
     15 O2         -4.6696    1.6798   -5.7252 O.3       1 <0>         0.3440
     16 N4         -4.1785    1.6474   -4.6214 N.2       1 <0>        -0.2879
     17 N5         -2.7400    4.4387   -6.2591 N.pl3     1 <0>        -0.8043
     18 H1          3.2792    1.2581   -0.0228 H         1 <0>         0.1380
     19 H2          1.6298    3.1078    0.0028 H         1 <0>         0.1390
     20 H3          2.3402   -1.1506   -0.0262 H         1 <0>         0.1889
     21 H4         -2.0392    2.2375    0.5386 H         1 <0>         0.1313
     22 H5         -0.9371    3.6352    0.5400 H         1 <0>         0.1317
     23 H6         -2.1128    4.8925   -5.6746 H         1 <0>         0.4244
     24 H7         -2.8927    4.7704   -7.1577 H         1 <0>         0.4204
@<TRIPOS>BOND
     1    1    5 2
     2    1    2 1
     3    1   18 1
     4    2    3 2
     5    2   19 1
     6    3    4 1
     7    3    6 1
     8    4    5 1
     9    5   20 1
    10    6    7 1
    11    6   21 1
    12    6   22 1
    13    7   11 1
    14    7    8 2
    15    8    9 1
    16    9   10 2
    17    9   12 1
    18   10   11 1
    19   12   16 2
    20   12   13 1
    21   13   14 2
    22   13   17 1
    23   14   15 1
    24   15   16 1
    25   17   23 1
    26   17   24 1
@<TRIPOS>MOLECULE
ZINC43154043
   48    51     0     0     0
SMALL
USER_CHARGES

@<TRIPOS>ATOM
      1 C1         -4.2370   -8.6810    0.2591 C.3       1 <0>         0.0402
      2 O1         -5.2414   -7.8807    0.8858 O.3       1 <0>        -0.3083
      3 C2         -5.1728   -6.5393    0.6880 C.ar      1 <0>         0.3030
      4 C3         -6.1186   -5.7097    1.2767 C.ar      1 <0>        -0.1694
      5 C4         -6.0406   -4.3442    1.0695 C.ar      1 <0>        -0.0370
      6 C5         -5.0084   -3.8520    0.2724 C.ar      1 <0>         0.0749
      7 C6         -4.1005   -4.7415   -0.2823 C.ar      1 <0>         0.1137
      8 N1         -4.2036   -6.0378   -0.0581 N.ar      1 <0>        -0.5202
      9 N2         -4.8900   -2.4770    0.0346 N.pl3     1 <0>        -0.6438
     10 C7         -6.0272   -1.6894   -0.0608 C.ar      1 <0>         0.4764
     11 C8         -5.9196   -0.3039   -0.1708 C.ar      1 <0>        -0.3335
     12 C9         -7.0901    0.4457   -0.2639 C.ar      1 <0>         0.3131
     13 N3         -8.2659   -0.1836   -0.2449 N.ar      1 <0>        -0.6001
     14 C10        -8.3274   -1.5014   -0.1392 C.ar      1 <0>         0.6160
     15 N4         -7.2351   -2.2464   -0.0541 N.ar      1 <0>        -0.6192
     16 N5         -9.5662   -2.1185   -0.1228 N.pl3     1 <0>        -0.5851
     17 C11       -10.8056   -1.3321   -0.2271 C.3       1 <0>         0.0943
     18 C12       -11.6771   -1.9470   -1.3281 C.3       1 <0>         0.0461
     19 O2        -11.8321   -3.3462   -1.0794 O.3       1 <0>        -0.3792
     20 C13       -10.6090   -4.0857   -1.1132 C.3       1 <0>         0.0471
     21 C14        -9.6826   -3.5808   -0.0069 C.3       1 <0>         0.0925
     22 C15        -7.0297    1.9221   -0.3821 C.ar      1 <0>        -0.2311
     23 C16        -5.8015    2.5894   -0.4083 C.ar      1 <0>         0.2302
     24 N6         -5.7892    3.9058   -0.5150 N.ar      1 <0>        -0.5711
     25 C17        -6.9204    4.5923   -0.5967 C.ar      1 <0>         0.5762
     26 N7         -8.1042    3.9957   -0.5753 N.ar      1 <0>        -0.5734
     27 C18        -8.1993    2.6820   -0.4761 C.ar      1 <0>         0.2470
     28 N8         -6.8641    5.9688   -0.7069 N.pl3     1 <0>        -0.8125
     29 H1         -4.4079   -9.7308    0.4974 H         1 <0>         0.0965
     30 H2         -4.2827   -8.5415   -0.8209 H         1 <0>         0.0585
     31 H3         -3.2542   -8.3812    0.6229 H         1 <0>         0.0585
     32 H4         -6.9055   -6.1256    1.8884 H         1 <0>         0.1443
     33 H5         -6.7625   -3.6754    1.5145 H         1 <0>         0.1503
     34 H6         -3.2977   -4.3687   -0.9011 H         1 <0>         0.1594
     35 H7         -4.0124   -2.0755   -0.0635 H         1 <0>         0.4243
     36 H8         -4.9524    0.1766   -0.1831 H         1 <0>         0.1422
     37 H9        -11.3396   -1.3608    0.7227 H         1 <0>         0.0755
     38 H10       -10.5652   -0.3001   -0.4826 H         1 <0>         0.1081
     39 H11       -12.6556   -1.4667   -1.3287 H         1 <0>         0.1086
     40 H12       -11.1982   -1.8001   -2.2962 H         1 <0>         0.0552
     41 H13       -10.8191   -5.1441   -0.9592 H         1 <0>         0.1082
     42 H14       -10.1262   -3.9466   -2.0805 H         1 <0>         0.0542
     43 H15        -8.6989   -4.0372   -0.1166 H         1 <0>         0.1066
     44 H16       -10.1016   -3.8397    0.9655 H         1 <0>         0.0748
     45 H17        -4.8762    2.0365   -0.3418 H         1 <0>         0.1733
     46 H18        -9.1669    2.2023   -0.4638 H         1 <0>         0.1793
     47 H19        -6.0052    6.4193   -0.7236 H         1 <0>         0.4174
     48 H20        -7.6835    6.4845   -0.7676 H         1 <0>         0.4177
@<TRIPOS>BOND
     1    1    2 1
     2    1   29 1
     3    1   30 1
     4    1   31 1
     5    2    3 1
     6    3    8 ar
     7    3    4 ar
     8    4    5 ar
     9    4   32 1
    10    5    6 ar
    11    5   33 1
    12    6    7 ar
    13    6    9 1
    14    7    8 ar
    15    7   34 1
    16    9   10 1
    17    9   35 1
    18   10   15 ar
    19   10   11 ar
    20   11   12 ar
    21   11   36 1
    22   12   13 ar
    23   12   22 1
    24   13   14 ar
    25   14   15 ar
    26   14   16 1
    27   16   21 1
    28   16   17 1
    29   17   18 1
    30   17   37 1
    31   17   38 1
    32   18   19 1
    33   18   39 1
    34   18   40 1
    35   19   20 1
    36   20   21 1
    37   20   41 1
    38   20   42 1
    39   21   43 1
    40   21   44 1
    41   22   27 ar
    42   22   23 ar
    43   23   24 ar
    44   23   45 1
    45   24   25 ar
    46   25   26 ar
    47   25   28 1
    48   26   27 ar
    49   27   46 1
    50   28   47 1
    51   28   48 1
@<TRIPOS>MOLECULE
ZINC43154043
   49    52     0     0     0
SMALL
USER_CHARGES

@<TRIPOS>ATOM
      1 C1          2.8334   -8.5330   -3.4328 C.3       1 <0>         0.0358
      2 O1          2.7629   -7.8179   -4.6680 O.3       1 <0>        -0.3005
      3 C2          2.6963   -6.4639   -4.5934 C.ar      1 <0>         0.3317
      4 C3          2.6204   -5.7153   -5.7609 C.ar      1 <0>        -0.1751
      5 C4          2.5529   -4.3363   -5.6748 C.ar      1 <0>        -0.0295
      6 C5          2.5639   -3.7491   -4.4106 C.ar      1 <0>         0.0184
      7 C6          2.6416   -4.5614   -3.2893 C.ar      1 <0>         0.1492
      8 N1          2.6992   -5.8741   -3.4103 N.ar      1 <0>        -0.5191
      9 N2          2.4978   -2.3568   -4.2747 N.pl3     1 <0>        -0.5913
     10 C7          3.1159   -1.5390   -5.2083 C.ar      1 <0>         0.5226
     11 C8          3.1156   -0.1546   -5.0447 C.ar      1 <0>        -0.2790
     12 C9          3.7494    0.6262   -6.0088 C.ar      1 <0>         0.3313
     13 N3          4.3309    0.0264   -7.0485 N.ar      1 <0>        -0.5826
     14 C10         4.3097   -1.2913   -7.1694 C.ar      1 <0>         0.6641
     15 N4          3.7218   -2.0653   -6.2691 N.ar      1 <0>        -0.5765
     16 N5          4.9239   -1.8771   -8.2627 N.pl3     1 <0>        -0.5686
     17 C11         5.7133   -1.0730   -9.2091 C.3       1 <0>         0.0642
     18 C12         7.0756   -1.7496   -9.3994 C.3       1 <0>         0.0475
     19 O2          6.8752   -3.1221   -9.7456 O.3       1 <0>        -0.3639
     20 C13         6.2136   -3.8895   -8.7371 C.3       1 <0>         0.0433
     21 C14         4.8118   -3.3234   -8.5097 C.3       1 <0>         0.0797
     22 C15         3.7766    2.1027   -5.8812 C.ar      1 <0>        -0.2974
     23 C16         4.4053    2.8941   -6.8470 C.ar      1 <0>         0.2461
     24 N6          4.4079    4.2065   -6.6980 N.ar      1 <0>        -0.5570
     25 C17         3.8251    4.7734   -5.6508 C.ar      1 <0>         0.6029
     26 N7          3.2191    4.0570   -4.7143 N.ar      1 <0>        -0.5575
     27 C18         3.1693    2.7396   -4.7949 C.ar      1 <0>         0.2711
     28 N8          3.8505    6.1502   -5.5318 N.pl3     1 <0>        -0.7868
     29 H1          3.7244   -8.2257   -2.8854 H         1 <0>         0.0633
     30 H2          1.9474   -8.3158   -2.8362 H         1 <0>         0.0639
     31 H3          2.8820   -9.6031   -3.6348 H         1 <0>         0.1042
     32 H4          2.6144   -6.2038   -6.7241 H         1 <0>         0.1531
     33 H5          2.4934   -3.7291   -6.5659 H         1 <0>         0.1561
     34 H6          2.6507   -4.1148   -2.3060 H         1 <0>         0.1673
     35 H7          2.0196   -1.9646   -3.5274 H         1 <0>         0.4395
     36 H8          2.6355    0.3015   -4.1915 H         1 <0>         0.1843
     37 H9          5.1941   -1.0175  -10.1658 H         1 <0>         0.1137
     38 H10         5.8547   -0.0690   -8.8088 H         1 <0>         0.0875
     39 H11         7.6224   -1.2487  -10.1983 H         1 <0>         0.1261
     40 H12         7.6457   -1.6874   -8.4724 H         1 <0>         0.0657
     41 H13         6.1403   -4.9282   -9.0594 H         1 <0>         0.1256
     42 H14         6.7805   -3.8352   -7.8077 H         1 <0>         0.0648
     43 H15         4.3566   -3.8091   -7.6465 H         1 <0>         0.1211
     44 H16         4.2003   -3.4984   -9.3949 H         1 <0>         0.1021
     45 H17         4.8823    2.4390   -7.7024 H         1 <0>         0.1660
     46 H18         2.6699    2.1625   -4.0307 H         1 <0>         0.1859
     47 H19         4.2905    6.6875   -6.2090 H         1 <0>         0.4269
     48 H20         3.4284    6.5791   -4.7711 H         1 <0>         0.4278
     49 H21         4.7744    0.5625   -7.7244 H         1 <0>         0.4319
@<TRIPOS>BOND
     1    1    2 1
     2    1   29 1
     3    1   30 1
     4    1   31 1
     5    2    3 1
     6    3    8 ar
     7    3    4 ar
     8    4    5 ar
     9    4   32 1
    10    5    6 ar
    11    5   33 1
    12    6    7 ar
    13    6    9 1
    14    7    8 ar
    15    7   34 1
    16    9   10 1
    17    9   35 1
    18   10   15 ar
    19   10   11 ar
    20   11   12 ar
    21   11   36 1
    22   12   13 ar
    23   12   22 1
    24   13   14 ar
    25   13   49 1
    26   14   15 ar
    27   14   16 1
    28   16   21 1
    29   16   17 1
    30   17   18 1
    31   17   37 1
    32   17   38 1
    33   18   19 1
    34   18   39 1
    35   18   40 1
    36   19   20 1
    37   20   21 1
    38   20   41 1
    39   20   42 1
    40   21   43 1
    41   21   44 1
    42   22   27 ar
    43   22   23 ar
    44   23   24 ar
    45   23   45 1
    46   24   25 ar
    47   25   26 ar
    48   25   28 1
    49   26   27 ar
    50   27   46 1
    51   28   47 1
    52   28   48 1
@<TRIPOS>MOLECULE
ZINC66074200
   45    48     0     0     0
SMALL
USER_CHARGES

@<TRIPOS>ATOM
      1 C1         -0.0225    1.8097    0.0120 C.3       1 <0>        -0.6648
      2 S1          0.0021   -0.0041    0.0020 S.o2      1 <0>         2.6016
      3 O1          0.8352   -0.4880    1.0465 O.2       1 <0>        -0.9124
      4 O2         -1.3147   -0.5105   -0.1678 O.2       1 <0>        -0.9387
      5 N1          0.7947   -0.4113   -1.3938 N.pl3     1 <0>        -0.9169
      6 C2          0.1492   -0.6226   -2.6929 C.3       1 <0>         0.1124
      7 C3          1.2943   -0.9755   -3.6581 C.3       1 <0>        -0.0668
      8 C4          2.5336   -0.9334   -2.7973 C.ar      1 <0>        -0.2886
      9 C5          2.1611   -0.5948   -1.5022 C.ar      1 <0>         0.4616
     10 N2          3.1182   -0.4975   -0.5739 N.ar      1 <0>        -0.5869
     11 C6          4.3875   -0.7137   -0.8776 C.ar      1 <0>         0.6105
     12 N3          4.7730   -1.0340   -2.1025 N.ar      1 <0>        -0.5767
     13 C7          3.8756   -1.1584   -3.0828 C.ar      1 <0>         0.3187
     14 C8          4.3043   -1.5162   -4.4559 C.ar      1 <0>        -0.2271
     15 C9          3.4946   -2.3072   -5.2763 C.ar      1 <0>         0.2265
     16 N4          3.9116   -2.6046   -6.4938 N.ar      1 <0>        -0.5684
     17 C10         5.0797   -2.1635   -6.9394 C.ar      1 <0>         0.5755
     18 N5          5.8754   -1.4118   -6.1915 N.ar      1 <0>        -0.5711
     19 C11         5.5260   -1.0665   -4.9654 C.ar      1 <0>         0.2446
     20 N6          5.4794   -2.4972   -8.2197 N.pl3     1 <0>        -0.8130
     21 N7          5.3430   -0.6007    0.1173 N.pl3     1 <0>        -0.5828
     22 C12         4.9637   -0.2523    1.4957 C.3       1 <0>         0.0877
     23 C13         5.6035   -1.2714    2.4454 C.3       1 <0>         0.0472
     24 O3          7.0047   -1.3529    2.1738 O.3       1 <0>        -0.3802
     25 C14         7.3200   -1.8170    0.8590 C.3       1 <0>         0.0464
     26 C15         6.7675   -0.8313   -0.1708 C.3       1 <0>         0.0935
     27 H1          1.0001    2.1870    0.0043 H         1 <0>         0.1314
     28 H2         -0.5497    2.1708   -0.8711 H         1 <0>         0.1299
     29 H3         -0.5327    2.1613    0.9088 H         1 <0>         0.1368
     30 H4         -0.5620   -1.4464   -2.6324 H         1 <0>         0.1015
     31 H5         -0.3528    0.2885   -3.0186 H         1 <0>         0.0926
     32 H6          1.1508   -1.9741   -4.0709 H         1 <0>         0.0926
     33 H7          1.3602   -0.2375   -4.4575 H         1 <0>         0.0940
     34 H8          2.5420   -2.6702   -4.9196 H         1 <0>         0.1732
     35 H9          6.1769   -0.4497   -4.3635 H         1 <0>         0.1750
     36 H10         4.9079   -3.0468   -8.7784 H         1 <0>         0.4175
     37 H11         6.3315   -2.1818   -8.5594 H         1 <0>         0.4176
     38 H12         5.3243    0.7483    1.7340 H         1 <0>         0.0750
     39 H13         3.8790   -0.2861    1.5977 H         1 <0>         0.1166
     40 H14         5.4504   -0.9540    3.4769 H         1 <0>         0.1089
     41 H15         5.1457   -2.2488    2.2928 H         1 <0>         0.0565
     42 H16         8.4019   -1.8920    0.7490 H         1 <0>         0.1087
     43 H17         6.8684   -2.7963    0.7005 H         1 <0>         0.0551
     44 H18         6.8767   -1.2484   -1.1719 H         1 <0>         0.1086
     45 H19         7.3128    0.1100   -0.1032 H         1 <0>         0.0762
@<TRIPOS>BOND
     1    1    2 1
     2    1   27 1
     3    1   28 1
     4    1   29 1
     5    2    3 2
     6    2    4 2
     7    2    5 1
     8    5    9 1
     9    5    6 1
    10    6    7 1
    11    6   30 1
    12    6   31 1
    13    7    8 1
    14    7   32 1
    15    7   33 1
    16    8   13 ar
    17    8    9 ar
    18    9   10 ar
    19   10   11 ar
    20   11   12 ar
    21   11   21 1
    22   12   13 ar
    23   13   14 1
    24   14   19 ar
    25   14   15 ar
    26   15   16 ar
    27   15   34 1
    28   16   17 ar
    29   17   18 ar
    30   17   20 1
    31   18   19 ar
    32   19   35 1
    33   20   36 1
    34   20   37 1
    35   21   26 1
    36   21   22 1
    37   22   23 1
    38   22   38 1
    39   22   39 1
    40   23   24 1
    41   23   40 1
    42   23   41 1
    43   24   25 1
    44   25   26 1
    45   25   42 1
    46   25   43 1
    47   26   44 1
    48   26   45 1
@<TRIPOS>MOLECULE
ZINC71318831
   47    51     0     0     0
SMALL
USER_CHARGES

@<TRIPOS>ATOM
      1 C1          0.2267    1.2917    3.1105 C.ar      1 <0>        -0.1048
      2 C2          0.7883    2.0335    2.0872 C.ar      1 <0>        -0.0492
      3 C3          1.3809    1.3967    1.0124 C.ar      1 <0>        -0.1770
      4 C4          1.4134    0.0169    0.9574 C.ar      1 <0>        -0.0607
      5 C5          0.8504   -0.7308    1.9832 C.ar      1 <0>         0.1153
      6 C6          0.2562   -0.0880    3.0617 C.ar      1 <0>        -0.0726
      7 N1          0.8813   -2.1292    1.9303 N.am      1 <0>        -0.4650
      8 C7          1.9425   -2.7946    2.4261 C.2       1 <0>         0.5305
      9 O1          2.8677   -2.1707    2.9170 O.2       1 <0>        -0.5127
     10 C8          1.9975   -4.2027    2.3852 C.2       1 <0>        -0.2210
     11 C9          0.9748   -4.9109    1.8422 C.2       1 <0>         0.0033
     12 C10        -0.1435   -4.2143    1.3195 C.ar      1 <0>        -0.1948
     13 C11        -0.1693   -2.8122    1.3805 C.ar      1 <0>         0.2404
     14 C12        -1.3002   -2.1448    0.8557 C.ar      1 <0>        -0.1170
     15 C13        -1.3968   -0.7495    0.8750 C.ar      1 <0>        -0.1287
     16 C14        -2.5222   -0.1364    0.3498 C.ar      1 <0>        -0.0197
     17 C15        -3.5579   -0.9075   -0.1974 C.ar      1 <0>        -0.0774
     18 C16        -3.4791   -2.2645   -0.2231 C.ar      1 <0>        -0.0904
     19 C17        -2.3506   -2.9170    0.3011 C.ar      1 <0>         0.1577
     20 N2         -2.2672   -4.2555    0.2770 N.ar      1 <0>        -0.4883
     21 C18        -1.2302   -4.9002    0.7452 C.ar      1 <0>         0.1970
     22 C19        -2.6328    1.3425    0.3668 C.ar      1 <0>        -0.1697
     23 C20        -3.8678    1.9592    0.6001 C.ar      1 <0>        -0.0151
     24 C21        -3.9221    3.3386    0.6066 C.ar      1 <0>        -0.2349
     25 C22        -2.7560    4.0659    0.3826 C.ar      1 <0>         0.4102
     26 N3         -1.6034    3.4512    0.1646 N.ar      1 <0>        -0.5346
     27 C23        -1.5090    2.1365    0.1567 C.ar      1 <0>         0.1618
     28 N4         -2.8024    5.4544    0.3876 N.pl3     1 <0>        -0.8471
     29 C24         1.9916    2.2090   -0.1004 C.3       1 <0>         0.5102
     30 F1          1.8362    3.5713    0.1772 F         1 <0>        -0.1642
     31 F2          3.3535    1.9068   -0.2051 F         1 <0>        -0.1718
     32 F3          1.3520    1.9028   -1.3064 F         1 <0>        -0.1720
     33 H1         -0.2315    1.7920    3.9508 H         1 <0>         0.1508
     34 H2          0.7635    3.1124    2.1275 H         1 <0>         0.1536
     35 H3          1.8758   -0.4799    0.1173 H         1 <0>         0.1444
     36 H4         -0.1825   -0.6667    3.8611 H         1 <0>         0.1432
     37 H5          2.8564   -4.7197    2.7871 H         1 <0>         0.1630
     38 H6          1.0128   -5.9897    1.8085 H         1 <0>         0.1550
     39 H7         -0.5999   -0.1548    1.2966 H         1 <0>         0.1586
     40 H8         -4.4300   -0.4167   -0.6036 H         1 <0>         0.1365
     41 H9         -4.2863   -2.8427   -0.6478 H         1 <0>         0.1451
     42 H10        -1.2128   -5.9792    0.7016 H         1 <0>         0.1761
     43 H11        -4.7567    1.3699    0.7705 H         1 <0>         0.1373
     44 H12        -4.8581    3.8477    0.7829 H         1 <0>         0.1350
     45 H13        -0.5508    1.6705   -0.0194 H         1 <0>         0.1482
     46 H14        -3.6434    5.9110    0.5463 H         1 <0>         0.4097
     47 H15        -1.9939    5.9673    0.2323 H         1 <0>         0.4063
@<TRIPOS>BOND
     1    1    6 ar
     2    1    2 ar
     3    1   33 1
     4    2    3 ar
     5    2   34 1
     6    3    4 ar
     7    3   29 1
     8    4    5 ar
     9    4   35 1
    10    5    6 ar
    11    5    7 1
    12    6   36 1
    13    7   13 1
    14    7    8 am
    15    8    9 2
    16    8   10 1
    17   10   11 2
    18   10   37 1
    19   11   12 1
    20   11   38 1
    21   12   21 ar
    22   12   13 ar
    23   13   14 ar
    24   14   19 ar
    25   14   15 ar
    26   15   16 ar
    27   15   39 1
    28   16   17 ar
    29   16   22 1
    30   17   18 ar
    31   17   40 1
    32   18   19 ar
    33   18   41 1
    34   19   20 ar
    35   20   21 ar
    36   21   42 1
    37   22   27 ar
    38   22   23 ar
    39   23   24 ar
    40   23   43 1
    41   24   25 ar
    42   24   44 1
    43   25   26 ar
    44   25   28 1
    45   26   27 ar
    46   27   45 1
    47   28   46 1
    48   28   47 1
    49   29   30 1
    50   29   31 1
    51   29   32 1
@<TRIPOS>MOLECULE
ZINC71318831
   48    52     0     0     0
SMALL
USER_CHARGES

@<TRIPOS>ATOM
      1 C1          0.2240    1.2917    3.1082 C.ar      1 <0>        -0.1055
      2 C2          0.7886    2.0335    2.0865 C.ar      1 <0>        -0.0699
      3 C3          1.3842    1.3968    1.0134 C.ar      1 <0>        -0.1869
      4 C4          1.4167    0.0169    0.9584 C.ar      1 <0>        -0.0576
      5 C5          0.8507   -0.7307    1.9826 C.ar      1 <0>         0.1208
      6 C6          0.2535   -0.0880    3.0594 C.ar      1 <0>        -0.0709
      7 N1          0.8816   -2.1292    1.9297 N.am      1 <0>        -0.4702
      8 C7          1.9429   -2.7946    2.4252 C.2       1 <0>         0.5309
      9 O1          2.8682   -2.1706    2.9160 O.2       1 <0>        -0.5022
     10 C8          1.9979   -4.2027    2.3844 C.2       1 <0>        -0.2090
     11 C9          0.9751   -4.9109    1.8416 C.2       1 <0>        -0.0011
     12 C10        -0.1433   -4.2142    1.3191 C.ar      1 <0>        -0.1850
     13 C11        -0.1691   -2.8122    1.3801 C.ar      1 <0>         0.2400
     14 C12        -1.3001   -2.1448    0.8555 C.ar      1 <0>        -0.1250
     15 C13        -1.3967   -0.7495    0.8748 C.ar      1 <0>        -0.0953
     16 C14        -2.5222   -0.1364    0.3498 C.ar      1 <0>        -0.0720
     17 C15        -3.5580   -0.9075   -0.1972 C.ar      1 <0>        -0.0787
     18 C16        -3.4792   -2.2645   -0.2229 C.ar      1 <0>        -0.0796
     19 C17        -2.3506   -2.9170    0.3012 C.ar      1 <0>         0.1789
     20 N2         -2.2672   -4.2555    0.2770 N.ar      1 <0>        -0.4909
     21 C18        -1.2301   -4.9002    0.7450 C.ar      1 <0>         0.2178
     22 C19        -2.6328    1.3425    0.3668 C.ar      1 <0>        -0.0726
     23 C20        -1.5036    2.1411    0.1497 C.ar      1 <0>         0.0267
     24 C21        -1.6550    3.5131    0.1748 C.ar      1 <0>        -0.1861
     25 C22        -2.9158    4.0536    0.4133 C.ar      1 <0>         0.4528
     26 N3         -3.9639    3.2696    0.6153 N.ar      1 <0>        -0.4933
     27 C23        -3.8617    1.9556    0.5931 C.ar      1 <0>         0.1497
     28 N4         -3.0764    5.4333    0.4401 N.pl3     1 <0>        -0.8160
     29 C24         1.9982    2.2090   -0.0976 C.3       1 <0>         0.5078
     30 F1          1.8421    3.5713    0.1796 F         1 <0>        -0.1721
     31 F2          3.3604    1.9067   -0.1984 F         1 <0>        -0.1603
     32 F3          1.3620    1.9030   -1.3054 F         1 <0>        -0.1731
     33 H1         -0.2366    1.7921    3.9472 H         1 <0>         0.1554
     34 H2          0.7639    3.1125    2.1268 H         1 <0>         0.1546
     35 H3          1.8815   -0.4798    0.1196 H         1 <0>         0.1506
     36 H4         -0.1876   -0.6667    3.8575 H         1 <0>         0.1492
     37 H5          2.8569   -4.7196    2.7861 H         1 <0>         0.1689
     38 H6          1.0131   -5.9897    1.8079 H         1 <0>         0.1611
     39 H7         -0.5997   -0.1548    1.2962 H         1 <0>         0.1588
     40 H8         -4.4302   -0.4167   -0.6033 H         1 <0>         0.1399
     41 H9         -4.2865   -2.8427   -0.6475 H         1 <0>         0.1540
     42 H10        -1.2128   -5.9792    0.7015 H         1 <0>         0.1843
     43 H11        -0.5372    1.6946   -0.0326 H         1 <0>         0.1625
     44 H12        -0.8053    4.1595    0.0117 H         1 <0>         0.1839
     45 H13        -4.7398    1.3485    0.7568 H         1 <0>         0.2119
     46 H14        -2.3129    6.0134    0.2932 H         1 <0>         0.4424
     47 H15        -3.9519    5.8166    0.6056 H         1 <0>         0.4236
     48 H16        -4.8306    3.6730    0.7794 H         1 <0>         0.4467
@<TRIPOS>BOND
     1    1    6 ar
     2    1    2 ar
     3    1   33 1
     4    2    3 ar
     5    2   34 1
     6    3    4 ar
     7    3   29 1
     8    4    5 ar
     9    4   35 1
    10    5    6 ar
    11    5    7 1
    12    6   36 1
    13    7   13 1
    14    7    8 am
    15    8    9 2
    16    8   10 1
    17   10   11 2
    18   10   37 1
    19   11   12 1
    20   11   38 1
    21   12   21 ar
    22   12   13 ar
    23   13   14 ar
    24   14   19 ar
    25   14   15 ar
    26   15   16 ar
    27   15   39 1
    28   16   17 ar
    29   16   22 1
    30   17   18 ar
    31   17   40 1
    32   18   19 ar
    33   18   41 1
    34   19   20 ar
    35   20   21 ar
    36   21   42 1
    37   22   27 ar
    38   22   23 ar
    39   23   24 ar
    40   23   43 1
    41   24   25 ar
    42   24   44 1
    43   25   26 ar
    44   25   28 1
    45   26   27 ar
    46   26   48 1
    47   27   45 1
    48   28   46 1
    49   28   47 1
    50   29   30 1
    51   29   31 1
    52   29   32 1
@<TRIPOS>MOLECULE
ZINC06718666
   40    43     0     0     0
SMALL
USER_CHARGES
3-[2,4-diamino-7-(3-hydroxyphenyl)pteridin-6-yl]phenol
@<TRIPOS>ATOM
      1 C1         -2.5738    3.3070   -2.8460 C.ar      1 <0>        -0.1000
      2 C2         -1.6625    4.0153   -2.0888 C.ar      1 <0>        -0.0956
      3 C3         -2.0105    5.2592   -1.5633 C.ar      1 <0>        -0.0208
      4 C4         -3.2760    5.7872   -1.8136 C.ar      1 <0>        -0.1118
      5 C5         -4.1818    5.0711   -2.5780 C.ar      1 <0>         0.1041
      6 C6         -3.8287    3.8311   -3.0933 C.ar      1 <0>        -0.1315
      7 O1         -5.4167    5.5825   -2.8243 O.3       1 <0>        -0.4974
      8 C7         -1.0360    6.0200   -0.7467 C.ar      1 <0>         0.0968
      9 C8         -0.2989    5.3612    0.2658 C.ar      1 <0>         0.2245
     10 N1          0.5708    6.0309    1.0046 N.ar      1 <0>        -0.4312
     11 C9          0.7591    7.3340    0.7843 C.ar      1 <0>         0.3820
     12 C10         0.0176    7.9895   -0.2319 C.ar      1 <0>        -0.0919
     13 N2         -0.8584    7.3118   -0.9673 N.ar      1 <0>        -0.3675
     14 C11         0.2526    9.4201   -0.4339 C.ar      1 <0>         0.5461
     15 N3          1.1448   10.0151    0.3463 N.ar      1 <0>        -0.6266
     16 C12         1.8046    9.3382    1.2806 C.ar      1 <0>         0.6425
     17 N4          1.6317    8.0505    1.5043 N.ar      1 <0>        -0.6003
     18 N5          2.7209   10.0202    2.0583 N.pl3     1 <0>        -0.8048
     19 N6         -0.4297   10.1245   -1.4020 N.pl3     1 <0>        -0.7906
     20 C13        -0.5066    3.9142    0.5042 C.ar      1 <0>        -0.0440
     21 C14        -1.7994    3.3925    0.5591 C.ar      1 <0>        -0.0850
     22 C15        -1.9896    2.0429    0.7747 C.ar      1 <0>        -0.1032
     23 C16        -0.9024    1.2064    0.9486 C.ar      1 <0>        -0.1231
     24 C17         0.3873    1.7170    0.8960 C.ar      1 <0>         0.1021
     25 C18         0.5888    3.0692    0.6739 C.ar      1 <0>        -0.0998
     26 O2          1.4527    0.8897    1.0620 O.3       1 <0>        -0.4952
     27 H1         -2.3041    2.3423   -3.2499 H         1 <0>         0.1325
     28 H2         -0.6814    3.6048   -1.9009 H         1 <0>         0.1271
     29 H3         -3.5495    6.7518   -1.4122 H         1 <0>         0.1317
     30 H4         -4.5366    3.2746   -3.6895 H         1 <0>         0.1317
     31 H5         -5.4667    6.1211   -3.6258 H         1 <0>         0.3923
     32 H6          3.2168    9.5509    2.7474 H         1 <0>         0.4206
     33 H7          2.8681   10.9682    1.9153 H         1 <0>         0.4179
     34 H8         -1.0786    9.6727   -1.9638 H         1 <0>         0.4259
     35 H9         -0.2611   11.0722   -1.5217 H         1 <0>         0.4173
     36 H10        -2.6508    4.0439    0.4285 H         1 <0>         0.1296
     37 H11        -2.9907    1.6395    0.8122 H         1 <0>         0.1346
     38 H12        -1.0570    0.1516    1.1216 H         1 <0>         0.1335
     39 H13         1.5917    3.4677    0.6320 H         1 <0>         0.1355
     40 H14         1.7833    0.5042    0.2390 H         1 <0>         0.3919
@<TRIPOS>BOND
     1    1    6 ar
     2    1    2 ar
     3    1   27 1
     4    2    3 ar
     5    2   28 1
     6    3    4 ar
     7    3    8 1
     8    4    5 ar
     9    4   29 1
    10    5    6 ar
    11    5    7 1
    12    6   30 1
    13    7   31 1
    14    8   13 ar
    15    8    9 ar
    16    9   10 ar
    17    9   20 1
    18   10   11 ar
    19   11   17 ar
    20   11   12 ar
    21   12   13 ar
    22   12   14 ar
    23   14   15 ar
    24   14   19 1
    25   15   16 ar
    26   16   17 ar
    27   16   18 1
    28   18   32 1
    29   18   33 1
    30   19   34 1
    31   19   35 1
    32   20   25 ar
    33   20   21 ar
    34   21   22 ar
    35   21   36 1
    36   22   23 ar
    37   22   37 1
    38   23   24 ar
    39   23   38 1
    40   24   25 ar
    41   24   26 1
    42   25   39 1
    43   26   40 1
@<TRIPOS>MOLECULE
ZINC06718666
   41    44     0     0     0
SMALL
USER_CHARGES
3-[2,4-diamino-7-(3-hydroxyphenyl)pteridin-6-yl]phenol
@<TRIPOS>ATOM
      1 C1         -2.5738    3.3070   -2.8460 C.ar      1 <0>        -0.0971
      2 C2         -1.6625    4.0153   -2.0888 C.ar      1 <0>        -0.0865
      3 C3         -2.0105    5.2592   -1.5633 C.ar      1 <0>        -0.0567
      4 C4         -3.2760    5.7872   -1.8136 C.ar      1 <0>        -0.1030
      5 C5         -4.1818    5.0711   -2.5780 C.ar      1 <0>         0.1100
      6 C6         -3.8287    3.8311   -3.0933 C.ar      1 <0>        -0.1134
      7 O1         -5.4167    5.5825   -2.8243 O.3       1 <0>        -0.4939
      8 C7         -1.0360    6.0200   -0.7467 C.ar      1 <0>         0.1573
      9 C8         -0.2989    5.3612    0.2658 C.ar      1 <0>         0.2583
     10 N1          0.5708    6.0309    1.0046 N.ar      1 <0>        -0.4438
     11 C9          0.7591    7.3340    0.7843 C.ar      1 <0>         0.3445
     12 C10         0.0176    7.9895   -0.2319 C.ar      1 <0>        -0.0192
     13 N2         -0.8584    7.3118   -0.9673 N.ar      1 <0>        -0.3584
     14 C11         0.2526    9.4201   -0.4339 C.ar      1 <0>         0.5825
     15 N3          1.1448   10.0151    0.3463 N.ar      1 <0>        -0.5744
     16 C12         1.8046    9.3382    1.2806 C.ar      1 <0>         0.7111
     17 N4          2.7209   10.0202    2.0583 N.pl3     1 <0>        -0.7755
     18 N5         -0.4297   10.1245   -1.4020 N.pl3     1 <0>        -0.7318
     19 C13        -0.5066    3.9142    0.5042 C.ar      1 <0>        -0.0744
     20 C14        -1.7994    3.3925    0.5591 C.ar      1 <0>        -0.0758
     21 C15        -1.9896    2.0429    0.7747 C.ar      1 <0>        -0.0992
     22 C16        -0.9024    1.2064    0.9486 C.ar      1 <0>        -0.1053
     23 C17         0.3873    1.7170    0.8960 C.ar      1 <0>         0.1076
     24 C18         0.5888    3.0692    0.6739 C.ar      1 <0>        -0.0953
     25 O2          1.4527    0.8897    1.0620 O.3       1 <0>        -0.4928
     26 H1         -2.3041    2.3423   -3.2499 H         1 <0>         0.1400
     27 H2         -0.6814    3.6048   -1.9009 H         1 <0>         0.1303
     28 H3         -3.5495    6.7518   -1.4122 H         1 <0>         0.1349
     29 H4         -4.5366    3.2746   -3.6895 H         1 <0>         0.1399
     30 H5         -5.4667    6.1211   -3.6258 H         1 <0>         0.3980
     31 H6          3.2168    9.5509    2.7474 H         1 <0>         0.4343
     32 H7          2.8681   10.9682    1.9153 H         1 <0>         0.4464
     33 H8         -1.0786    9.6727   -1.9638 H         1 <0>         0.4434
     34 H9         -0.2611   11.0722   -1.5217 H         1 <0>         0.4371
     35 H10        -2.6508    4.0439    0.4285 H         1 <0>         0.1338
     36 H11        -2.9907    1.6395    0.8122 H         1 <0>         0.1426
     37 H12        -1.0570    0.1516    1.1216 H         1 <0>         0.1418
     38 H13         1.5917    3.4677    0.6320 H         1 <0>         0.1360
     39 H14         1.7833    0.5042    0.2390 H         1 <0>         0.3981
     40 N6          1.6721    8.0166    1.5591 N.ar      1 <0>        -0.5944
     41 H15         2.1840    7.5345    2.2701 H         1 <0>         0.4629
@<TRIPOS>BOND
     1    1    6 ar
     2    1    2 ar
     3    1   26 1
     4    2    3 ar
     5    2   27 1
     6    3    4 ar
     7    3    8 1
     8    4    5 ar
     9    4   28 1
    10    5    6 ar
    11    5    7 1
    12    6   29 1
    13    7   30 1
    14    8   13 ar
    15    8    9 ar
    16    9   10 ar
    17    9   19 1
    18   10   11 ar
    19   11   12 ar
    20   11   40 ar
    21   12   13 ar
    22   12   14 ar
    23   14   15 ar
    24   14   18 1
    25   15   16 ar
    26   16   17 1
    27   16   40 ar
    28   17   31 1
    29   17   32 1
    30   18   33 1
    31   18   34 1
    32   19   24 ar
    33   19   20 ar
    34   20   21 ar
    35   20   35 1
    36   21   22 ar
    37   21   36 1
    38   22   23 ar
    39   22   37 1
    40   23   24 ar
    41   23   25 1
    42   24   38 1
    43   25   39 1
    44   40   41 1
@<TRIPOS>MOLECULE
ZINC06718666
   41    44     0     0     0
SMALL
USER_CHARGES
3-[2,4-diamino-7-(3-hydroxyphenyl)pteridin-6-yl]phenol
@<TRIPOS>ATOM
      1 C1         -2.5738    3.3070   -2.8460 C.ar      1 <0>        -0.0964
      2 C2         -1.6625    4.0153   -2.0888 C.ar      1 <0>        -0.0825
      3 C3         -2.0105    5.2592   -1.5633 C.ar      1 <0>        -0.0623
      4 C4         -3.2760    5.7872   -1.8136 C.ar      1 <0>        -0.1007
      5 C5         -4.1818    5.0711   -2.5780 C.ar      1 <0>         0.1098
      6 C6         -3.8287    3.8311   -3.0933 C.ar      1 <0>        -0.1092
      7 O1         -5.4167    5.5825   -2.8243 O.3       1 <0>        -0.4931
      8 C7         -1.0360    6.0200   -0.7467 C.ar      1 <0>         0.1862
      9 C8         -0.2989    5.3612    0.2658 C.ar      1 <0>         0.2854
     10 N1          0.5708    6.0309    1.0046 N.ar      1 <0>        -0.4091
     11 C9          0.7591    7.3340    0.7843 C.ar      1 <0>         0.3667
     12 C10         0.0176    7.9895   -0.2319 C.ar      1 <0>        -0.1308
     13 N2         -0.8584    7.3118   -0.9673 N.ar      1 <0>        -0.3702
     14 C11         0.2526    9.4201   -0.4339 C.ar      1 <0>         0.4561
     15 N3          1.1448   10.0151    0.3463 N.ar      1 <0>        -0.5007
     16 C12         1.8046    9.3382    1.2806 C.ar      1 <0>         0.5748
     17 N4          2.7209   10.0202    2.0583 N.pl3     1 <0>        -0.7400
     18 N5         -0.4297   10.1245   -1.4020 N.pl3     1 <0>        -0.7129
     19 C13        -0.5066    3.9142    0.5042 C.ar      1 <0>        -0.0819
     20 C14        -1.7994    3.3925    0.5591 C.ar      1 <0>        -0.0728
     21 C15        -1.9896    2.0429    0.7747 C.ar      1 <0>        -0.1006
     22 C16        -0.9024    1.2064    0.9486 C.ar      1 <0>        -0.1000
     23 C17         0.3873    1.7170    0.8960 C.ar      1 <0>         0.1082
     24 C18         0.5888    3.0692    0.6739 C.ar      1 <0>        -0.0878
     25 O2          1.4527    0.8897    1.0620 O.3       1 <0>        -0.4910
     26 H1         -2.3041    2.3423   -3.2499 H         1 <0>         0.1420
     27 H2         -0.6814    3.6048   -1.9009 H         1 <0>         0.1328
     28 H3         -3.5495    6.7518   -1.4122 H         1 <0>         0.1355
     29 H4         -4.5366    3.2746   -3.6895 H         1 <0>         0.1413
     30 H5         -5.4667    6.1211   -3.6258 H         1 <0>         0.3981
     31 H6          3.2168    9.5509    2.7474 H         1 <0>         0.4505
     32 H7          2.8681   10.9682    1.9153 H         1 <0>         0.4360
     33 H8         -1.0786    9.6727   -1.9638 H         1 <0>         0.4660
     34 H9         -0.2611   11.0722   -1.5217 H         1 <0>         0.4551
     35 H10        -2.6508    4.0439    0.4285 H         1 <0>         0.1347
     36 H11        -2.9907    1.6395    0.8122 H         1 <0>         0.1439
     37 H12        -1.0570    0.1516    1.1216 H         1 <0>         0.1432
     38 H13         1.5917    3.4677    0.6320 H         1 <0>         0.1399
     39 H14         1.7833    0.5042    0.2390 H         1 <0>         0.3983
     40 N6          1.6721    8.0166    1.5591 N.ar      1 <0>        -0.4678
     41 H15         0.4762    9.5473   -0.2317 H         1 <0>         0.4052
@<TRIPOS>BOND
     1    1    6 ar
     2    1    2 ar
     3    1   26 1
     4    2    3 ar
     5    2   27 1
     6    3    4 ar
     7    3    8 1
     8    4    5 ar
     9    4   28 1
    10    5    6 ar
    11    5    7 1
    12    6   29 1
    13    7   30 1
    14    8   13 ar
    15    8    9 ar
    16    9   10 ar
    17    9   19 1
    18   10   11 ar
    19   11   12 ar
    20   11   40 ar
    21   12   13 ar
    22   12   14 ar
    23   14   15 ar
    24   14   18 1
    25   15   16 ar
    26   15   41 1
    27   16   17 1
    28   16   40 ar
    29   17   31 1
    30   17   32 1
    31   18   33 1
    32   18   34 1
    33   19   24 ar
    34   19   20 ar
    35   20   21 ar
    36   20   35 1
    37   21   22 ar
    38   21   36 1
    39   22   23 ar
    40   22   37 1
    41   23   24 ar
    42   23   25 1
    43   24   38 1
    44   25   39 1
@<TRIPOS>MOLECULE
ZINC29127351
   55    59     0     0     0
SMALL
USER_CHARGES
2-methyl-2-[4-[3-methyl-2-oxo-8-[2-(3-pyridyl)ethynyl]imidazo[4,5-c]quinolin-1-yl]phenyl]propanenitrile
@<TRIPOS>ATOM
      1 C1         -4.7269    5.3815    1.3628 C.3       1 <0>        -0.1524
      2 C2         -4.6650    4.5971    0.0506 C.3       1 <0>         0.0804
      3 C3         -4.6138    5.5742   -1.1257 C.3       1 <0>        -0.1452
      4 C4         -5.8605    3.7468   -0.0696 C.1       1 <0>         0.2086
      5 N1         -6.7831    3.0905   -0.1624 N.1       1 <0>        -0.4152
      6 C5         -3.4306    3.7328    0.0397 C.ar      1 <0>        -0.0669
      7 C6         -3.1611    2.9284   -1.0523 C.ar      1 <0>        -0.0949
      8 C7         -2.0303    2.1354   -1.0654 C.ar      1 <0>        -0.0925
      9 C8         -1.1637    2.1465    0.0195 C.ar      1 <0>         0.1317
     10 C9         -1.4399    2.9513    1.1168 C.ar      1 <0>        -0.0961
     11 C10        -2.5695    3.7460    1.1217 C.ar      1 <0>        -0.0965
     12 N2         -0.0162    1.3429    0.0094 N.am      1 <0>        -0.4789
     13 C11         1.2476    1.7435   -0.3821 C.ar      1 <0>         0.1394
     14 C12         1.8016    2.9527   -0.8539 C.ar      1 <0>        -0.0685
     15 C13         1.0184    4.1001   -1.0187 C.ar      1 <0>        -0.0715
     16 C14         1.6065    5.2671   -1.4867 C.ar      1 <0>         0.0248
     17 C15         2.9796    5.2966   -1.7927 C.ar      1 <0>        -0.0785
     18 C16         3.7511    4.1910   -1.6376 C.ar      1 <0>        -0.0792
     19 C17         3.1843    2.9925   -1.1655 C.ar      1 <0>         0.1403
     20 N3          3.9373    1.8974   -1.0103 N.ar      1 <0>        -0.4576
     21 C18         3.4379    0.7657   -0.5728 C.ar      1 <0>         0.1754
     22 C19         2.0881    0.6439   -0.2446 C.ar      1 <0>         0.0245
     23 N4          1.3028   -0.4032    0.2310 N.am      1 <0>        -0.5231
     24 C20         0.0413    0.0474    0.3741 C.2       1 <0>         0.6771
     25 O1         -0.9002   -0.6134    0.7712 O.2       1 <0>        -0.5337
     26 C21         1.7684   -1.7607    0.5254 C.3       1 <0>         0.0896
     27 C22         0.8124    6.4463   -1.6584 C.1       1 <0>        -0.1046
     28 C23         0.1614    7.4131   -1.7992 C.1       1 <0>        -0.1065
     29 C24        -0.6327    8.5923   -1.9709 C.ar      1 <0>        -0.0378
     30 C25        -2.0029    8.5784   -1.6759 C.ar      1 <0>        -0.0528
     31 C26        -2.7236    9.7453   -1.8552 C.ar      1 <0>        -0.1690
     32 C27        -2.0776   10.8755   -2.3245 C.ar      1 <0>         0.1087
     33 N5         -0.7874   10.8588   -2.5990 N.ar      1 <0>        -0.4804
     34 C28        -0.0564    9.7751   -2.4410 C.ar      1 <0>         0.1285
     35 H1         -4.7637    4.6790    2.2085 H         1 <0>         0.0724
     36 H2         -5.6280    6.0124    1.3707 H         1 <0>         0.0755
     37 H3         -3.8335    6.0170    1.4526 H         1 <0>         0.0850
     38 H4         -4.5693    5.0103   -2.0691 H         1 <0>         0.0704
     39 H5         -3.7204    6.2097   -1.0359 H         1 <0>         0.0798
     40 H6         -5.5149    6.2051   -1.1178 H         1 <0>         0.0762
     41 H7         -3.8356    2.9200   -1.8957 H         1 <0>         0.1349
     42 H8         -1.8205    1.5072   -1.9184 H         1 <0>         0.1326
     43 H9         -0.7699    2.9589    1.9638 H         1 <0>         0.1342
     44 H10        -2.7827    4.3752    1.9731 H         1 <0>         0.1460
     45 H11        -0.0354    4.0782   -0.7833 H         1 <0>         0.1345
     46 H12         3.4253    6.2109   -2.1557 H         1 <0>         0.1400
     47 H13         4.8034    4.2311   -1.8772 H         1 <0>         0.1489
     48 H14         4.0869   -0.0907   -0.4641 H         1 <0>         0.1715
     49 H15         0.9246   -2.3677    0.8855 H         1 <0>         0.0998
     50 H16         2.5484   -1.7209    1.3000 H         1 <0>         0.0826
     51 H17         2.1818   -2.2128   -0.3883 H         1 <0>         0.0825
     52 H18        -2.4828    7.6808   -1.3148 H         1 <0>         0.1395
     53 H19        -3.7806    9.7729   -1.6351 H         1 <0>         0.1435
     54 H20        -2.6394   11.7865   -2.4688 H         1 <0>         0.1613
     55 H21         0.9974    9.8008   -2.6763 H         1 <0>         0.1616
@<TRIPOS>BOND
     1    1    2 1
     2    1   35 1
     3    1   36 1
     4    1   37 1
     5    2    3 1
     6    2    4 1
     7    2    6 1
     8    3   38 1
     9    3   39 1
    10    3   40 1
    11    4    5 3
    12    6   11 ar
    13    6    7 ar
    14    7    8 ar
    15    7   41 1
    16    8    9 ar
    17    8   42 1
    18    9   10 ar
    19    9   12 1
    20   10   11 ar
    21   10   43 1
    22   11   44 1
    23   12   24 am
    24   12   13 1
    25   13   22 ar
    26   13   14 ar
    27   14   19 ar
    28   14   15 ar
    29   15   16 ar
    30   15   45 1
    31   16   17 ar
    32   16   27 1
    33   17   18 ar
    34   17   46 1
    35   18   19 ar
    36   18   47 1
    37   19   20 ar
    38   20   21 ar
    39   21   22 ar
    40   21   48 1
    41   22   23 1
    42   23   24 am
    43   23   26 1
    44   24   25 2
    45   26   49 1
    46   26   50 1
    47   26   51 1
    48   27   28 3
    49   28   29 1
    50   29   34 ar
    51   29   30 ar
    52   30   31 ar
    53   30   52 1
    54   31   32 ar
    55   31   53 1
    56   32   33 ar
    57   32   54 1
    58   33   34 ar
    59   34   55 1
@<TRIPOS>MOLECULE
ZINC03935700
   57    61     0     0     0
SMALL
USER_CHARGES
[hydroxy-(methoxymethyl)-dimethyl-dioxo-BLAHyl] acetate
@<TRIPOS>ATOM
      1 C1         -0.9932    1.0658    3.6675 C.3       1 <0>        -0.1489
      2 C2         -0.4155    0.6979    2.3252 C.2       1 <0>         0.4600
      3 O1          0.2120   -0.3268    2.1979 O.2       1 <0>        -0.5026
      4 O2         -0.5980    1.5084    1.2710 O.3       1 <0>        -0.3522
      5 C3         -0.0128    1.0903    0.0080 C.3       1 <0>         0.1246
      6 H1          0.0021   -0.0041    0.0020 H         1 <0>         0.1074
      7 C4          1.4335    1.5813   -0.0031 C.3       1 <0>        -0.1211
      8 C5          1.8826    1.7610   -1.4367 C.3       1 <0>        -0.0498
      9 C6          0.9889    2.8853   -2.0137 C.3       1 <0>        -0.0565
     10 H2          1.0243    3.7570   -1.3516 H         1 <0>         0.1001
     11 C7          1.6959    3.2206   -3.3256 C.3       1 <0>        -0.1004
     12 C8          3.2001    3.1515   -2.9465 C.3       1 <0>        -0.1586
     13 C9          3.2874    2.3304   -1.6373 C.3       1 <0>         0.1146
     14 H3          3.5516    2.9739   -0.7987 H         1 <0>         0.0640
     15 O3          4.2336    1.2692   -1.7707 O.3       1 <0>        -0.5568
     16 C10        -0.4177    2.3898   -2.0902 C.2       1 <0>        -0.1084
     17 C11        -0.8750    1.5613   -1.1390 C.2       1 <0>        -0.0254
     18 C12        -2.2775    1.0043   -1.1985 C.3       1 <0>        -0.0008
     19 C13        -3.0897    1.7596   -2.2125 C.2       1 <0>        -0.1297
     20 C14        -4.5067    1.6838   -2.2747 C.2       1 <0>        -0.2717
     21 C15        -4.8531    2.3923   -3.3765 C.2       1 <0>         0.1083
     22 O4         -3.7279    2.9034   -3.9332 O.3       1 <0>        -0.1276
     23 C16        -2.6640    2.5730   -3.1992 C.2       1 <0>        -0.0589
     24 C17        -1.2238    2.8519   -3.2527 C.2       1 <0>         0.4729
     25 O5         -0.7256    3.4344   -4.2026 O.2       1 <0>        -0.4052
     26 C18        -5.1797    0.9247   -1.2041 C.2       1 <0>         0.5692
     27 O6         -6.3316    0.5422   -1.3133 O.2       1 <0>        -0.4447
     28 O7         -4.4543    0.6726   -0.0859 O.3       1 <0>        -0.3361
     29 C19        -3.0845    1.1150    0.0902 C.3       1 <0>         0.1424
     30 H4         -2.6257    0.5254    0.8664 H         1 <0>         0.1333
     31 C20        -3.1479    2.5856    0.5106 C.3       1 <0>         0.0366
     32 O8         -3.8012    2.6913    1.7771 O.3       1 <0>        -0.3752
     33 C21        -3.9132    4.0303    2.2634 C.3       1 <0>         0.0297
     34 C22        -2.2201   -0.4689   -1.6236 C.3       1 <0>        -0.1423
     35 C23         1.7404    0.4620   -2.2274 C.3       1 <0>        -0.1328
     36 H5         -1.5213    2.0160    3.5877 H         1 <0>         0.0948
     37 H6         -1.6879    0.2899    3.9891 H         1 <0>         0.1100
     38 H7         -0.1882    1.1577    4.3967 H         1 <0>         0.1072
     39 H8          1.5005    2.5340    0.5289 H         1 <0>         0.0849
     40 H9          2.0740    0.8509    0.4989 H         1 <0>         0.0909
     41 H10         1.4558    2.4969   -4.1037 H         1 <0>         0.0766
     42 H11         1.4314    4.2282   -3.6572 H         1 <0>         0.0784
     43 H12         3.7658    2.6588   -3.7380 H         1 <0>         0.0790
     44 H13         3.5919    4.1574   -2.7840 H         1 <0>         0.0719
     45 H14         5.1440    1.5681   -1.9006 H         1 <0>         0.3798
     46 H15        -5.8568    2.5245   -3.7467 H         1 <0>         0.2349
     47 H16        -2.1367    2.9850    0.5889 H         1 <0>         0.0830
     48 H17        -3.7058    3.1528   -0.2345 H         1 <0>         0.0538
     49 H18        -2.9179    4.4597    2.3781 H         1 <0>         0.0446
     50 H19        -4.4870    4.6275    1.5547 H         1 <0>         0.0405
     51 H20        -4.4201    4.0252    3.2283 H         1 <0>         0.0917
     52 H21        -1.7546   -0.5457   -2.6062 H         1 <0>         0.0777
     53 H22        -1.6340   -1.0337   -0.8987 H         1 <0>         0.0814
     54 H23        -3.2311   -0.8739   -1.6679 H         1 <0>         0.0765
     55 H24         0.6945    0.1553   -2.2375 H         1 <0>         0.0488
     56 H25         2.0826    0.6199   -3.2502 H         1 <0>         0.0649
     57 H26         2.3427   -0.3164   -1.7589 H         1 <0>         0.0712
@<TRIPOS>BOND
     1    1    2 1
     2    1   36 1
     3    1   37 1
     4    1   38 1
     5    2    3 2
     6    2    4 1
     7    4    5 1
     8    5    6 1
     9    5   17 1
    10    5    7 1
    11    7    8 1
    12    7   39 1
    13    7   40 1
    14    8   13 1
    15    8    9 1
    16    8   35 1
    17    9   10 1
    18    9   11 1
    19    9   16 1
    20   11   12 1
    21   11   41 1
    22   11   42 1
    23   12   13 1
    24   12   43 1
    25   12   44 1
    26   13   14 1
    27   13   15 1
    28   15   45 1
    29   16   24 1
    30   16   17 2
    31   17   18 1
    32   18   29 1
    33   18   19 1
    34   18   34 1
    35   19   23 2
    36   19   20 1
    37   20   21 2
    38   20   26 1
    39   21   22 1
    40   21   46 1
    41   22   23 1
    42   23   24 1
    43   24   25 2
    44   26   27 2
    45   26   28 1
    46   28   29 1
    47   29   30 1
    48   29   31 1
    49   31   32 1
    50   31   47 1
    51   31   48 1
    52   32   33 1
    53   33   49 1
    54   33   50 1
    55   33   51 1
    56   34   52 1
    57   34   53 1
    58   34   54 1
    59   35   55 1
    60   35   56 1
    61   35   57 1
@<TRIPOS>MOLECULE
ZINC14975141
   57    61     0     0     0
SMALL
USER_CHARGES
[hydroxy-(methoxymethyl)-dimethyl-dioxo-BLAHyl] acetate
@<TRIPOS>ATOM
      1 C1          1.6451    7.4746   -3.1598 C.3       1 <0>        -0.1507
      2 C2          0.6468    6.3672   -2.9402 C.2       1 <0>         0.4598
      3 O1         -0.5372    6.6055   -2.9753 O.2       1 <0>        -0.5003
      4 O2          1.0731    5.1162   -2.7057 O.3       1 <0>        -0.3505
      5 C3          0.0576    4.1022   -2.5038 C.3       1 <0>         0.1199
      6 H1         -0.8402    4.4138   -3.0492 H         1 <0>         0.1154
      7 C4         -0.2596    4.0442   -1.0145 C.3       1 <0>        -0.1231
      8 C5         -1.3302    2.9847   -0.7582 C.3       1 <0>        -0.0415
      9 C6         -0.8107    1.6196   -1.2029 C.3       1 <0>        -0.0427
     10 H2         -1.6571    0.9525   -1.3974 H         1 <0>         0.1050
     11 C7         -0.0127    1.0867    0.0080 C.3       1 <0>        -0.1147
     12 C8         -0.7909    1.6076    1.2331 C.3       1 <0>        -0.1566
     13 C9         -1.5302    2.8735    0.7715 C.3       1 <0>         0.1109
     14 H3         -1.1093    3.7516    1.2636 H         1 <0>         0.0633
     15 O3         -2.9228    2.7676    1.0745 O.3       1 <0>        -0.5578
     16 C10         0.0803    1.6422   -2.4152 C.2       1 <0>        -0.1201
     17 C11         0.4950    2.7523   -3.0247 C.2       1 <0>        -0.0266
     18 C12         1.3328    2.7288   -4.2777 C.3       1 <0>         0.0065
     19 C13         1.8348    1.3327   -4.5257 C.2       1 <0>        -0.1276
     20 C14         2.8689    1.0319   -5.4499 C.2       1 <0>        -0.2738
     21 C15         2.9261   -0.3202   -5.4986 C.2       1 <0>         0.1083
     22 O4          2.0351   -0.8221   -4.6097 O.3       1 <0>        -0.1285
     23 C16         1.4117    0.1771   -3.9784 C.2       1 <0>        -0.0599
     24 C17         0.4223    0.2677   -2.9033 C.2       1 <0>         0.4661
     25 O5         -0.0989   -0.7279   -2.4253 O.2       1 <0>        -0.4107
     26 C18         3.5753    2.1784   -6.0506 C.2       1 <0>         0.5699
     27 O6          4.2518    2.0606   -7.0574 O.2       1 <0>        -0.4464
     28 O7          3.4303    3.3698   -5.4257 O.3       1 <0>        -0.3387
     29 C19         2.5865    3.5919   -4.2704 C.3       1 <0>         0.1431
     30 H4          2.3202    4.6389   -4.2765 H         1 <0>         0.1444
     31 C20         3.4113    3.2676   -3.0266 C.3       1 <0>         0.0429
     32 O8          4.5295    4.1543   -2.9520 O.3       1 <0>        -0.3735
     33 C21         5.3709    3.9345   -1.8181 C.3       1 <0>         0.0302
     34 C22         0.4554    3.1432   -5.4707 C.3       1 <0>        -0.1396
     35 C23        -2.6539    3.3354   -1.4463 C.3       1 <0>        -0.1285
     36 H5          2.2631    7.2401   -4.0265 H         1 <0>         0.1051
     37 H6          1.1160    8.4116   -3.3336 H         1 <0>         0.1054
     38 H7          2.2783    7.5731   -2.2780 H         1 <0>         0.1044
     39 H8         -0.6223    5.0201   -0.6833 H         1 <0>         0.0870
     40 H9          0.6466    3.7947   -0.4591 H         1 <0>         0.0837
     41 H10         0.0021   -0.0041    0.0020 H         1 <0>         0.0808
     42 H11         1.0029    1.4803    0.0004 H         1 <0>         0.0687
     43 H12        -1.5058    0.8567    1.5701 H         1 <0>         0.0810
     44 H13        -0.0984    1.8503    2.0395 H         1 <0>         0.0733
     45 H14        -3.1153    2.6946    2.0193 H         1 <0>         0.3791
     46 H15         3.5746   -0.8988   -6.1398 H         1 <0>         0.2355
     47 H16         2.7917    3.3885   -2.1380 H         1 <0>         0.0753
     48 H17         3.7667    2.2387   -3.0844 H         1 <0>         0.0522
     49 H18         5.7670    2.9195   -1.8509 H         1 <0>         0.0404
     50 H19         6.1956    4.6470   -1.8342 H         1 <0>         0.0916
     51 H20         4.7920    4.0693   -0.9045 H         1 <0>         0.0431
     52 H21         0.0681    4.1485   -5.3050 H         1 <0>         0.0785
     53 H22         1.0522    3.1295   -6.3827 H         1 <0>         0.0762
     54 H23        -0.3760    2.4454   -5.5700 H         1 <0>         0.0767
     55 H24        -3.4032    2.5840   -1.1970 H         1 <0>         0.0735
     56 H25        -2.9928    4.3136   -1.1052 H         1 <0>         0.0646
     57 H26        -2.5072    3.3579   -2.5262 H         1 <0>         0.0500
@<TRIPOS>BOND
     1    1    2 1
     2    1   36 1
     3    1   37 1
     4    1   38 1
     5    2    3 2
     6    2    4 1
     7    4    5 1
     8    5    6 1
     9    5   17 1
    10    5    7 1
    11    7    8 1
    12    7   39 1
    13    7   40 1
    14    8   13 1
    15    8    9 1
    16    8   35 1
    17    9   10 1
    18    9   11 1
    19    9   16 1
    20   11   12 1
    21   11   41 1
    22   11   42 1
    23   12   13 1
    24   12   43 1
    25   12   44 1
    26   13   14 1
    27   13   15 1
    28   15   45 1
    29   16   24 1
    30   16   17 2
    31   17   18 1
    32   18   29 1
    33   18   19 1
    34   18   34 1
    35   19   23 2
    36   19   20 1
    37   20   21 2
    38   20   26 1
    39   21   22 1
    40   21   46 1
    41   22   23 1
    42   23   24 1
    43   24   25 2
    44   26   27 2
    45   26   28 1
    46   28   29 1
    47   29   30 1
    48   29   31 1
    49   31   32 1
    50   31   47 1
    51   31   48 1
    52   32   33 1
    53   33   49 1
    54   33   50 1
    55   33   51 1
    56   34   52 1
    57   34   53 1
    58   34   54 1
    59   35   55 1
    60   35   56 1
    61   35   57 1
@<TRIPOS>MOLECULE
ZINC28652818
   41    43     0     0     0
SMALL
USER_CHARGES

@<TRIPOS>ATOM
      1 C1          0.3557    1.3635   -0.3008 C.3       1 <0>        -0.1879
      2 C2          0.5315   -0.1323   -0.2509 C.ar      1 <0>         0.0663
      3 C3          0.7071   -0.8472   -1.4213 C.ar      1 <0>        -0.1375
      4 C4          0.8683   -2.2191   -1.3755 C.ar      1 <0>         0.0033
      5 C5          0.8546   -2.8766   -0.1593 C.ar      1 <0>        -0.0742
      6 C6          0.6800   -2.1619    1.0107 C.ar      1 <0>         0.0555
      7 C7          0.5230   -0.7890    0.9652 C.ar      1 <0>        -0.6840
      8 S1          0.3065    0.1229    2.4573 S.o2      1 <0>         2.7206
      9 O1         -0.8241    0.9610    2.2606 O.2       1 <0>        -0.9295
     10 O2          0.3832   -0.8155    3.5216 O.2       1 <0>        -0.9174
     11 N1          1.6163    1.1240    2.6137 N.pl3     1 <0>        -0.8462
     12 C8          1.4903    2.5495    2.3001 C.3       1 <0>         0.0283
     13 N2          2.8449    0.6078    3.0459 N.2       1 <0>        -0.2167
     14 C9          3.8734    1.3939    3.1687 C.2       1 <0>         0.1615
     15 C10         5.1597    0.8535    3.6212 C.2       1 <0>        -0.0534
     16 C11         5.4345   -0.4596    3.9465 C.2       1 <0>         0.1136
     17 N3          6.7110   -0.5407    4.3087 N.2       1 <0>        -0.4816
     18 C12         7.2744    0.6597    4.2325 C.2       1 <0>         0.2477
     19 N4          6.3319    1.5562    3.7991 N.pl3     1 <0>        -0.3475
     20 C13         6.6529    2.8712    3.6276 C.2       1 <0>         0.0941
     21 C14         7.9053    3.3115    3.8785 C.2       1 <0>        -0.1118
     22 C15         8.8940    2.4167    4.3204 C.2       1 <0>        -0.0779
     23 C16         8.5830    1.1042    4.5031 C.2       1 <0>        -0.0635
     24 Br1         8.3288    5.1382    3.6335 Br        1 <0>        -0.0023
     25 N5          1.0263   -4.3459   -0.1104 N.pl3     1 <0>         0.0322
     26 O3          1.1786   -4.9712   -1.1339 O.2       1 <0>        -0.1512
     27 O4          1.0143   -4.9209    0.9531 O.3       1 <0>        -0.1448
     28 H1          1.3132    1.8485   -0.1108 H         1 <0>         0.0971
     29 H2         -0.0093    1.6538   -1.2860 H         1 <0>         0.1013
     30 H3         -0.3640    1.6703    0.4582 H         1 <0>         0.1139
     31 H4          0.7178   -0.3336   -2.3713 H         1 <0>         0.1591
     32 H5          1.0048   -2.7776   -2.2898 H         1 <0>         0.1645
     33 H6          0.6689   -2.6755    1.9607 H         1 <0>         0.1759
     34 H7          1.2939    3.1071    3.2159 H         1 <0>         0.0797
     35 H8          2.4167    2.9057    1.8495 H         1 <0>         0.0820
     36 H9          0.6666    2.6965    1.6015 H         1 <0>         0.1041
     37 H10         3.7806    2.4448    2.9375 H         1 <0>         0.1306
     38 H11         4.7330   -1.2800    3.9129 H         1 <0>         0.1976
     39 H12         5.8992    3.5661    3.2878 H         1 <0>         0.1732
     40 H13         9.8948    2.7699    4.5203 H         1 <0>         0.1576
     41 H14         9.3362    0.4077    4.8406 H         1 <0>         0.1676
@<TRIPOS>BOND
     1    1    2 1
     2    1   28 1
     3    1   29 1
     4    1   30 1
     5    2    7 ar
     6    2    3 ar
     7    3    4 ar
     8    3   31 1
     9    4    5 ar
    10    4   32 1
    11    5    6 ar
    12    5   25 1
    13    6    7 ar
    14    6   33 1
    15    7    8 1
    16    8    9 2
    17    8   10 2
    18    8   11 1
    19   11   12 1
    20   11   13 1
    21   12   34 1
    22   12   35 1
    23   12   36 1
    24   13   14 2
    25   14   15 1
    26   14   37 1
    27   15   19 1
    28   15   16 2
    29   16   17 1
    30   16   38 1
    31   17   18 2
    32   18   23 1
    33   18   19 1
    34   19   20 1
    35   20   21 2
    36   20   39 1
    37   21   22 1
    38   21   24 1
    39   22   23 2
    40   22   40 1
    41   23   41 1
    42   25   26 2
    43   25   27 1
@<TRIPOS>MOLECULE
ZINC01619592
   55    59     0     0     0
SMALL
USER_CHARGES

@<TRIPOS>ATOM
      1 C1         -0.0184    1.5028    0.0103 C.3       1 <0>        -0.1511
      2 C2          0.0021   -0.0041    0.0020 C.2       1 <0>         0.4597
      3 O1          1.0565   -0.5939   -0.0112 O.2       1 <0>        -0.4999
      4 O2         -1.1511   -0.6910    0.0093 O.3       1 <0>        -0.3474
      5 C3         -1.0568   -2.1201    0.0008 C.3       1 <0>         0.1219
      6 H1         -0.1268   -2.3839    0.5135 H         1 <0>         0.1078
      7 C4         -0.9300   -2.5524   -1.4583 C.3       1 <0>        -0.1184
      8 C5         -1.5070   -3.9418   -1.6157 C.3       1 <0>        -0.1187
      9 C6         -3.0076   -3.8238   -1.2599 C.3       1 <0>        -0.0498
     10 H2         -3.4688   -3.0269   -1.8517 H         1 <0>         0.1063
     11 C7         -3.5424   -5.1804   -1.7235 C.3       1 <0>        -0.1009
     12 C8         -2.7629   -5.4191   -3.0462 C.3       1 <0>        -0.1830
     13 C9         -1.5465   -4.4997   -3.0127 C.2       1 <0>         0.3855
     14 O3         -0.7805   -4.2605   -3.9130 O.2       1 <0>        -0.4254
     15 C10        -3.1349   -3.4967    0.1921 C.2       1 <0>        -0.1113
     16 C11        -2.2157   -2.7096    0.7678 C.2       1 <0>        -0.0220
     17 C12        -2.2470   -2.4186    2.2520 C.3       1 <0>        -0.0027
     18 C13        -3.5419   -2.8944    2.8428 C.2       1 <0>        -0.1255
     19 C14        -4.0137   -2.4591    4.1090 C.2       1 <0>        -0.2743
     20 C15        -5.1338   -3.1850    4.3420 C.2       1 <0>         0.1107
     21 O4         -5.3667   -3.9750    3.2644 O.3       1 <0>        -0.1272
     22 C16        -4.4651   -3.7201    2.3152 C.2       1 <0>        -0.0593
     23 C17        -4.2994   -4.0888    0.9041 C.2       1 <0>         0.4739
     24 O5         -5.0852   -4.8388    0.3501 O.2       1 <0>        -0.4050
     25 C18        -3.2587   -1.3792    4.7707 C.2       1 <0>         0.5710
     26 O6         -3.4416   -1.0831    5.9367 O.2       1 <0>        -0.4406
     27 O7         -2.3673   -0.7035    4.0022 O.3       1 <0>        -0.3342
     28 C19        -2.1782   -0.9381    2.6104 C.3       1 <0>         0.1418
     29 H3         -1.2274   -0.5290    2.3161 H         1 <0>         0.1331
     30 C20        -3.3080   -0.2057    1.8834 C.3       1 <0>         0.0325
     31 O8         -3.1902    1.1997    2.1137 O.3       1 <0>        -0.3752
     32 C21        -4.2027    1.9802    1.4751 C.3       1 <0>         0.0299
     33 C22        -1.0932   -3.1555    2.9462 C.3       1 <0>        -0.1410
     34 C23        -0.7898   -4.9340   -0.7021 C.3       1 <0>        -0.1431
     35 H4          1.0042    1.8801    0.0026 H         1 <0>         0.1053
     36 H5         -0.5455    1.8639   -0.8728 H         1 <0>         0.1024
     37 H6         -0.5286    1.8543    0.9071 H         1 <0>         0.1090
     38 H7         -1.4691   -1.8509   -2.0999 H         1 <0>         0.0889
     39 H8          0.1251   -2.5564   -1.7479 H         1 <0>         0.0943
     40 H9         -3.3312   -5.9617   -0.9953 H         1 <0>         0.0820
     41 H10        -4.6154   -5.1243   -1.9164 H         1 <0>         0.0922
     42 H11        -2.4449   -6.4590   -3.1085 H         1 <0>         0.1059
     43 H12        -3.3960   -5.1755   -3.9005 H         1 <0>         0.1025
     44 H13        -5.7345   -3.1423    5.2384 H         1 <0>         0.2359
     45 H14        -3.2413   -0.4054    0.8139 H         1 <0>         0.0819
     46 H15        -4.2692   -0.5562    2.2593 H         1 <0>         0.0526
     47 H16        -4.0433    3.0351    1.6985 H         1 <0>         0.0920
     48 H17        -4.1546    1.8258    0.3972 H         1 <0>         0.0450
     49 H18        -5.1825    1.6750    1.8425 H         1 <0>         0.0405
     50 H19        -0.1439   -2.8172    2.5309 H         1 <0>         0.0813
     51 H20        -1.1181   -2.9442    4.0152 H         1 <0>         0.0779
     52 H21        -1.1983   -4.2284    2.7854 H         1 <0>         0.0788
     53 H22        -0.9157   -4.6281    0.3365 H         1 <0>         0.0689
     54 H23        -1.2137   -5.9285   -0.8418 H         1 <0>         0.0723
     55 H24         0.2717   -4.9535   -0.9490 H         1 <0>         0.0724
@<TRIPOS>BOND
     1    1    2 1
     2    1   35 1
     3    1   36 1
     4    1   37 1
     5    2    3 2
     6    2    4 1
     7    4    5 1
     8    5    6 1
     9    5   16 1
    10    5    7 1
    11    7    8 1
    12    7   38 1
    13    7   39 1
    14    8   13 1
    15    8    9 1
    16    8   34 1
    17    9   10 1
    18    9   11 1
    19    9   15 1
    20   11   12 1
    21   11   40 1
    22   11   41 1
    23   12   13 1
    24   12   42 1
    25   12   43 1
    26   13   14 2
    27   15   23 1
    28   15   16 2
    29   16   17 1
    30   17   28 1
    31   17   18 1
    32   17   33 1
    33   18   22 2
    34   18   19 1
    35   19   20 2
    36   19   25 1
    37   20   21 1
    38   20   44 1
    39   21   22 1
    40   22   23 1
    41   23   24 2
    42   25   26 2
    43   25   27 1
    44   27   28 1
    45   28   29 1
    46   28   30 1
    47   30   31 1
    48   30   45 1
    49   30   46 1
    50   31   32 1
    51   32   47 1
    52   32   48 1
    53   32   49 1
    54   33   50 1
    55   33   51 1
    56   33   52 1
    57   34   53 1
    58   34   54 1
    59   34   55 1
@<TRIPOS>MOLECULE
ZINC00146104
   30    33     0     0     0
SMALL
USER_CHARGES
3-benzothiazol-2-yl-7-hydroxy-chromen-2-one
@<TRIPOS>ATOM
      1 C1          8.0149   -6.3596   -0.1045 C.ar      1 <0>        -0.1127
      2 C2          9.0514   -5.4365   -0.1091 C.ar      1 <0>        -0.0864
      3 C3          8.7560   -4.0858   -0.0993 C.ar      1 <0>        -0.0708
      4 C4          7.4436   -3.6820   -0.0851 C.ar      1 <0>        -0.1349
      5 C5          6.3651   -4.5982   -0.0800 C.ar      1 <0>         0.0745
      6 C6          6.7122   -5.9704   -0.0905 C.ar      1 <0>        -0.0524
      7 N1          5.1338   -4.0513   -0.0663 N.2       1 <0>        -0.4659
      8 C7          4.9384   -2.7492   -0.0580 C.2       1 <0>         0.2017
      9 S1          6.6090   -2.1138   -0.0776 S.3       1 <0>        -0.0021
     10 C8          3.6655   -2.0047   -0.0428 C.2       1 <0>        -0.1429
     11 C9          3.6594   -0.6220   -0.0358 C.2       1 <0>         0.0393
     12 C10         2.4142    0.0540   -0.0208 C.ar      1 <0>        -0.1711
     13 C11         2.3746    1.4575   -0.0129 C.ar      1 <0>        -0.0256
     14 C12         1.1749    2.1044    0.0021 C.ar      1 <0>        -0.1680
     15 C13        -0.0167    1.3807    0.0096 C.ar      1 <0>         0.1825
     16 C14         0.0021   -0.0041    0.0020 C.ar      1 <0>        -0.1704
     17 C15         1.2139   -0.6808   -0.0132 C.ar      1 <0>         0.1786
     18 O1          1.2295   -2.0314   -0.0202 O.3       1 <0>        -0.2586
     19 C16         2.3842   -2.7180   -0.0344 C.2       1 <0>         0.5208
     20 O2          2.3668   -3.9349   -0.0400 O.2       1 <0>        -0.4114
     21 O3         -1.2040    2.0382    0.0188 O.3       1 <0>        -0.4895
     22 H1          8.2491   -7.4139   -0.1119 H         1 <0>         0.1373
     23 H2         10.0786   -5.7700   -0.1200 H         1 <0>         0.1420
     24 H3          9.5507   -3.3545   -0.1030 H         1 <0>         0.1366
     25 H4          5.9324   -6.7177   -0.0873 H         1 <0>         0.1364
     26 H5          4.5863   -0.0677   -0.0413 H         1 <0>         0.1574
     27 H6          3.2940    2.0241   -0.0183 H         1 <0>         0.1496
     28 H7          1.1473    3.1840    0.0079 H         1 <0>         0.1464
     29 H8         -0.9256   -0.5571    0.0083 H         1 <0>         0.1545
     30 H9         -1.5439    2.2239    0.9049 H         1 <0>         0.4049
@<TRIPOS>BOND
     1    1    6 ar
     2    1    2 ar
     3    1   22 1
     4    2    3 ar
     5    2   23 1
     6    3    4 ar
     7    3   24 1
     8    4    9 1
     9    4    5 ar
    10    5    6 ar
    11    5    7 1
    12    6   25 1
    13    7    8 2
    14    8    9 1
    15    8   10 1
    16   10   19 1
    17   10   11 2
    18   11   12 1
    19   11   26 1
    20   12   17 ar
    21   12   13 ar
    22   13   14 ar
    23   13   27 1
    24   14   15 ar
    25   14   28 1
    26   15   16 ar
    27   15   21 1
    28   16   17 ar
    29   16   29 1
    30   17   18 1
    31   18   19 1
    32   19   20 2
    33   21   30 1
@<TRIPOS>MOLECULE
ZINC40379556
   39    42     0     0     0
SMALL
USER_CHARGES

@<TRIPOS>ATOM
      1 C1         -0.0187    1.5258    0.0104 C.3       1 <0>        -0.1579
      2 C2          0.0021   -0.0041    0.0020 C.3       1 <0>         0.1711
      3 C3          0.6305   -0.4771   -1.3062 C.3       1 <0>        -0.0526
      4 C4          0.9055   -1.9689   -1.2096 C.2       1 <0>         0.1846
      5 C5          1.1790   -2.5038    0.0521 C.2       1 <0>        -0.3589
      6 S1          1.4257   -4.2122   -0.3027 S.3       1 <0>         0.2393
      7 C6          1.1742   -4.1291   -1.9692 C.2       1 <0>         0.2992
      8 N1          0.9202   -2.8468   -2.1829 N.2       1 <0>        -0.5762
      9 N2          1.2224   -5.1538   -2.8908 N.pl3     1 <0>        -0.4970
     10 C7          1.5163   -6.5368   -2.4780 C.3       1 <0>         0.0759
     11 C8          2.4790   -7.1350   -3.5138 C.3       1 <0>         0.0494
     12 O1          1.8641   -7.0754   -4.8029 O.3       1 <0>        -0.3031
     13 C9          1.3246   -5.8902   -5.1930 C.ar      1 <0>         0.1099
     14 C10         0.9873   -4.9159   -4.2548 C.ar      1 <0>         0.0930
     15 C11         0.4283   -3.7160   -4.6642 C.ar      1 <0>        -0.0863
     16 C12         0.2009   -3.4852   -6.0095 C.ar      1 <0>        -0.0969
     17 C13         0.5315   -4.4506   -6.9432 C.ar      1 <0>        -0.0751
     18 C14         1.1001   -5.6488   -6.5396 C.ar      1 <0>        -0.1176
     19 Br1        -0.5628   -1.8492   -6.5718 Br        1 <0>        -0.0405
     20 C15         1.2183   -1.7261    1.2675 C.2       1 <0>         0.6253
     21 O2          1.6793   -2.1711    2.3028 O.2       1 <0>        -0.5315
     22 N3          0.7098   -0.4675    1.1882 N.am      1 <0>        -0.7179
     23 C16        -1.4397   -0.5127    0.0619 C.3       1 <0>        -0.1654
     24 H1          1.0039    1.9031    0.0027 H         1 <0>         0.0683
     25 H2         -0.5459    1.8868   -0.8726 H         1 <0>         0.0799
     26 H3         -0.5289    1.8773    0.9072 H         1 <0>         0.0703
     27 H4         -0.0556   -0.2851   -2.1311 H         1 <0>         0.1095
     28 H5          1.5659    0.0562   -1.4756 H         1 <0>         0.1002
     29 H6          1.9848   -6.5375   -1.4939 H         1 <0>         0.1091
     30 H7          0.5948   -7.1184   -2.4504 H         1 <0>         0.1040
     31 H8          3.4062   -6.5620   -3.5245 H         1 <0>         0.0781
     32 H9          2.6917   -8.1731   -3.2582 H         1 <0>         0.1353
     33 H10         0.1709   -2.9622   -3.9349 H         1 <0>         0.1807
     34 H11         0.3536   -4.2670   -7.9925 H         1 <0>         0.1428
     35 H12         1.3563   -6.3998   -7.2723 H         1 <0>         0.1480
     36 H13         0.8212    0.1363    1.9392 H         1 <0>         0.4078
     37 H14        -1.9910   -0.1446   -0.8033 H         1 <0>         0.0718
     38 H15        -1.4409   -1.6027    0.0566 H         1 <0>         0.0572
     39 H16        -1.9141   -0.1533    0.9750 H         1 <0>         0.0658
@<TRIPOS>BOND
     1    1    2 1
     2    1   24 1
     3    1   25 1
     4    1   26 1
     5    2   22 1
     6    2    3 1
     7    2   23 1
     8    3    4 1
     9    3   27 1
    10    3   28 1
    11    4    8 1
    12    4    5 2
    13    5    6 1
    14    5   20 1
    15    6    7 1
    16    7    8 2
    17    7    9 1
    18    9   14 1
    19    9   10 1
    20   10   11 1
    21   10   29 1
    22   10   30 1
    23   11   12 1
    24   11   31 1
    25   11   32 1
    26   12   13 1
    27   13   18 ar
    28   13   14 ar
    29   14   15 ar
    30   15   16 ar
    31   15   33 1
    32   16   17 ar
    33   16   19 1
    34   17   18 ar
    35   17   34 1
    36   18   35 1
    37   20   21 2
    38   20   22 am
    39   22   36 1
    40   23   37 1
    41   23   38 1
    42   23   39 1
@<TRIPOS>MOLECULE
ZINC00274998
   30    32     0     0     0
SMALL
USER_CHARGES
2-morpholino-5,6-dihydro-4H-1,3-benzothiazol-7-one
@<TRIPOS>ATOM
      1 C1          6.2129   -0.5582    5.6151 C.3       1 <0>        -0.1172
      2 C2          6.1418   -0.3563    4.0989 C.3       1 <0>        -0.0514
      3 C3          4.7133   -0.6369    3.6493 C.2       1 <0>         0.1882
      4 C4          3.9319   -1.5241    4.4018 C.2       1 <0>        -0.3483
      5 S1          2.3952   -1.5123    3.5280 S.3       1 <0>         0.1299
      6 C5          2.8680   -0.4002    2.2767 C.2       1 <0>         0.2845
      7 N1          4.1221   -0.1137    2.6022 N.2       1 <0>        -0.5468
      8 N2          2.1251    0.0696    1.2174 N.pl3     1 <0>        -0.4215
      9 C6          0.7721   -0.5054    1.2266 C.3       1 <0>         0.0029
     10 C7          0.0021   -0.0041    0.0020 C.3       1 <0>         0.0668
     11 O1         -0.0173    1.4259    0.0099 O.3       1 <0>        -0.3776
     12 C8          1.2838    2.0194    0.0006 C.3       1 <0>         0.0618
     13 C9          2.0669    1.5386    1.2252 C.3       1 <0>         0.0224
     14 C10         4.3470   -2.1987    5.5432 C.2       1 <0>         0.4383
     15 O2          3.5977   -2.9387    6.1492 O.2       1 <0>        -0.4647
     16 C11         5.7761   -1.9717    6.0013 C.3       1 <0>        -0.1436
     17 H1          5.5590    0.1644    6.1035 H         1 <0>         0.0726
     18 H2          7.2377   -0.3964    5.9493 H         1 <0>         0.0905
     19 H3          6.8256   -1.0455    3.6034 H         1 <0>         0.0987
     20 H4          6.4103    0.6708    3.8516 H         1 <0>         0.0968
     21 H5          0.2523   -0.1984    2.1342 H         1 <0>         0.0735
     22 H6          0.8379   -1.5929    1.1950 H         1 <0>         0.1047
     23 H7         -1.0197   -0.3821    0.0348 H         1 <0>         0.1150
     24 H8          0.4916   -0.3564   -0.9059 H         1 <0>         0.0701
     25 H9          1.8113    1.7259   -0.9069 H         1 <0>         0.0693
     26 H10         1.1891    3.1048    0.0324 H         1 <0>         0.1135
     27 H11         1.5678    1.8783    2.1328 H         1 <0>         0.0658
     28 H12         3.0785    1.9431    1.1930 H         1 <0>         0.1101
     29 H13         5.8301   -2.0777    6.9942 H         1 <0>         0.0908
     30 H14         6.4315   -2.6990    5.5223 H         1 <0>         0.1048
@<TRIPOS>BOND
     1    1   16 1
     2    1    2 1
     3    1   17 1
     4    1   18 1
     5    2    3 1
     6    2   19 1
     7    2   20 1
     8    3    7 1
     9    3    4 2
    10    4    5 1
    11    4   14 1
    12    5    6 1
    13    6    7 2
    14    6    8 1
    15    8   13 1
    16    8    9 1
    17    9   10 1
    18    9   21 1
    19    9   22 1
    20   10   11 1
    21   10   23 1
    22   10   24 1
    23   11   12 1
    24   12   13 1
    25   12   25 1
    26   12   26 1
    27   13   27 1
    28   13   28 1
    29   14   15 2
    30   14   16 1
    31   16   29 1
    32   16   30 1
@<TRIPOS>MOLECULE
ZINC00229432
   36    38     0     0     0
SMALL
USER_CHARGES
5,5-dimethyl-2-morpholino-4,6-dihydrobenzothiazol-7-one
@<TRIPOS>ATOM
      1 C1          6.6681   -2.8015    3.8971 C.3       1 <0>        -0.1524
      2 C2          6.6524   -1.6011    4.8456 C.3       1 <0>        -0.0598
      3 C3          6.1473   -0.3693    4.0893 C.3       1 <0>        -0.0417
      4 C4          4.7137   -0.6379    3.6486 C.2       1 <0>         0.1921
      5 C5          3.9307   -1.5212    4.4039 C.2       1 <0>        -0.3467
      6 S1          2.3952   -1.5123    3.5280 S.3       1 <0>         0.1286
      7 C6          2.8680   -0.4002    2.2767 C.2       1 <0>         0.2842
      8 N1          4.1221   -0.1137    2.6022 N.2       1 <0>        -0.5456
      9 N2          2.1251    0.0696    1.2174 N.pl3     1 <0>        -0.4214
     10 C7          0.7721   -0.5054    1.2266 C.3       1 <0>         0.0031
     11 C8          0.0021   -0.0041    0.0020 C.3       1 <0>         0.0668
     12 O1         -0.0173    1.4259    0.0099 O.3       1 <0>        -0.3776
     13 C9          1.2838    2.0194    0.0006 C.3       1 <0>         0.0618
     14 C10         2.0669    1.5386    1.2252 C.3       1 <0>         0.0225
     15 C11         4.3424   -2.1877    5.5512 C.2       1 <0>         0.4415
     16 O2          3.6042   -2.9541    6.1378 O.2       1 <0>        -0.4645
     17 C12         5.7533   -1.9177    6.0412 C.3       1 <0>        -0.1345
     18 C13         8.0745   -1.3363    5.3441 C.3       1 <0>        -0.1423
     19 H1          7.3293   -2.5916    3.0563 H         1 <0>         0.0638
     20 H2          7.0271   -3.6815    4.4307 H         1 <0>         0.0631
     21 H3          5.6591   -2.9865    3.5285 H         1 <0>         0.0547
     22 H4          6.7738   -0.1918    3.2152 H         1 <0>         0.0974
     23 H5          6.1737    0.5012    4.7447 H         1 <0>         0.0984
     24 H6          0.2523   -0.1984    2.1342 H         1 <0>         0.0735
     25 H7          0.8386   -1.5929    1.1946 H         1 <0>         0.1045
     26 H8         -1.0197   -0.3821    0.0348 H         1 <0>         0.1149
     27 H9          0.4916   -0.3564   -0.9059 H         1 <0>         0.0700
     28 H10         1.8113    1.7259   -0.9069 H         1 <0>         0.0692
     29 H11         1.1891    3.1048    0.0324 H         1 <0>         0.1134
     30 H12         1.5678    1.8783    2.1328 H         1 <0>         0.0657
     31 H13         3.0785    1.9431    1.1930 H         1 <0>         0.1100
     32 H14         6.1027   -2.7252    6.5164 H         1 <0>         0.0920
     33 H15         5.7452   -1.0690    6.7251 H         1 <0>         0.1046
     34 H16         8.0712   -0.4736    6.0103 H         1 <0>         0.0621
     35 H17         8.4391   -2.2105    5.8835 H         1 <0>         0.0643
     36 H18         8.7262   -1.1362    4.4936 H         1 <0>         0.0643
@<TRIPOS>BOND
     1    1    2 1
     2    1   19 1
     3    1   20 1
     4    1   21 1
     5    2   17 1
     6    2    3 1
     7    2   18 1
     8    3    4 1
     9    3   22 1
    10    3   23 1
    11    4    8 1
    12    4    5 2
    13    5    6 1
    14    5   15 1
    15    6    7 1
    16    7    8 2
    17    7    9 1
    18    9   14 1
    19    9   10 1
    20   10   11 1
    21   10   24 1
    22   10   25 1
    23   11   12 1
    24   11   26 1
    25   11   27 1
    26   12   13 1
    27   13   14 1
    28   13   28 1
    29   13   29 1
    30   14   30 1
    31   14   31 1
    32   15   16 2
    33   15   17 1
    34   17   32 1
    35   17   33 1
    36   18   34 1
    37   18   35 1
    38   18   36 1
@<TRIPOS>MOLECULE
ZINC03869685
   32    34     0     0     0
SMALL
USER_CHARGES

@<TRIPOS>ATOM
      1 C1          0.9741   -0.2755   -0.9644 C.ar      1 <0>        -0.0748
      2 C2          2.1569    0.4329   -0.9701 C.ar      1 <0>        -0.1346
      3 C3          2.3856    1.4156   -0.0177 C.ar      1 <0>         0.1032
      4 C4          1.4203    1.6918    0.9495 C.ar      1 <0>         0.0788
      5 C5          0.2328    0.9863    0.9617 C.ar      1 <0>        -0.0762
      6 C6          0.0021   -0.0041    0.0020 C.ar      1 <0>        -0.0447
      7 C7         -1.2637   -0.7605    0.0100 C.2       1 <0>         0.1350
      8 C8         -2.4363   -0.0759    0.1235 C.2       1 <0>        -0.0429
      9 C9         -3.6628   -0.7894    0.1327 C.2       1 <0>         0.4011
     10 O1         -4.7327   -0.2102    0.2323 O.2       1 <0>        -0.4484
     11 C10        -3.5946   -2.2549    0.0170 C.ar      1 <0>        -0.2690
     12 C11        -4.7561   -3.0387    0.0170 C.ar      1 <0>         0.2244
     13 C12        -4.6504   -4.4123   -0.0941 C.ar      1 <0>        -0.2081
     14 C13        -3.3994   -5.0103   -0.2044 C.ar      1 <0>         0.2000
     15 C14        -2.2463   -4.2416   -0.2047 C.ar      1 <0>        -0.1854
     16 C15        -2.3316   -2.8618   -0.0952 C.ar      1 <0>         0.1876
     17 O2         -1.2182   -2.0992   -0.1003 O.3       1 <0>        -0.1970
     18 O3         -3.3070   -6.3605   -0.3125 O.3       1 <0>        -0.4866
     19 O4         -5.9758   -2.4535    0.1257 O.3       1 <0>        -0.4726
     20 O5         -2.4312    1.2810    0.2275 O.3       1 <0>        -0.4502
     21 O6          1.6480    2.6557    1.8815 O.3       1 <0>        -0.4836
     22 O7          3.5534    2.1101   -0.0273 O.3       1 <0>        -0.4861
     23 H1          0.7971   -1.0371   -1.7094 H         1 <0>         0.1379
     24 H2          2.9075    0.2221   -1.7176 H         1 <0>         0.1421
     25 H3         -0.5155    1.1988    1.7108 H         1 <0>         0.1429
     26 H4         -5.5413   -5.0229   -0.0948 H         1 <0>         0.1515
     27 H5         -1.2805   -4.7174   -0.2903 H         1 <0>         0.1559
     28 H6         -3.3257   -6.6843   -1.2235 H         1 <0>         0.4050
     29 H7         -6.3751   -2.2160   -0.7224 H         1 <0>         0.4036
     30 H8         -3.3120    1.6729    0.3033 H         1 <0>         0.4079
     31 H9          1.3508    3.5370    1.6166 H         1 <0>         0.3905
     32 H10         3.5287    2.9137   -0.5647 H         1 <0>         0.3924
@<TRIPOS>BOND
     1    1    6 ar
     2    1    2 ar
     3    1   23 1
     4    2    3 ar
     5    2   24 1
     6    3    4 ar
     7    3   22 1
     8    4    5 ar
     9    4   21 1
    10    5    6 ar
    11    5   25 1
    12    6    7 1
    13    7   17 1
    14    7    8 2
    15    8    9 1
    16    8   20 1
    17    9   10 2
    18    9   11 1
    19   11   16 ar
    20   11   12 ar
    21   12   13 ar
    22   12   19 1
    23   13   14 ar
    24   13   26 1
    25   14   15 ar
    26   14   18 1
    27   15   16 ar
    28   15   27 1
    29   16   17 1
    30   18   28 1
    31   19   29 1
    32   20   30 1
    33   21   31 1
    34   22   32 1
@<TRIPOS>MOLECULE
ZINC03869685
   31    33     0     0     0
SMALL
USER_CHARGES

@<TRIPOS>ATOM
      1 C1          0.1390    1.1246   -0.8120 C.ar      1 <0>        -0.0626
      2 C2          1.3229    1.8301   -0.8179 C.ar      1 <0>        -0.1333
      3 C3          2.3812    1.4233   -0.0172 C.ar      1 <0>         0.0878
      4 C4          2.2522    0.2984    0.7970 C.ar      1 <0>         0.0757
      5 C5          1.0694   -0.4139    0.8086 C.ar      1 <0>        -0.0997
      6 C6          0.0021   -0.0041    0.0020 C.ar      1 <0>        -0.0194
      7 C7         -1.2620   -0.7597    0.0100 C.2       1 <0>         0.1007
      8 C8         -2.4587   -0.0763    0.1245 C.2       1 <0>        -0.0038
      9 C9         -3.6655   -0.7872    0.1324 C.2       1 <0>         0.3349
     10 C10        -3.6167   -2.1939    0.0219 C.2       1 <0>        -0.3331
     11 C11        -4.8018   -2.9593    0.0240 C.2       1 <0>         0.2664
     12 C12        -4.7326   -4.3182   -0.0844 C.2       1 <0>        -0.3749
     13 C13        -3.4871   -4.9570   -0.1979 C.2       1 <0>         0.3648
     14 O1         -3.4307   -6.2860   -0.3033 O.2       1 <0>        -0.6598
     15 C14        -2.3054   -4.2086   -0.2016 C.2       1 <0>        -0.3143
     16 C15        -2.3616   -2.8325   -0.0921 C.2       1 <0>         0.2118
     17 O2         -1.2290   -2.0988   -0.0996 O.3       1 <0>        -0.2018
     18 O3         -6.0073   -2.3463    0.1339 O.3       1 <0>        -0.4482
     19 O4         -4.8484   -0.1420    0.2437 O.3       1 <0>        -0.5747
     20 O5         -2.4638    1.2803    0.2294 O.3       1 <0>        -0.4649
     21 O6          3.2919   -0.0973    1.5794 O.3       1 <0>        -0.4856
     22 O7          3.5458    2.1225   -0.0269 O.3       1 <0>        -0.4881
     23 H1         -0.6843    1.4460   -1.4327 H         1 <0>         0.1397
     24 H2          1.4276    2.7014   -1.4473 H         1 <0>         0.1381
     25 H3          0.9685   -1.2854    1.4384 H         1 <0>         0.1410
     26 H4         -5.6395   -4.9047   -0.0825 H         1 <0>         0.1180
     27 H5         -1.3506   -4.7057   -0.2895 H         1 <0>         0.1230
     28 H6         -6.7597   -2.9537    0.1258 H         1 <0>         0.3847
     29 H7         -3.3475    1.6656    0.3047 H         1 <0>         0.4058
     30 H8          3.2925    0.2977    2.4620 H         1 <0>         0.3855
     31 H9          3.5825    2.8346    0.6263 H         1 <0>         0.3863
@<TRIPOS>BOND
     1    1    6 ar
     2    1    2 ar
     3    1   23 1
     4    2    3 ar
     5    2   24 1
     6    3    4 ar
     7    3   22 1
     8    4    5 ar
     9    4   21 1
    10    5    6 ar
    11    5   25 1
    12    6    7 1
    13    7   17 1
    14    7    8 2
    15    8    9 1
    16    8   20 1
    17    9   10 2
    18    9   19 1
    19   10   16 1
    20   10   11 1
    21   11   12 2
    22   11   18 1
    23   12   13 1
    24   12   26 1
    25   13   14 2
    26   13   15 1
    27   15   16 2
    28   15   27 1
    29   16   17 1
    30   18   28 1
    31   20   29 1
    32   21   30 1
    33   22   31 1
@<TRIPOS>MOLECULE
ZINC40879935
   49    53     0     0     0
SMALL
USER_CHARGES

@<TRIPOS>ATOM
      1 C1          1.9364   -1.5246    3.5039 C.3       1 <0>        -0.1581
      2 C2          2.0142   -1.6935    1.9852 C.3       1 <0>         0.1716
      3 C3          1.4604   -3.0676    1.6173 C.3       1 <0>        -0.0517
      4 C4          1.2787   -3.1381    0.1099 C.2       1 <0>         0.1844
      5 C5          0.9991   -1.9508   -0.5720 C.2       1 <0>        -0.3617
      6 S1          0.8742   -2.4916   -2.2446 S.3       1 <0>         0.2307
      7 C6          1.1742   -4.1291   -1.9692 C.2       1 <0>         0.3047
      8 N1          1.3522   -4.1976   -0.6585 N.2       1 <0>        -0.5753
      9 N2          1.2221   -5.1538   -2.8908 N.pl3     1 <0>        -0.4968
     10 C7          0.8753   -4.9246   -4.3038 C.3       1 <0>         0.0757
     11 C8          0.0303   -6.1175   -4.7731 C.3       1 <0>         0.0510
     12 O1          0.7859   -7.3172   -4.5910 O.3       1 <0>        -0.3075
     13 C9          1.3724   -7.5191   -3.3810 C.ar      1 <0>         0.0844
     14 C10         1.6091   -6.4510   -2.5156 C.ar      1 <0>         0.0969
     15 C11         2.2158   -6.6646   -1.2903 C.ar      1 <0>        -0.1085
     16 C12         2.5952   -7.9534   -0.9210 C.ar      1 <0>         0.0033
     17 C13         2.3615   -9.0189   -1.7870 C.ar      1 <0>        -0.1075
     18 C14         1.7450   -8.8021   -3.0073 C.ar      1 <0>        -0.1138
     19 C15         3.2475   -8.1902    0.3919 C.2       1 <0>        -0.1957
     20 C16         3.5390   -7.2141    1.3643 C.2       1 <0>         0.0678
     21 N3          4.1110   -7.8086    2.3779 N.2       1 <0>        -0.2939
     22 N4          4.2065   -9.1766    2.0951 N.pl3     1 <0>        -0.3720
     23 C17         3.6677   -9.3937    0.8777 C.2       1 <0>         0.0702
     24 C18         4.7857  -10.1968    2.9725 C.3       1 <0>         0.0990
     25 C19         0.8705   -0.6634    0.0677 C.2       1 <0>         0.6255
     26 O2          0.4050    0.3008   -0.5119 O.2       1 <0>        -0.5330
     27 N5          1.2993   -0.5909    1.3561 N.am      1 <0>        -0.7186
     28 C20         3.4829   -1.6306    1.5610 C.3       1 <0>        -0.1656
     29 H1          0.8925   -1.5330    3.8174 H         1 <0>         0.0679
     30 H2          2.4679   -2.3438    3.9883 H         1 <0>         0.0799
     31 H3          2.3935   -0.5767    3.7879 H         1 <0>         0.0699
     32 H4          2.1593   -3.8404    1.9373 H         1 <0>         0.1076
     33 H5          0.4988   -3.2170    2.1083 H         1 <0>         0.0994
     34 H6          0.3000   -4.0036   -4.3988 H         1 <0>         0.1065
     35 H7          1.7842   -4.8572   -4.9016 H         1 <0>         0.1019
     36 H8         -0.8860   -6.1700   -4.1850 H         1 <0>         0.0748
     37 H9         -0.2167   -5.9978   -5.8280 H         1 <0>         0.1314
     38 H10         2.3950   -5.8349   -0.6226 H         1 <0>         0.1661
     39 H11         2.6539  -10.0187   -1.5019 H         1 <0>         0.1291
     40 H12         1.5655   -9.6310   -3.6760 H         1 <0>         0.1383
     41 H13         3.3269   -6.1581    1.2860 H         1 <0>         0.1838
     42 H14         3.5859  -10.3472    0.3773 H         1 <0>         0.1777
     43 H15         4.0084  -10.6032    3.6196 H         1 <0>         0.0772
     44 H16         5.2103  -10.9978    2.3675 H         1 <0>         0.0892
     45 H17         5.5692   -9.7484    3.5833 H         1 <0>         0.0914
     46 H18         1.1247    0.2139    1.8686 H         1 <0>         0.4072
     47 H19         4.0374   -2.4303    2.0520 H         1 <0>         0.0718
     48 H20         3.5542   -1.7496    0.4799 H         1 <0>         0.0578
     49 H21         3.9033   -0.6670    1.8490 H         1 <0>         0.0653
@<TRIPOS>BOND
     1    1    2 1
     2    1   29 1
     3    1   30 1
     4    1   31 1
     5    2   27 1
     6    2    3 1
     7    2   28 1
     8    3    4 1
     9    3   32 1
    10    3   33 1
    11    4    8 1
    12    4    5 2
    13    5    6 1
    14    5   25 1
    15    6    7 1
    16    7    8 2
    17    7    9 1
    18    9   14 1
    19    9   10 1
    20   10   11 1
    21   10   34 1
    22   10   35 1
    23   11   12 1
    24   11   36 1
    25   11   37 1
    26   12   13 1
    27   13   18 ar
    28   13   14 ar
    29   14   15 ar
    30   15   16 ar
    31   15   38 1
    32   16   17 ar
    33   16   19 1
    34   17   18 ar
    35   17   39 1
    36   18   40 1
    37   19   23 2
    38   19   20 1
    39   20   21 2
    40   20   41 1
    41   21   22 1
    42   22   23 1
    43   22   24 1
    44   23   42 1
    45   24   43 1
    46   24   44 1
    47   24   45 1
    48   25   26 2
    49   25   27 am
    50   27   46 1
    51   28   47 1
    52   28   48 1
    53   28   49 1
@<TRIPOS>MOLECULE
ZINC16052714
   62    67     0     0     0
SMALL
USER_CHARGES

@<TRIPOS>ATOM
      1 C1         -1.2179    0.3618   -0.7929 C.3       1 <0>        -0.6727
      2 S1         -0.8608   -1.4165   -0.7657 S.o2      1 <0>         2.6086
      3 O1         -0.0554   -1.7368    0.3604 O.2       1 <0>        -0.9532
      4 O2         -2.0406   -2.1570   -1.0467 O.2       1 <0>        -0.9539
      5 N1          0.1211   -1.6734   -2.0742 N.pl3     1 <0>        -1.0033
      6 C2         -0.4464   -1.9994   -3.3914 C.3       1 <0>         0.1224
      7 C3          0.2528   -3.2539   -3.9258 C.3       1 <0>         0.0451
      8 N2          1.7067   -3.0443   -3.9105 N.3       1 <0>        -0.5316
      9 C4          2.2031   -2.8527   -2.5412 C.3       1 <0>         0.0371
     10 C5          1.5835   -1.5758   -1.9515 C.3       1 <0>         0.1234
     11 C6          2.4055   -4.1534   -4.5734 C.3       1 <0>         0.1300
     12 C7          3.8574   -3.7940   -4.7575 C.2       1 <0>        -0.0864
     13 C8          4.8850   -4.0220   -3.9198 C.2       1 <0>        -0.1471
     14 C9          6.2159   -3.5887   -4.2968 C.ar      1 <0>         0.2076
     15 C10         6.2960   -2.9484   -5.5522 C.ar      1 <0>        -0.3029
     16 S2          4.6250   -2.9718   -6.1413 S.3       1 <0>         0.1024
     17 C11         7.5058   -2.4811   -6.0423 C.ar      1 <0>         0.5055
     18 N3          8.5981   -2.6496   -5.2999 N.ar      1 <0>        -0.5559
     19 C12         8.5129   -3.2543   -4.1181 C.ar      1 <0>         0.4114
     20 N4          7.3823   -3.7111   -3.6207 N.ar      1 <0>        -0.5253
     21 C13         9.7506   -3.4228   -3.3231 C.ar      1 <0>         0.0278
     22 C14        10.9622   -2.9521   -3.8074 C.ar      1 <0>        -0.1016
     23 C15        12.1227   -3.1090   -3.0655 C.ar      1 <0>        -0.0792
     24 C16        12.0948   -3.7329   -1.8377 C.ar      1 <0>        -0.1198
     25 C17        10.8933   -4.2156   -1.3259 C.ar      1 <0>         0.1177
     26 C18         9.7061   -4.0584   -2.0641 C.ar      1 <0>        -0.1364
     27 C19         8.6656   -4.6312   -1.2987 C.2       1 <0>         0.0923
     28 N5          9.1685   -5.0916   -0.1893 N.2       1 <0>        -0.2546
     29 N6         10.5502   -4.8651   -0.1671 N.pl3     1 <0>        -0.5083
     30 H1         11.1568   -5.1130    0.5481 H         1 <0>         0.4418
     31 N7          7.5766   -1.8539   -7.2757 N.pl3     1 <0>        -0.5948
     32 C20         6.3563   -1.5252   -8.0294 C.3       1 <0>         0.0878
     33 C21         6.4273   -0.0515   -8.4456 C.3       1 <0>         0.0500
     34 O3          7.6692    0.1903   -9.1113 O.3       1 <0>        -0.3752
     35 C22         8.8226   -0.0241   -8.2943 C.3       1 <0>         0.0453
     36 C23         8.8740   -1.4913   -7.8678 C.3       1 <0>         0.0863
     37 H2         -0.2856    0.9209   -0.7133 H         1 <0>         0.1276
     38 H3         -1.7166    0.6180   -1.7276 H         1 <0>         0.1278
     39 H4         -1.8661    0.6151    0.0461 H         1 <0>         0.1284
     40 H5         -1.5151   -2.1898   -3.2927 H         1 <0>         0.1007
     41 H6         -0.2815   -1.1682   -4.0770 H         1 <0>         0.0790
     42 H7          0.0016   -4.1068   -3.2953 H         1 <0>         0.0472
     43 H8         -0.0762   -3.4465   -4.9469 H         1 <0>         0.0927
     44 H9          1.9247   -3.7112   -1.9300 H         1 <0>         0.0475
     45 H10         3.2885   -2.7545   -2.5582 H         1 <0>         0.0918
     46 H11         1.9397   -0.7046   -2.5013 H         1 <0>         0.0780
     47 H12         1.8575   -1.4860   -0.9003 H         1 <0>         0.0997
     48 H13         2.3283   -5.0505   -3.9590 H         1 <0>         0.0677
     49 H14         1.9510   -4.3394   -5.5465 H         1 <0>         0.1006
     50 H15         4.7202   -4.5219   -2.9767 H         1 <0>         0.1479
     51 H16        11.0018   -2.4609   -4.7683 H         1 <0>         0.1410
     52 H17        13.0593   -2.7381   -3.4547 H         1 <0>         0.1377
     53 H18        13.0070   -3.8483   -1.2711 H         1 <0>         0.1302
     54 H19         7.6256   -4.6789   -1.5860 H         1 <0>         0.2037
     55 H20         6.2923   -2.1546   -8.9170 H         1 <0>         0.0878
     56 H21         5.4812   -1.6871   -7.4000 H         1 <0>         0.0911
     57 H22         5.6022    0.1764   -9.1203 H         1 <0>         0.1135
     58 H23         6.3598    0.5805   -7.5601 H         1 <0>         0.0595
     59 H24         9.7207    0.2235   -8.8601 H         1 <0>         0.1116
     60 H25         8.7638    0.6080   -7.4083 H         1 <0>         0.0581
     61 H26         9.6654   -1.6309   -7.1314 H         1 <0>         0.1107
     62 H27         9.0678   -2.1173   -8.7388 H         1 <0>         0.0783
@<TRIPOS>BOND
     1    1    2 1
     2    1   37 1
     3    1   38 1
     4    1   39 1
     5    2    3 2
     6    2    4 2
     7    2    5 1
     8    5   10 1
     9    5    6 1
    10    6    7 1
    11    6   40 1
    12    6   41 1
    13    7    8 1
    14    7   42 1
    15    7   43 1
    16    8    9 1
    17    8   11 1
    18    9   10 1
    19    9   44 1
    20    9   45 1
    21   10   46 1
    22   10   47 1
    23   11   12 1
    24   11   48 1
    25   11   49 1
    26   12   16 1
    27   12   13 2
    28   13   14 1
    29   13   50 1
    30   14   20 ar
    31   14   15 ar
    32   15   16 1
    33   15   17 ar
    34   17   18 ar
    35   17   31 1
    36   18   19 ar
    37   19   20 ar
    38   19   21 1
    39   21   26 ar
    40   21   22 ar
    41   22   23 ar
    42   22   51 1
    43   23   24 ar
    44   23   52 1
    45   24   25 ar
    46   24   53 1
    47   25   29 1
    48   25   26 ar
    49   26   27 1
    50   27   28 2
    51   27   54 1
    52   28   29 1
    53   29   30 1
    54   31   36 1
    55   31   32 1
    56   32   33 1
    57   32   55 1
    58   32   56 1
    59   33   34 1
    60   33   57 1
    61   33   58 1
    62   34   35 1
    63   35   36 1
    64   35   59 1
    65   35   60 1
    66   36   61 1
    67   36   62 1
@<TRIPOS>MOLECULE
ZINC16052714
   63    68     0     0     0
SMALL
USER_CHARGES

@<TRIPOS>ATOM
      1 C1         -1.2288    0.3975   -0.8157 C.3       1 <0>        -0.6666
      2 S1         -0.8705   -1.3801   -0.7668 S.o2      1 <0>         2.6057
      3 O1         -0.0610   -1.6854    0.3604 O.2       1 <0>        -0.9385
      4 O2         -2.0509   -2.1248   -1.0340 O.2       1 <0>        -0.9391
      5 N1          0.1069   -1.6534   -2.0754 N.pl3     1 <0>        -1.0167
      6 C2         -0.4638   -1.9967   -3.3871 C.3       1 <0>         0.0929
      7 C3          0.2495   -3.2458   -3.9152 C.3       1 <0>        -0.0180
      8 N2          1.6991   -3.0122   -3.9273 N.4       1 <0>        -0.3841
      9 C4          2.1876   -2.8289   -2.5547 C.3       1 <0>        -0.0264
     10 C5          1.5701   -1.5537   -1.9606 C.3       1 <0>         0.0955
     11 C6          2.3742   -4.1665   -4.5353 C.3       1 <0>         0.0906
     12 C7          3.8480   -3.8777   -4.6608 C.2       1 <0>        -0.2191
     13 C8          4.8258   -4.1336   -3.7730 C.2       1 <0>        -0.0705
     14 C9          6.1908   -3.7698   -4.0981 C.ar      1 <0>         0.1897
     15 C10         6.3561   -3.1619   -5.3612 C.ar      1 <0>        -0.2890
     16 S2          4.7135   -3.1223   -6.0247 S.3       1 <0>         0.1250
     17 C11         7.6068   -2.7612   -5.8054 C.ar      1 <0>         0.5074
     18 N3          8.6561   -2.9627   -5.0111 N.ar      1 <0>        -0.5423
     19 C12         8.4906   -3.5364   -3.8224 C.ar      1 <0>         0.4316
     20 N4          7.3192   -3.9301   -3.3675 N.ar      1 <0>        -0.5198
     21 C13         9.6828   -3.7434   -2.9689 C.ar      1 <0>         0.0088
     22 C14        10.9352   -3.3393   -3.4073 C.ar      1 <0>        -0.0901
     23 C15        12.0531   -3.5322   -2.6106 C.ar      1 <0>        -0.0812
     24 C16        11.9420   -4.1268   -1.3730 C.ar      1 <0>        -0.1070
     25 C17        10.6979   -4.5428   -0.9064 C.ar      1 <0>         0.1172
     26 C18         9.5531   -4.3482   -1.7007 C.ar      1 <0>        -0.1343
     27 C19         8.4542   -4.8558   -0.9717 C.2       1 <0>         0.0841
     28 N5          8.8856   -5.3138    0.1684 N.2       1 <0>        -0.2483
     29 N6         10.2740   -5.1500    0.2485 N.pl3     1 <0>        -0.5025
     30 H1         10.8361   -5.4093    0.9953 H         1 <0>         0.4451
     31 N7          7.7612   -2.1655   -7.0467 N.pl3     1 <0>        -0.5896
     32 C20         6.5921   -1.7984   -7.8614 C.3       1 <0>         0.0915
     33 C21         6.7499   -0.3391   -8.3036 C.3       1 <0>         0.0496
     34 O3          8.0299   -0.1690   -8.9171 O.3       1 <0>        -0.3699
     35 C22         9.1348   -0.4174   -8.0446 C.3       1 <0>         0.0446
     36 C23         9.0990   -1.8756   -7.5867 C.3       1 <0>         0.0824
     37 H2         -0.2965    0.9581   -0.7467 H         1 <0>         0.1315
     38 H3         -1.7309    0.6413   -1.7519 H         1 <0>         0.1318
     39 H4         -1.8742    0.6613    0.0221 H         1 <0>         0.1388
     40 H5         -1.5292   -2.2006   -3.2810 H         1 <0>         0.1421
     41 H6         -0.3136   -1.1687   -4.0800 H         1 <0>         0.0993
     42 H7          0.0234   -4.0939   -3.2689 H         1 <0>         0.1407
     43 H8         -0.0927   -3.4589   -4.9279 H         1 <0>         0.1486
     44 H9          1.9028   -3.6897   -1.9496 H         1 <0>         0.1416
     45 H10         3.2735   -2.7349   -2.5649 H         1 <0>         0.1425
     46 H11         1.9222   -0.6817   -2.5118 H         1 <0>         0.0986
     47 H12         1.8499   -1.4646   -0.9109 H         1 <0>         0.1411
     48 H13         2.2283   -5.0452   -3.9071 H         1 <0>         0.1533
     49 H14         1.9551   -4.3531   -5.5241 H         1 <0>         0.1519
     50 H15         4.5964   -4.6044   -2.8284 H         1 <0>         0.1590
     51 H16        11.0401   -2.8718   -4.3752 H         1 <0>         0.1422
     52 H17        13.0223   -3.2131   -2.9644 H         1 <0>         0.1420
     53 H18        12.8219   -4.2709   -0.7635 H         1 <0>         0.1349
     54 H19         7.4269   -4.8625   -1.3048 H         1 <0>         0.2003
     55 H20         6.5382   -2.4438   -8.7381 H         1 <0>         0.0941
     56 H21         5.6834   -1.9063   -7.2691 H         1 <0>         0.0802
     57 H22         5.9669   -0.0889   -9.0194 H         1 <0>         0.1156
     58 H23         6.6727    0.3149   -7.4350 H         1 <0>         0.0597
     59 H24        10.0676   -0.2236   -8.5741 H         1 <0>         0.1177
     60 H25         9.0663    0.2363   -7.1751 H         1 <0>         0.0604
     61 H26         9.8497   -2.0346   -6.8126 H         1 <0>         0.1144
     62 H27         9.3019   -2.5290   -8.4352 H         1 <0>         0.0852
     63 H28         1.9007   -2.1845   -4.4680 H         1 <0>         0.4244
@<TRIPOS>BOND
     1    1    2 1
     2    1   37 1
     3    1   38 1
     4    1   39 1
     5    2    3 2
     6    2    4 2
     7    2    5 1
     8    5   10 1
     9    5    6 1
    10    6    7 1
    11    6   40 1
    12    6   41 1
    13    7    8 1
    14    7   42 1
    15    7   43 1
    16    8    9 1
    17    8   11 1
    18    8   63 1
    19    9   10 1
    20    9   44 1
    21    9   45 1
    22   10   46 1
    23   10   47 1
    24   11   12 1
    25   11   48 1
    26   11   49 1
    27   12   16 1
    28   12   13 2
    29   13   14 1
    30   13   50 1
    31   14   20 ar
    32   14   15 ar
    33   15   16 1
    34   15   17 ar
    35   17   18 ar
    36   17   31 1
    37   18   19 ar
    38   19   20 ar
    39   19   21 1
    40   21   26 ar
    41   21   22 ar
    42   22   23 ar
    43   22   51 1
    44   23   24 ar
    45   23   52 1
    46   24   25 ar
    47   24   53 1
    48   25   29 1
    49   25   26 ar
    50   26   27 1
    51   27   28 2
    52   27   54 1
    53   28   29 1
    54   29   30 1
    55   31   36 1
    56   31   32 1
    57   32   33 1
    58   32   55 1
    59   32   56 1
    60   33   34 1
    61   33   57 1
    62   33   58 1
    63   34   35 1
    64   35   36 1
    65   35   59 1
    66   35   60 1
    67   36   61 1
    68   36   62 1
@<TRIPOS>MOLECULE
ZINC05248543
   41    44     0     0     0
SMALL
USER_CHARGES

@<TRIPOS>ATOM
      1 C1         -0.0173    1.4248    0.0099 C.3       1 <0>         0.0250
      2 O1          0.0021   -0.0041    0.0020 O.3       1 <0>        -0.3131
      3 C2         -1.2003   -0.6375    0.0101 C.ar      1 <0>         0.1230
      4 C3         -2.3748    0.1032    0.0195 C.ar      1 <0>        -0.1732
      5 C4         -3.6007   -0.5357    0.0273 C.ar      1 <0>        -0.0846
      6 C5         -3.6652   -1.9143    0.0258 C.ar      1 <0>        -0.0876
      7 C6         -2.4901   -2.6671    0.0164 C.ar      1 <0>        -0.0097
      8 C7         -1.2537   -2.0210    0.0032 C.ar      1 <0>        -0.1059
      9 C8         -2.5553   -4.1442    0.0152 C.2       1 <0>         0.3366
     10 N1         -3.6516   -4.8654    0.0171 N.2       1 <0>        -0.4971
     11 C9         -3.3402   -6.1718    0.0152 C.2       1 <0>         0.3144
     12 N2         -2.0338   -6.2952    0.0120 N.2       1 <0>        -0.3376
     13 O2         -1.5015   -4.9792    0.0061 O.3       1 <0>        -0.0932
     14 C10        -4.3121   -7.2900    0.0170 C.2       1 <0>        -0.1249
     15 C11        -3.8732   -8.5848    0.0204 C.2       1 <0>         0.0385
     16 C12        -4.8220   -9.6382    0.0226 C.ar      1 <0>        -0.1012
     17 C13        -4.3952  -10.9743    0.0267 C.ar      1 <0>        -0.0814
     18 C14        -5.3277  -11.9901    0.0291 C.ar      1 <0>         0.0963
     19 C15        -6.6893  -11.6944    0.0275 C.ar      1 <0>        -0.1327
     20 C16        -7.1221  -10.3875    0.0230 C.ar      1 <0>        -0.1269
     21 C17        -6.1985   -9.3456    0.0210 C.ar      1 <0>         0.1696
     22 N3         -6.6336   -8.0350    0.0170 N.am      1 <0>        -0.6262
     23 C18        -5.7518   -7.0176    0.0211 C.2       1 <0>         0.5482
     24 O3         -6.1521   -5.8670    0.0231 O.2       1 <0>        -0.4889
     25 O4         -4.9167  -13.2860    0.0326 O.3       1 <0>        -0.3134
     26 C19        -5.9342  -14.2894    0.0350 C.3       1 <0>         0.0244
     27 H1          1.0053    1.8021    0.0021 H         1 <0>         0.1040
     28 H2         -0.5445    1.7859   -0.8732 H         1 <0>         0.0583
     29 H3         -0.5275    1.7763    0.9067 H         1 <0>         0.0583
     30 H4         -2.3305    1.1823    0.0211 H         1 <0>         0.1376
     31 H5         -4.5108    0.0457    0.0349 H         1 <0>         0.1400
     32 H6         -4.6245   -2.4103    0.0322 H         1 <0>         0.1479
     33 H7         -0.3409   -2.5982   -0.0086 H         1 <0>         0.1450
     34 H8         -2.8154   -8.8028    0.0212 H         1 <0>         0.1556
     35 H9         -3.3405  -11.2066    0.0276 H         1 <0>         0.1490
     36 H10        -7.4115  -12.4975    0.0294 H         1 <0>         0.1423
     37 H11        -8.1800  -10.1701    0.0211 H         1 <0>         0.1424
     38 H12        -6.5539  -14.1763    0.9245 H         1 <0>         0.0576
     39 H13        -6.5535  -14.1809   -0.8554 H         1 <0>         0.0576
     40 H14        -5.4714  -15.2762    0.0377 H         1 <0>         0.1041
     41 H15        -7.5848   -7.8453    0.0160 H         1 <0>         0.4217
@<TRIPOS>BOND
     1    1    2 1
     2    1   27 1
     3    1   28 1
     4    1   29 1
     5    2    3 1
     6    3    8 ar
     7    3    4 ar
     8    4    5 ar
     9    4   30 1
    10    5    6 ar
    11    5   31 1
    12    6    7 ar
    13    6   32 1
    14    7    8 ar
    15    7    9 1
    16    8   33 1
    17    9   13 1
    18    9   10 2
    19   10   11 1
    20   11   12 2
    21   11   14 1
    22   12   13 1
    23   14   23 1
    24   14   15 2
    25   15   16 1
    26   15   34 1
    27   16   21 ar
    28   16   17 ar
    29   17   18 ar
    30   17   35 1
    31   18   19 ar
    32   18   25 1
    33   19   20 ar
    34   19   36 1
    35   20   21 ar
    36   20   37 1
    37   21   22 1
    38   22   23 am
    39   22   41 1
    40   23   24 2
    41   25   26 1
    42   26   38 1
    43   26   39 1
    44   26   40 1
@<TRIPOS>MOLECULE
ZINC01912926
   51    55     0     0     0
SMALL
USER_CHARGES
2-(difluoromethyl)-1-(4,6-dimorpholino-1,3,5-triazin-2-yl)-benzoimidazole
@<TRIPOS>ATOM
      1 C1         -1.0652   -2.8642    7.1437 C.ar      1 <0>        -0.1184
      2 C2         -0.7938   -1.6243    6.5830 C.ar      1 <0>        -0.0834
      3 C3          0.3973   -1.4007    5.9254 C.ar      1 <0>        -0.0999
      4 C4          1.3312   -2.4213    5.8230 C.ar      1 <0>         0.0804
      5 C5          1.0604   -3.6792    6.3862 C.ar      1 <0>         0.0472
      6 C6         -0.1533   -3.8904    7.0455 C.ar      1 <0>        -0.0510
      7 N1          2.1401   -4.4664    6.1396 N.2       1 <0>        -0.4246
      8 C7          3.0319   -3.7935    5.4746 C.2       1 <0>         0.2310
      9 N2          2.5859   -2.5235    5.2470 N.pl3     1 <0>        -0.4185
     10 C8          3.2666   -1.5193    4.5691 C.ar      1 <0>         0.6324
     11 N3          4.5397   -1.2718    4.8538 N.ar      1 <0>        -0.6068
     12 C9          5.1917   -0.3111    4.2056 C.ar      1 <0>         0.5871
     13 N4          4.5686    0.4016    3.2726 N.ar      1 <0>        -0.5717
     14 C10         3.2942    0.1533    2.9882 C.ar      1 <0>         0.5837
     15 N5          2.6421   -0.8043    3.6407 N.ar      1 <0>        -0.5997
     16 N6          2.6463    0.8931    2.0199 N.pl3     1 <0>        -0.4490
     17 C11         1.2514    0.4546    1.8673 C.3       1 <0>         0.0295
     18 C12         0.5892    1.2586    0.7452 C.3       1 <0>         0.0614
     19 O1          0.6887    2.6539    1.0428 O.3       1 <0>        -0.3792
     20 C13         2.0335    3.1152    1.1974 C.3       1 <0>         0.0635
     21 C14         2.7103    2.3300    2.3240 C.3       1 <0>         0.0291
     22 N7          6.5148   -0.0537    4.5019 N.pl3     1 <0>        -0.4489
     23 C15         7.3539   -0.1582    3.2993 C.3       1 <0>         0.0284
     24 C16         8.7998    0.1924    3.6605 C.3       1 <0>         0.0638
     25 O2          9.2467   -0.6713    4.7092 O.3       1 <0>        -0.3787
     26 C17         8.4523   -0.5946    5.8959 C.3       1 <0>         0.0613
     27 C18         7.0029   -0.9532    5.5574 C.3       1 <0>         0.0275
     28 C19         4.3630   -4.3359    5.0218 C.3       1 <0>         0.3659
     29 F1          4.2939   -5.7306    4.9373 F         1 <0>        -0.1673
     30 F2          4.6789   -3.8076    3.7655 F         1 <0>        -0.1893
     31 H1         -2.0018   -3.0270    7.6564 H         1 <0>         0.1403
     32 H2         -1.5205   -0.8292    6.6620 H         1 <0>         0.1390
     33 H3          0.6024   -0.4336    5.4908 H         1 <0>         0.1244
     34 H4         -0.3707   -4.8524    7.4855 H         1 <0>         0.1410
     35 H5          0.7134    0.6209    2.8005 H         1 <0>         0.0694
     36 H6          1.2286   -0.6061    1.6173 H         1 <0>         0.1018
     37 H7         -0.4608    0.9771    0.6666 H         1 <0>         0.1114
     38 H8          1.0934    1.0509   -0.1986 H         1 <0>         0.0657
     39 H9          2.5803    2.9614    0.2671 H         1 <0>         0.0687
     40 H10         2.0280    4.1765    1.4458 H         1 <0>         0.1120
     41 H11         2.1957    2.5263    3.2646 H         1 <0>         0.0602
     42 H12         3.7525    2.6384    2.4074 H         1 <0>         0.1110
     43 H13         7.3119   -1.1767    2.9134 H         1 <0>         0.0628
     44 H14         6.9902    0.5345    2.5404 H         1 <0>         0.1108
     45 H15         8.8503    1.2283    3.9957 H         1 <0>         0.0682
     46 H16         9.4362    0.0616    2.7853 H         1 <0>         0.1122
     47 H17         8.4927    0.4184    6.2962 H         1 <0>         0.0655
     48 H18         8.8369   -1.2951    6.6372 H         1 <0>         0.1115
     49 H19         6.3829   -0.8408    6.4468 H         1 <0>         0.1019
     50 H20         6.9552   -1.9844    5.2076 H         1 <0>         0.0691
     51 H21         5.1335   -4.0531    5.7391 H         1 <0>         0.1473
@<TRIPOS>BOND
     1    1    6 ar
     2    1    2 ar
     3    1   31 1
     4    2    3 ar
     5    2   32 1
     6    3    4 ar
     7    3   33 1
     8    4    9 1
     9    4    5 ar
    10    5    6 ar
    11    5    7 1
    12    6   34 1
    13    7    8 2
    14    8    9 1
    15    8   28 1
    16    9   10 1
    17   10   15 ar
    18   10   11 ar
    19   11   12 ar
    20   12   13 ar
    21   12   22 1
    22   13   14 ar
    23   14   15 ar
    24   14   16 1
    25   16   21 1
    26   16   17 1
    27   17   18 1
    28   17   35 1
    29   17   36 1
    30   18   19 1
    31   18   37 1
    32   18   38 1
    33   19   20 1
    34   20   21 1
    35   20   39 1
    36   20   40 1
    37   21   41 1
    38   21   42 1
    39   22   27 1
    40   22   23 1
    41   23   24 1
    42   23   43 1
    43   23   44 1
    44   24   25 1
    45   24   45 1
    46   24   46 1
    47   25   26 1
    48   26   27 1
    49   26   47 1
    50   26   48 1
    51   27   49 1
    52   27   50 1
    53   28   29 1
    54   28   30 1
    55   28   51 1
@<TRIPOS>MOLECULE
ZINC49745945
   77    82     0     0     0
SMALL
USER_CHARGES

@<TRIPOS>ATOM
      1 C1          0.4764    1.4025   -0.5215 C.3       1 <0>        -0.1710
      2 C2          0.3294   -0.1120   -0.3620 C.3       1 <0>         0.1291
      3 N1          0.8989   -0.7840   -1.5326 N.pl3     1 <0>        -0.3750
      4 C3          0.2423   -1.1117   -2.6867 C.ar      1 <0>         0.3463
      5 C4          1.1950   -1.7363   -3.5121 C.ar      1 <0>        -0.1689
      6 C5          0.7813   -2.1829   -4.7849 C.ar      1 <0>         0.5412
      7 N2         -0.4811   -1.9946   -5.1443 N.ar      1 <0>        -0.5913
      8 C6         -1.3472   -1.3988   -4.3302 C.ar      1 <0>         0.4621
      9 N3         -1.0023   -0.9643   -3.1279 N.ar      1 <0>        -0.5608
     10 C7         -2.7456   -1.2147   -4.7838 C.ar      1 <0>        -0.0601
     11 C8         -3.1369   -1.6683   -6.0436 C.ar      1 <0>        -0.0411
     12 C9         -4.4382   -1.4964   -6.4630 C.ar      1 <0>        -0.1531
     13 C10        -5.3609   -0.8714   -5.6317 C.ar      1 <0>         0.1785
     14 C11        -4.9733   -0.4180   -4.3759 C.ar      1 <0>        -0.1297
     15 C12        -3.6746   -0.5927   -3.9495 C.ar      1 <0>        -0.0424
     16 N4         -6.6794   -0.6983   -6.0592 N.am      1 <0>        -0.6765
     17 C13        -7.6925   -0.7949   -5.1756 C.2       1 <0>         0.7063
     18 O1         -7.4552   -0.9482   -3.9930 O.2       1 <0>        -0.5481
     19 N5         -8.9686   -0.7216   -5.6028 N.am      1 <0>        -0.6830
     20 C14       -10.0168   -0.9204   -4.7052 C.ar      1 <0>         0.2020
     21 C15        -9.9036   -0.4674   -3.3945 C.ar      1 <0>        -0.1205
     22 C16       -10.9366   -0.6620   -2.5057 C.ar      1 <0>        -0.0366
     23 C17       -12.1000   -1.3155   -2.9212 C.ar      1 <0>        -0.1665
     24 C18       -12.2104   -1.7693   -4.2384 C.ar      1 <0>        -0.0758
     25 C19       -11.1759   -1.5663   -5.1236 C.ar      1 <0>        -0.1504
     26 C20       -13.2093   -1.5264   -1.9709 C.2       1 <0>         0.5768
     27 O2        -13.4955   -0.6590   -1.1683 O.2       1 <0>        -0.5039
     28 N6        -13.9051   -2.6804   -1.9927 N.am      1 <0>        -0.6322
     29 C21       -13.4970   -3.7934   -2.8637 C.3       1 <0>         0.0750
     30 C22       -13.4270   -5.0703   -2.0196 C.3       1 <0>        -0.0229
     31 N7        -14.7103   -5.2749   -1.3360 N.4       1 <0>        -0.3857
     32 C23       -14.9487   -4.1838   -0.3827 C.3       1 <0>        -0.0203
     33 C24       -15.0907   -2.8650   -1.1415 C.3       1 <0>         0.0879
     34 C25       -14.6806   -6.5546   -0.6152 C.3       1 <0>        -0.0472
     35 N8          1.6731   -2.8030   -5.6392 N.pl3     1 <0>        -0.5689
     36 C26         3.0988   -2.9173   -5.2933 C.3       1 <0>         0.0598
     37 C27         3.5241   -4.3791   -5.4725 C.3       1 <0>         0.0500
     38 O3          3.1505   -4.8212   -6.7797 O.3       1 <0>        -0.3769
     39 C28         1.7415   -4.8088   -7.0213 C.3       1 <0>         0.0464
     40 C29         1.2239   -3.3740   -6.9189 C.3       1 <0>         0.0798
     41 N9          2.3617   -1.7633   -2.8461 N.2       1 <0>        -0.1909
     42 N10         2.2259   -1.2114   -1.6910 N.2       1 <0>        -0.0068
     43 H1          1.5325    1.6578   -0.6089 H         1 <0>         0.0670
     44 H2         -0.0511    1.7263   -1.4187 H         1 <0>         0.0640
     45 H3          0.0527    1.9024    0.3495 H         1 <0>         0.0857
     46 H4          0.8569   -0.4358    0.5352 H         1 <0>         0.1062
     47 H5         -0.7267   -0.3673   -0.2745 H         1 <0>         0.1038
     48 H6         -2.4204   -2.1536   -6.6899 H         1 <0>         0.1444
     49 H7         -4.7416   -1.8470   -7.4384 H         1 <0>         0.1337
     50 H8         -5.6917    0.0678   -3.7322 H         1 <0>         0.1451
     51 H9         -3.3752   -0.2447   -2.9720 H         1 <0>         0.1425
     52 H10        -6.8659   -0.5085   -6.9920 H         1 <0>         0.4127
     53 H11        -9.1579   -0.5305   -6.5348 H         1 <0>         0.4148
     54 H12        -9.0041    0.0372   -3.0740 H         1 <0>         0.1533
     55 H13       -10.8479   -0.3105   -1.4883 H         1 <0>         0.1384
     56 H14       -13.1081   -2.2746   -4.5626 H         1 <0>         0.1335
     57 H15       -11.2625   -1.9125   -6.1430 H         1 <0>         0.1380
     58 H16       -14.2285   -3.9214   -3.6615 H         1 <0>         0.0988
     59 H17       -12.5168   -3.5832   -3.2917 H         1 <0>         0.1400
     60 H18       -13.2199   -5.9228   -2.6665 H         1 <0>         0.1455
     61 H19       -12.6324   -4.9739   -1.2797 H         1 <0>         0.1346
     62 H20       -15.8628   -4.3830    0.1765 H         1 <0>         0.1455
     63 H21       -14.1080   -4.1141    0.3076 H         1 <0>         0.1339
     64 H22       -15.1638   -2.0412   -0.4315 H         1 <0>         0.1376
     65 H23       -15.9859   -2.8977   -1.7625 H         1 <0>         0.0963
     66 H24       -13.8753   -6.5394    0.1192 H         1 <0>         0.1223
     67 H25       -15.6328   -6.7077   -0.1073 H         1 <0>         0.1262
     68 H26       -14.5117   -7.3663   -1.3229 H         1 <0>         0.1260
     69 H27         3.6886   -2.2799   -5.9521 H         1 <0>         0.0854
     70 H28         3.2505   -2.6151   -4.2571 H         1 <0>         0.1320
     71 H29         4.6047   -4.4608   -5.3555 H         1 <0>         0.1142
     72 H30         3.0284   -4.9969   -4.7237 H         1 <0>         0.0576
     73 H31         1.5397   -5.1997   -8.0186 H         1 <0>         0.1121
     74 H32         1.2393   -5.4282   -6.2781 H         1 <0>         0.0562
     75 H33         0.1346   -3.3742   -6.9586 H         1 <0>         0.1100
     76 H34         1.6217   -2.7834   -7.7442 H         1 <0>         0.0831
     77 H35       -15.4540   -5.2928   -2.0176 H         1 <0>         0.4254
@<TRIPOS>BOND
     1    1    2 1
     2    1   43 1
     3    1   44 1
     4    1   45 1
     5    2    3 1
     6    2   46 1
     7    2   47 1
     8    3   42 1
     9    3    4 1
    10    4    9 ar
    11    4    5 ar
    12    5    6 ar
    13    5   41 1
    14    6    7 ar
    15    6   35 1
    16    7    8 ar
    17    8    9 ar
    18    8   10 1
    19   10   15 ar
    20   10   11 ar
    21   11   12 ar
    22   11   48 1
    23   12   13 ar
    24   12   49 1
    25   13   14 ar
    26   13   16 1
    27   14   15 ar
    28   14   50 1
    29   15   51 1
    30   16   17 am
    31   16   52 1
    32   17   18 2
    33   17   19 am
    34   19   20 1
    35   19   53 1
    36   20   25 ar
    37   20   21 ar
    38   21   22 ar
    39   21   54 1
    40   22   23 ar
    41   22   55 1
    42   23   24 ar
    43   23   26 1
    44   24   25 ar
    45   24   56 1
    46   25   57 1
    47   26   27 2
    48   26   28 am
    49   28   33 1
    50   28   29 1
    51   29   30 1
    52   29   58 1
    53   29   59 1
    54   30   31 1
    55   30   60 1
    56   30   61 1
    57   31   32 1
    58   31   34 1
    59   31   77 1
    60   32   33 1
    61   32   62 1
    62   32   63 1
    63   33   64 1
    64   33   65 1
    65   34   66 1
    66   34   67 1
    67   34   68 1
    68   35   40 1
    69   35   36 1
    70   36   37 1
    71   36   69 1
    72   36   70 1
    73   37   38 1
    74   37   71 1
    75   37   72 1
    76   38   39 1
    77   39   40 1
    78   39   73 1
    79   39   74 1
    80   40   75 1
    81   40   76 1
    82   41   42 2
@<TRIPOS>MOLECULE
ZINC49745945
   76    81     0     0     0
SMALL
USER_CHARGES

@<TRIPOS>ATOM
      1 C1          0.4870    1.2904   -0.5179 C.3       1 <0>        -0.1705
      2 C2          0.3305   -0.2245   -0.3718 C.3       1 <0>         0.1289
      3 N1          0.8946   -0.8895   -1.5490 N.pl3     1 <0>        -0.3755
      4 C3          0.2347   -1.2027   -2.7053 C.ar      1 <0>         0.3475
      5 C4          1.1826   -1.8259   -3.5373 C.ar      1 <0>        -0.1706
      6 C5          0.7647   -2.2584   -4.8136 C.ar      1 <0>         0.5407
      7 N2         -0.4968   -2.0590   -5.1699 N.ar      1 <0>        -0.5907
      8 C6         -1.3583   -1.4650   -4.3496 C.ar      1 <0>         0.4661
      9 N3         -1.0094   -1.0435   -3.1438 N.ar      1 <0>        -0.5606
     10 C7         -2.7559   -1.2680   -4.8001 C.ar      1 <0>        -0.0670
     11 C8         -3.1514   -1.7078   -6.0635 C.ar      1 <0>        -0.0406
     12 C9         -4.4520   -1.5239   -6.4798 C.ar      1 <0>        -0.1560
     13 C10        -5.3698   -0.9005   -5.6420 C.ar      1 <0>         0.1863
     14 C11        -4.9781   -0.4609   -4.3826 C.ar      1 <0>        -0.1308
     15 C12        -3.6801   -0.6476   -3.9592 C.ar      1 <0>        -0.0410
     16 N4         -6.6877   -0.7153   -6.0665 N.am      1 <0>        -0.6800
     17 C13        -7.7004   -0.8130   -5.1826 C.2       1 <0>         0.7051
     18 O1         -7.4628   -0.9778   -4.0017 O.2       1 <0>        -0.5474
     19 N5         -8.9765   -0.7280   -5.6077 N.am      1 <0>        -0.6801
     20 C14       -10.0250   -0.9276   -4.7107 C.ar      1 <0>         0.1844
     21 C15        -9.9074   -0.4864   -3.3963 C.ar      1 <0>        -0.1229
     22 C16       -10.9407   -0.6820   -2.5080 C.ar      1 <0>        -0.0438
     23 C17       -12.1088   -1.3244   -2.9277 C.ar      1 <0>        -0.1468
     24 C18       -12.2235   -1.7663   -4.2486 C.ar      1 <0>        -0.0700
     25 C19       -11.1887   -1.5625   -5.1332 C.ar      1 <0>        -0.1503
     26 C20       -13.2184   -1.5362   -1.9780 C.2       1 <0>         0.5640
     27 O2        -13.5054   -0.6692   -1.1752 O.2       1 <0>        -0.5333
     28 N6        -13.9136   -2.6906   -2.0005 N.am      1 <0>        -0.6106
     29 C21       -13.5042   -3.8015   -2.8730 C.3       1 <0>         0.1032
     30 C22       -13.4141   -5.0766   -2.0278 C.3       1 <0>         0.0378
     31 N7        -14.6837   -5.2801   -1.3175 N.3       1 <0>        -0.5433
     32 C23       -14.9490   -4.1844   -0.3757 C.3       1 <0>         0.0394
     33 C24       -15.0984   -2.8750   -1.1486 C.3       1 <0>         0.1159
     34 C25       -14.7011   -6.5793   -0.6321 C.3       1 <0>         0.0242
     35 N8          1.6517   -2.8765   -5.6744 N.pl3     1 <0>        -0.5705
     36 C26         3.0770   -3.0028   -5.3312 C.3       1 <0>         0.0607
     37 C27         3.4930   -4.4656   -5.5238 C.3       1 <0>         0.0499
     38 O3          3.1152   -4.8937   -6.8344 O.3       1 <0>        -0.3779
     39 C28         1.7061   -4.8704   -7.0743 C.3       1 <0>         0.0463
     40 C29         1.1976   -3.4333   -6.9586 C.3       1 <0>         0.0802
     41 N9          2.3498   -1.8663   -2.8728 N.2       1 <0>        -0.1918
     42 N10         2.2187   -1.3239   -1.7127 N.2       1 <0>        -0.0095
     43 H1          1.5446    1.5398   -0.6042 H         1 <0>         0.0660
     44 H2         -0.0394    1.6256   -1.4116 H         1 <0>         0.0643
     45 H3          0.0673    1.7852    0.3580 H         1 <0>         0.0854
     46 H4          0.8569   -0.5596    0.5219 H         1 <0>         0.1056
     47 H5         -0.7271   -0.4739   -0.2855 H         1 <0>         0.1048
     48 H6         -2.4387   -2.1918   -6.7148 H         1 <0>         0.1428
     49 H7         -4.7586   -1.8639   -7.4580 H         1 <0>         0.1333
     50 H8         -5.6928    0.0237   -3.7338 H         1 <0>         0.1465
     51 H9         -3.3775   -0.3103   -2.9789 H         1 <0>         0.1417
     52 H10        -6.8740   -0.5163   -6.9974 H         1 <0>         0.4114
     53 H11        -9.1655   -0.5279   -6.5379 H         1 <0>         0.4117
     54 H12        -9.0044    0.0097   -3.0726 H         1 <0>         0.1479
     55 H13       -10.8487   -0.3396   -1.4879 H         1 <0>         0.1354
     56 H14       -13.1248   -2.2632   -4.5760 H         1 <0>         0.1365
     57 H15       -11.2786   -1.8995   -6.1554 H         1 <0>         0.1341
     58 H16       -14.2423   -3.9375   -3.6634 H         1 <0>         0.0805
     59 H17       -12.5303   -3.5831   -3.3112 H         1 <0>         0.0989
     60 H18       -13.2196   -5.9303   -2.6770 H         1 <0>         0.0900
     61 H19       -12.6046   -4.9772   -1.3047 H         1 <0>         0.0404
     62 H20       -15.8676   -4.3911    0.1733 H         1 <0>         0.0904
     63 H21       -14.1181   -4.0974    0.3245 H         1 <0>         0.0396
     64 H22       -15.1780   -2.0444   -0.4473 H         1 <0>         0.0984
     65 H23       -15.9927   -2.9203   -1.7701 H         1 <0>         0.0780
     66 H24       -13.8860   -6.6198    0.0905 H         1 <0>         0.0267
     67 H25       -15.6521   -6.7042   -0.1143 H         1 <0>         0.0714
     68 H26       -14.5781   -7.3778   -1.3638 H         1 <0>         0.0714
     69 H27         3.6701   -2.3633   -5.9850 H         1 <0>         0.0839
     70 H28         3.2318   -2.7108   -4.2924 H         1 <0>         0.1318
     71 H29         4.5732   -4.5551   -5.4087 H         1 <0>         0.1131
     72 H30         2.9942   -5.0869   -4.7800 H         1 <0>         0.0576
     73 H31         1.5007   -5.2511   -8.0748 H         1 <0>         0.1118
     74 H32         1.2008   -5.4932   -6.3361 H         1 <0>         0.0567
     75 H33         0.1083   -3.4263   -6.9971 H         1 <0>         0.1107
     76 H34         1.5982   -2.8379   -7.7790 H         1 <0>         0.0822
@<TRIPOS>BOND
     1    1    2 1
     2    1   43 1
     3    1   44 1
     4    1   45 1
     5    2    3 1
     6    2   46 1
     7    2   47 1
     8    3   42 1
     9    3    4 1
    10    4    9 ar
    11    4    5 ar
    12    5    6 ar
    13    5   41 1
    14    6    7 ar
    15    6   35 1
    16    7    8 ar
    17    8    9 ar
    18    8   10 1
    19   10   15 ar
    20   10   11 ar
    21   11   12 ar
    22   11   48 1
    23   12   13 ar
    24   12   49 1
    25   13   14 ar
    26   13   16 1
    27   14   15 ar
    28   14   50 1
    29   15   51 1
    30   16   17 am
    31   16   52 1
    32   17   18 2
    33   17   19 am
    34   19   20 1
    35   19   53 1
    36   20   25 ar
    37   20   21 ar
    38   21   22 ar
    39   21   54 1
    40   22   23 ar
    41   22   55 1
    42   23   24 ar
    43   23   26 1
    44   24   25 ar
    45   24   56 1
    46   25   57 1
    47   26   27 2
    48   26   28 am
    49   28   33 1
    50   28   29 1
    51   29   30 1
    52   29   58 1
    53   29   59 1
    54   30   31 1
    55   30   60 1
    56   30   61 1
    57   31   32 1
    58   31   34 1
    59   32   33 1
    60   32   62 1
    61   32   63 1
    62   33   64 1
    63   33   65 1
    64   34   66 1
    65   34   67 1
    66   34   68 1
    67   35   40 1
    68   35   36 1
    69   36   37 1
    70   36   69 1
    71   36   70 1
    72   37   38 1
    73   37   71 1
    74   37   72 1
    75   38   39 1
    76   39   40 1
    77   39   73 1
    78   39   74 1
    79   40   75 1
    80   40   76 1
    81   41   42 2
@<TRIPOS>MOLECULE
ZINC49757175
   87    92     0     0     0
SMALL
USER_CHARGES

@<TRIPOS>ATOM
      1 C1          5.3868   -0.8608    6.2673 C.3       1 <0>        -0.0523
      2 N1          4.6902   -1.9659    5.5955 N.4       1 <0>        -0.3860
      3 C2          3.5030   -2.3420    6.3747 C.3       1 <0>        -0.0524
      4 C3          4.2788   -1.5401    4.2511 C.3       1 <0>         0.0238
      5 C4          3.5515   -2.6911    3.5521 C.3       1 <0>        -0.1577
      6 C5          3.0937   -2.2324    2.1640 C.3       1 <0>         0.1161
      7 N2          4.2570   -1.7183    1.4283 N.am      1 <0>        -0.6211
      8 C6          5.0802   -0.6722    2.0502 C.3       1 <0>         0.0940
      9 C7          5.5157   -1.1483    3.4396 C.3       1 <0>        -0.1602
     10 C8          4.5634   -2.1975    0.2065 C.2       1 <0>         0.5707
     11 O1          3.9333   -3.1284   -0.2571 O.2       1 <0>        -0.5171
     12 C9          5.6638   -1.5925   -0.5689 C.ar      1 <0>        -0.1660
     13 C10         6.4434   -2.3861   -1.4148 C.ar      1 <0>        -0.0336
     14 C11         7.4690   -1.8185   -2.1366 C.ar      1 <0>        -0.1317
     15 C12         7.7299   -0.4564   -2.0246 C.ar      1 <0>         0.2027
     16 C13         6.9560    0.3365   -1.1830 C.ar      1 <0>        -0.1586
     17 C14         5.9249   -0.2236   -0.4631 C.ar      1 <0>        -0.0749
     18 N3          8.7695    0.1152   -2.7570 N.am      1 <0>        -0.6792
     19 C15         9.8319   -0.6326   -3.1155 C.2       1 <0>         0.7047
     20 O2          9.9279   -1.7796   -2.7238 O.2       1 <0>        -0.5448
     21 N4         10.7879   -0.1090   -3.9081 N.am      1 <0>        -0.6771
     22 C16        11.8314   -0.9144   -4.3687 C.ar      1 <0>         0.1828
     23 C17        11.5957   -2.2515   -4.6685 C.ar      1 <0>        -0.1308
     24 C18        12.6236   -3.0483   -5.1232 C.ar      1 <0>        -0.0389
     25 C19        13.9019   -2.5125   -5.2826 C.ar      1 <0>        -0.0638
     26 C20        14.1358   -1.1705   -4.9811 C.ar      1 <0>        -0.0386
     27 C21        13.1032   -0.3764   -4.5321 C.ar      1 <0>        -0.1549
     28 C22        15.0090   -3.3670   -5.7708 C.ar      1 <0>         0.4756
     29 N5         14.7839   -4.6454   -6.0629 N.ar      1 <0>        -0.6329
     30 C23        15.7778   -5.4115   -6.5014 C.ar      1 <0>         0.6382
     31 N6         16.9962   -4.9008   -6.6480 N.ar      1 <0>        -0.6569
     32 C24        17.2217   -3.6238   -6.3563 C.ar      1 <0>         0.6381
     33 N7         16.2277   -2.8551   -5.9225 N.ar      1 <0>        -0.6334
     34 N8         18.4872   -3.0943   -6.5088 N.pl3     1 <0>        -0.5758
     35 C25        19.6008   -3.9223   -6.9985 C.3       1 <0>         0.0915
     36 C26        20.2863   -3.1784   -8.1502 C.3       1 <0>         0.0472
     37 O3         20.6189   -1.8549   -7.7240 O.3       1 <0>        -0.3779
     38 C27        19.4890   -1.0501   -7.3784 C.3       1 <0>         0.0468
     39 C28        18.7613   -1.6836   -6.1924 C.3       1 <0>         0.0918
     40 N9         15.5446   -6.7378   -6.8041 N.pl3     1 <0>        -0.5757
     41 C29        16.6300   -7.6072   -7.2852 C.3       1 <0>         0.0914
     42 C30        16.6371   -8.8852   -6.4386 C.3       1 <0>         0.0475
     43 O4         15.3249   -9.4526   -6.4320 O.3       1 <0>        -0.3780
     44 C31        14.3286   -8.6162   -5.8390 C.3       1 <0>         0.0472
     45 C32        14.2046   -7.3258   -6.6495 C.3       1 <0>         0.0914
     46 H1          6.2677   -0.5817    5.6892 H         1 <0>         0.1248
     47 H2          4.7177   -0.0040    6.3464 H         1 <0>         0.1229
     48 H3          5.6921   -1.1766    7.2649 H         1 <0>         0.1256
     49 H4          2.8338   -1.4852    6.4538 H         1 <0>         0.1230
     50 H5          2.9860   -3.1620    5.8762 H         1 <0>         0.1253
     51 H6          3.8082   -2.6579    7.3723 H         1 <0>         0.1257
     52 H7          3.6100   -0.6831    4.3303 H         1 <0>         0.1398
     53 H8          4.2275   -3.5401    3.4502 H         1 <0>         0.0928
     54 H9          2.6838   -2.9851    4.1426 H         1 <0>         0.1023
     55 H10         2.6634   -3.0758    1.6240 H         1 <0>         0.1144
     56 H11         2.3487   -1.4435    2.2671 H         1 <0>         0.0817
     57 H12         5.9606   -0.4862    1.4351 H         1 <0>         0.1242
     58 H13         4.4972    0.2440    2.1440 H         1 <0>         0.0843
     59 H14         6.0460   -0.3444    3.9500 H         1 <0>         0.1029
     60 H15         6.1732   -2.0119    3.3387 H         1 <0>         0.0937
     61 H16         6.2416   -3.4435   -1.5019 H         1 <0>         0.1380
     62 H17         8.0721   -2.4313   -2.7902 H         1 <0>         0.1552
     63 H18         7.1616    1.3933   -1.0978 H         1 <0>         0.1361
     64 H19         5.3214    0.3933    0.1863 H         1 <0>         0.1378
     65 H20         8.7281    1.0511   -3.0086 H         1 <0>         0.4141
     66 H21        10.7511    0.8274   -4.1586 H         1 <0>         0.4123
     67 H22        10.6061   -2.6659   -4.5446 H         1 <0>         0.1394
     68 H23        12.4401   -4.0869   -5.3556 H         1 <0>         0.1418
     69 H24        15.1244   -0.7533   -5.1036 H         1 <0>         0.1434
     70 H25        13.2827    0.6635   -4.3028 H         1 <0>         0.1335
     71 H26        20.3155   -4.0900   -6.1928 H         1 <0>         0.0779
     72 H27        19.2180   -4.8785   -7.3553 H         1 <0>         0.1070
     73 H28        21.1952   -3.7080   -8.4359 H         1 <0>         0.1107
     74 H29        19.6105   -3.1269   -9.0039 H         1 <0>         0.0559
     75 H30        19.8241   -0.0486   -7.1087 H         1 <0>         0.1107
     76 H31        18.8102   -0.9909   -8.2292 H         1 <0>         0.0557
     77 H32        17.8229   -1.1580   -6.0157 H         1 <0>         0.1089
     78 H33        19.3900   -1.6220   -5.3042 H         1 <0>         0.0775
     79 H34        16.4607   -7.8609   -8.3316 H         1 <0>         0.0783
     80 H35        17.5855   -7.0929   -7.1816 H         1 <0>         0.1071
     81 H36        17.3408   -9.6002   -6.8648 H         1 <0>         0.1107
     82 H37        16.9348   -8.6443   -5.4181 H         1 <0>         0.0555
     83 H38        13.3715   -9.1377   -5.8337 H         1 <0>         0.1104
     84 H39        14.6179   -8.3743   -4.8163 H         1 <0>         0.0551
     85 H40        13.5546   -6.6254   -6.1251 H         1 <0>         0.1090
     86 H41        13.7869   -7.5508   -7.6308 H         1 <0>         0.0780
     87 H42         5.3096   -2.7590    5.5223 H         1 <0>         0.4255
@<TRIPOS>BOND
     1    1    2 1
     2    1   46 1
     3    1   47 1
     4    1   48 1
     5    2    3 1
     6    2    4 1
     7    2   87 1
     8    3   49 1
     9    3   50 1
    10    3   51 1
    11    4    9 1
    12    4    5 1
    13    4   52 1
    14    5    6 1
    15    5   53 1
    16    5   54 1
    17    6    7 1
    18    6   55 1
    19    6   56 1
    20    7    8 1
    21    7   10 am
    22    8    9 1
    23    8   57 1
    24    8   58 1
    25    9   59 1
    26    9   60 1
    27   10   11 2
    28   10   12 1
    29   12   17 ar
    30   12   13 ar
    31   13   14 ar
    32   13   61 1
    33   14   15 ar
    34   14   62 1
    35   15   16 ar
    36   15   18 1
    37   16   17 ar
    38   16   63 1
    39   17   64 1
    40   18   19 am
    41   18   65 1
    42   19   20 2
    43   19   21 am
    44   21   22 1
    45   21   66 1
    46   22   27 ar
    47   22   23 ar
    48   23   24 ar
    49   23   67 1
    50   24   25 ar
    51   24   68 1
    52   25   26 ar
    53   25   28 1
    54   26   27 ar
    55   26   69 1
    56   27   70 1
    57   28   33 ar
    58   28   29 ar
    59   29   30 ar
    60   30   31 ar
    61   30   40 1
    62   31   32 ar
    63   32   33 ar
    64   32   34 1
    65   34   39 1
    66   34   35 1
    67   35   36 1
    68   35   71 1
    69   35   72 1
    70   36   37 1
    71   36   73 1
    72   36   74 1
    73   37   38 1
    74   38   39 1
    75   38   75 1
    76   38   76 1
    77   39   77 1
    78   39   78 1
    79   40   45 1
    80   40   41 1
    81   41   42 1
    82   41   79 1
    83   41   80 1
    84   42   43 1
    85   42   81 1
    86   42   82 1
    87   43   44 1
    88   44   45 1
    89   44   83 1
    90   44   84 1
    91   45   85 1
    92   45   86 1
@<TRIPOS>MOLECULE
ZINC37858693
   41    44     0     0     0
SMALL
USER_CHARGES

@<TRIPOS>ATOM
      1 C1          0.5160    2.1016    0.8389 C.ar      1 <0>        -0.0994
      2 C2          1.7856    2.6500    0.8665 C.ar      1 <0>        -0.1121
      3 C3          2.8922    1.8441    0.6914 C.ar      1 <0>        -0.0943
      4 C4          2.7287    0.4752    0.4869 C.ar      1 <0>        -0.0732
      5 C5          1.4472   -0.0719    0.4605 C.ar      1 <0>        -0.1006
      6 C6          0.3478    0.7436    0.6363 C.ar      1 <0>        -0.1173
      7 C7          3.9141   -0.3959    0.2976 C.ar      1 <0>        -0.0335
      8 C8          4.8973   -0.0477   -0.6237 C.ar      1 <0>        -0.0260
      9 C9          6.0057   -0.8554   -0.8057 C.ar      1 <0>        -0.1150
     10 C10         6.1509   -2.0173   -0.0765 C.ar      1 <0>        -0.0276
     11 C11         5.1749   -2.3827    0.8521 C.ar      1 <0>        -0.1580
     12 C12         4.0513   -1.5679    1.0483 C.ar      1 <0>         0.1530
     13 O1          3.1107   -1.9210    1.9513 O.3       1 <0>        -0.2119
     14 C13         3.2233   -3.0458    2.6842 C.2       1 <0>         0.5161
     15 C14         4.3307   -3.9124    2.5453 C.2       1 <0>        -0.3925
     16 C15         5.3074   -3.6191    1.6424 C.2       1 <0>         0.3444
     17 O2          6.3792   -4.4322    1.4880 O.3       1 <0>        -0.4181
     18 N1          2.2825   -3.3434    3.5479 N.pl3     1 <0>        -0.4926
     19 C16         2.4343   -4.4783    4.4722 C.3       1 <0>         0.0520
     20 C17         2.1323   -3.9883    5.8930 C.3       1 <0>         0.0436
     21 O3          0.8653   -3.3262    5.9032 O.3       1 <0>        -0.3612
     22 C18         0.8098   -2.1560    5.0839 C.3       1 <0>         0.0453
     23 C19         1.0465   -2.5487    3.6254 C.3       1 <0>         0.0388
     24 H1         -0.3469    2.7354    0.9805 H         1 <0>         0.1315
     25 H2          1.9111    3.7109    1.0251 H         1 <0>         0.1335
     26 H3          3.8830    2.2735    0.7124 H         1 <0>         0.1299
     27 H4          1.3146   -1.1320    0.3020 H         1 <0>         0.1182
     28 H5         -0.6458    0.3207    0.6159 H         1 <0>         0.1304
     29 H6          4.7942    0.8593   -1.2010 H         1 <0>         0.1606
     30 H7          6.7620   -0.5746   -1.5237 H         1 <0>         0.1586
     31 H8          7.0184   -2.6435   -0.2242 H         1 <0>         0.1605
     32 H9          4.3974   -4.8082    3.1449 H         1 <0>         0.1871
     33 H10         1.7353   -5.2692    4.2004 H         1 <0>         0.1243
     34 H11         3.4552   -4.8572    4.4238 H         1 <0>         0.1224
     35 H12         2.1038   -4.8394    6.5733 H         1 <0>         0.1345
     36 H13         2.9091   -3.2929    6.2111 H         1 <0>         0.0713
     37 H14        -0.1702   -1.6889    5.1820 H         1 <0>         0.1322
     38 H15         1.5817   -1.4539    5.3990 H         1 <0>         0.0698
     39 H16         1.1488   -1.6504    3.0165 H         1 <0>         0.1219
     40 H17         0.2054   -3.1421    3.2669 H         1 <0>         0.1210
     41 H18         6.3643   -5.2148    2.0559 H         1 <0>         0.4327
@<TRIPOS>BOND
     1    1    6 ar
     2    1    2 ar
     3    1   24 1
     4    2    3 ar
     5    2   25 1
     6    3    4 ar
     7    3   26 1
     8    4    5 ar
     9    4    7 1
    10    5    6 ar
    11    5   27 1
    12    6   28 1
    13    7   12 ar
    14    7    8 ar
    15    8    9 ar
    16    8   29 1
    17    9   10 ar
    18    9   30 1
    19   10   11 ar
    20   10   31 1
    21   11   16 1
    22   11   12 ar
    23   12   13 1
    24   13   14 1
    25   14   15 1
    26   14   18 2
    27   15   16 2
    28   15   32 1
    29   16   17 1
    30   17   41 1
    31   18   23 1
    32   18   19 1
    33   19   20 1
    34   19   33 1
    35   19   34 1
    36   20   21 1
    37   20   35 1
    38   20   36 1
    39   21   22 1
    40   22   23 1
    41   22   37 1
    42   22   38 1
    43   23   39 1
    44   23   40 1
@<TRIPOS>MOLECULE
ZINC37858693
   40    43     0     0     0
SMALL
USER_CHARGES

@<TRIPOS>ATOM
      1 C1          0.2876    1.8369    0.5003 C.ar      1 <0>        -0.1138
      2 C2          1.5256    2.4537    0.5196 C.ar      1 <0>        -0.1178
      3 C3          2.6766    1.7000    0.4106 C.ar      1 <0>        -0.1031
      4 C4          2.5899    0.3150    0.2813 C.ar      1 <0>        -0.0464
      5 C5          1.3398   -0.3010    0.2629 C.ar      1 <0>        -0.0972
      6 C6          0.1955    0.4627    0.3722 C.ar      1 <0>        -0.1190
      7 C7          3.8233   -0.5002    0.1633 C.ar      1 <0>        -0.0659
      8 C8          4.8057   -0.1521   -0.7576 C.ar      1 <0>        -0.0509
      9 C9          5.9596   -0.9073   -0.8735 C.ar      1 <0>        -0.1421
     10 C10         6.1511   -2.0171   -0.0767 C.ar      1 <0>        -0.0303
     11 C11         5.1771   -2.3805    0.8515 C.ar      1 <0>        -0.2132
     12 C12         4.0070   -1.6203    0.9822 C.ar      1 <0>         0.1636
     13 O1          3.0722   -1.9773    1.8869 O.3       1 <0>        -0.2401
     14 C13         3.2188   -3.0440    2.6844 C.2       1 <0>         0.4332
     15 C14         4.3202   -3.8451    2.6409 C.2       1 <0>        -0.4014
     16 C15         5.3485   -3.5630    1.7210 C.2       1 <0>         0.4330
     17 O2          6.3487   -4.2595    1.6546 O.2       1 <0>        -0.4871
     18 N1          2.2228   -3.3404    3.5787 N.pl3     1 <0>        -0.6054
     19 C16         2.5307   -3.9598    4.8776 C.3       1 <0>         0.0933
     20 C17         1.8423   -3.1437    5.9776 C.3       1 <0>         0.0440
     21 O3          0.4569   -2.9961    5.6571 O.3       1 <0>        -0.3749
     22 C18         0.2096   -2.2766    4.4468 C.3       1 <0>         0.0453
     23 C19         0.8149   -3.0430    3.2707 C.3       1 <0>         0.0807
     24 H1         -0.6104    2.4302    0.5900 H         1 <0>         0.1241
     25 H2          1.5916    3.5270    0.6198 H         1 <0>         0.1260
     26 H3          3.6427    2.1826    0.4251 H         1 <0>         0.1253
     27 H4          1.2668   -1.3738    0.1627 H         1 <0>         0.1192
     28 H5         -0.7737   -0.0136    0.3580 H         1 <0>         0.1249
     29 H6          4.6668    0.7142   -1.3874 H         1 <0>         0.1424
     30 H7          6.7148   -0.6263   -1.5926 H         1 <0>         0.1401
     31 H8          7.0533   -2.6030   -0.1722 H         1 <0>         0.1447
     32 H9          4.4000   -4.6957    3.3015 H         1 <0>         0.1539
     33 H10         2.1587   -4.9842    4.8932 H         1 <0>         0.0888
     34 H11         3.6087   -3.9576    5.0390 H         1 <0>         0.1017
     35 H12         1.9421   -3.6615    6.9316 H         1 <0>         0.1144
     36 H13         2.3070   -2.1601    6.0461 H         1 <0>         0.0589
     37 H14        -0.8652   -2.1705    4.2994 H         1 <0>         0.1109
     38 H15         0.6683   -1.2898    4.5097 H         1 <0>         0.0586
     39 H16         0.7573   -2.4341    2.3685 H         1 <0>         0.0961
     40 H17         0.2673   -3.9736    3.1217 H         1 <0>         0.0853
@<TRIPOS>BOND
     1    1    6 ar
     2    1    2 ar
     3    1   24 1
     4    2    3 ar
     5    2   25 1
     6    3    4 ar
     7    3   26 1
     8    4    5 ar
     9    4    7 1
    10    5    6 ar
    11    5   27 1
    12    6   28 1
    13    7   12 ar
    14    7    8 ar
    15    8    9 ar
    16    8   29 1
    17    9   10 ar
    18    9   30 1
    19   10   11 ar
    20   10   31 1
    21   11   16 1
    22   11   12 ar
    23   12   13 1
    24   13   14 1
    25   14   15 2
    26   14   18 1
    27   15   16 1
    28   15   32 1
    29   16   17 2
    30   18   23 1
    31   18   19 1
    32   19   20 1
    33   19   33 1
    34   19   34 1
    35   20   21 1
    36   20   35 1
    37   20   36 1
    38   21   22 1
    39   22   23 1
    40   22   37 1
    41   22   38 1
    42   23   39 1
    43   23   40 1
