@<TRIPOS>MOLECULE
ZINC00210586
   27    29     0     0     0
SMALL
USER_CHARGES

@<TRIPOS>ATOM
      1 C1         -0.0168    1.3883    0.0097 C.ar      1 <0>        -0.1025
      2 C2          1.1576    2.1082    0.0023 C.ar      1 <0>        -0.0924
      3 C3          2.3798    1.4452   -0.0133 C.ar      1 <0>         0.0708
      4 C4          2.4007    0.0405   -0.0182 C.ar      1 <0>        -0.1298
      5 C5          1.2054   -0.6819   -0.0114 C.ar      1 <0>        -0.0869
      6 C6          0.0021   -0.0041    0.0020 C.ar      1 <0>         0.0880
      7 O1         -1.1672   -0.6982    0.0080 O.3       1 <0>        -0.4931
      8 C7          3.8176   -0.3381   -0.0277 C.2       1 <0>        -0.0996
      9 C8          4.5253    0.8161   -0.0201 C.2       1 <0>         0.0027
     10 O2          3.6563    1.8653   -0.0268 O.3       1 <0>        -0.1663
     11 C9          5.9742    0.9958    0.0058 C.2       1 <0>         0.5912
     12 O3          6.3559    2.1509    0.0030 O.2       1 <0>        -0.5390
     13 N1          6.9228    0.0912    0.0322 N.am      1 <0>        -0.6887
     14 C10         6.8151   -1.3408   -0.0459 C.3       1 <0>         0.1014
     15 C11         5.6309   -1.9141    0.6852 C.3       1 <0>        -0.1406
     16 C12         4.3281   -1.7433   -0.0502 C.3       1 <0>        -0.0626
     17 H1         -0.9626    1.9094    0.0261 H         1 <0>         0.1464
     18 H2          1.1291    3.1878    0.0083 H         1 <0>         0.1433
     19 H3          1.2219   -1.7617   -0.0176 H         1 <0>         0.1376
     20 H4         -1.5128   -0.8942   -0.8736 H         1 <0>         0.3926
     21 H5          7.8253    0.4368    0.1159 H         1 <0>         0.4141
     22 H6          6.7451   -1.6259   -1.0956 H         1 <0>         0.0697
     23 H7          7.7230   -1.7793    0.3684 H         1 <0>         0.0947
     24 H8          5.8029   -2.9781    0.8474 H         1 <0>         0.0970
     25 H9          5.5500   -1.4248    1.6559 H         1 <0>         0.0738
     26 H10         3.5815   -2.3943    0.4047 H         1 <0>         0.0895
     27 H11         4.4691   -2.0479   -1.0872 H         1 <0>         0.0884
@<TRIPOS>BOND
     1    1    6 ar
     2    1    2 ar
     3    1   17 1
     4    2    3 ar
     5    2   18 1
     6    3   10 1
     7    3    4 ar
     8    4    5 ar
     9    4    8 1
    10    5    6 ar
    11    5   19 1
    12    6    7 1
    13    7   20 1
    14    8   16 1
    15    8    9 2
    16    9   10 1
    17    9   11 1
    18   11   12 2
    19   11   13 am
    20   13   14 1
    21   13   21 1
    22   14   15 1
    23   14   22 1
    24   14   23 1
    25   15   16 1
    26   15   24 1
    27   15   25 1
    28   16   26 1
    29   16   27 1
@<TRIPOS>MOLECULE
ZINC66097229
   25    27     0     0     0
SMALL
USER_CHARGES

@<TRIPOS>ATOM
      1 C1         -0.0168    1.3888    0.0097 C.ar      1 <0>        -0.1040
      2 C2          1.1741    2.0855    0.0020 C.ar      1 <0>        -0.0620
      3 C3          2.3695    1.3920   -0.0124 C.ar      1 <0>        -0.1229
      4 C4          2.4238   -0.0092   -0.0177 C.ar      1 <0>        -0.0722
      5 C5          1.1864   -0.7001   -0.0119 C.ar      1 <0>        -0.0926
      6 C6          0.0021   -0.0041    0.0020 C.ar      1 <0>         0.1051
      7 O1         -1.1737   -0.6875    0.0086 O.3       1 <0>        -0.4950
      8 C7          3.7710   -0.6178   -0.0264 C.2       1 <0>        -0.0538
      9 C8          4.8342    0.2666   -0.0215 C.2       1 <0>        -0.1874
     10 S1          4.0708    1.8822   -0.0269 S.3       1 <0>         0.1711
     11 C9          6.2107    0.0746   -0.0021 C.2       1 <0>         0.5846
     12 O2          6.8260    1.1241   -0.0589 O.2       1 <0>        -0.5592
     13 N1          6.9961   -0.9548    0.0623 N.am      1 <0>        -0.6878
     14 C10         6.7031   -2.3639    0.0251 C.3       1 <0>         0.0995
     15 C11         5.4753   -2.7571    0.7884 C.3       1 <0>        -0.1487
     16 S2          3.9412   -2.3770   -0.0509 S.3       1 <0>        -0.0421
     17 H1         -0.9572    1.9197    0.0260 H         1 <0>         0.1462
     18 H2          1.1722    3.1654    0.0070 H         1 <0>         0.1444
     19 H3          1.1744   -1.7800   -0.0184 H         1 <0>         0.1397
     20 H4         -1.5215   -0.8804   -0.8728 H         1 <0>         0.3943
     21 H5          7.9379   -0.7399    0.1498 H         1 <0>         0.4134
     22 H6          6.5753   -2.6638   -1.0150 H         1 <0>         0.0823
     23 H7          7.5548   -2.9058    0.4362 H         1 <0>         0.1059
     24 H8          5.5119   -3.8303    0.9754 H         1 <0>         0.1421
     25 H9          5.4830   -2.2405    1.7481 H         1 <0>         0.0989
@<TRIPOS>BOND
     1    1    6 ar
     2    1    2 ar
     3    1   17 1
     4    2    3 ar
     5    2   18 1
     6    3   10 1
     7    3    4 ar
     8    4    5 ar
     9    4    8 1
    10    5    6 ar
    11    5   19 1
    12    6    7 1
    13    7   20 1
    14    8   16 1
    15    8    9 2
    16    9   10 1
    17    9   11 1
    18   11   12 2
    19   11   13 am
    20   13   14 1
    21   13   21 1
    22   14   15 1
    23   14   22 1
    24   14   23 1
    25   15   16 1
    26   15   24 1
    27   15   25 1
@<TRIPOS>MOLECULE
ZINC01554668
   47    52     0     0     0
SMALL
USER_CHARGES

@<TRIPOS>ATOM
      1 C1         -0.2832    1.4683    0.0475 C.3       1 <0>         0.0335
      2 N1         -0.3334    0.0041    0.0468 N.pl3     1 <0>        -0.5008
      3 C2         -0.5714   -0.7779   -1.0665 C.ar      1 <0>         0.1449
      4 C3         -0.8140   -0.4635   -2.4006 C.ar      1 <0>        -0.1504
      5 C4         -1.0221   -1.4689   -3.3192 C.ar      1 <0>        -0.0730
      6 C5         -0.9931   -2.7997   -2.9282 C.ar      1 <0>        -0.1553
      7 C6         -0.7551   -3.1321   -1.6130 C.ar      1 <0>        -0.0437
      8 C7         -0.5418   -2.1252   -0.6721 C.ar      1 <0>        -0.1078
      9 C8         -0.2671   -2.1312    0.7736 C.ar      1 <0>        -0.0040
     10 C9         -0.1431   -0.7961    1.1613 C.ar      1 <0>         0.1149
     11 C10         0.1286   -0.4838    2.5010 C.ar      1 <0>         0.1604
     12 C11         0.2766   -1.5171    3.4386 C.ar      1 <0>        -0.0610
     13 C12         0.5516   -0.8661    4.7341 C.ar      1 <0>        -0.0929
     14 C13         0.7864   -1.3502    6.0188 C.ar      1 <0>        -0.0597
     15 C14         1.0184   -0.4670    7.0511 C.ar      1 <0>        -0.1431
     16 C15         1.0181    0.8993    6.8147 C.ar      1 <0>        -0.0807
     17 C16         0.7867    1.3916    5.5485 C.ar      1 <0>        -0.1379
     18 C17         0.5514    0.5155    4.4929 C.ar      1 <0>         0.1380
     19 N2          0.2962    0.7228    3.1497 N.pl3     1 <0>        -0.4936
     20 C18         0.2152    2.0366    2.5066 C.3       1 <0>         0.0651
     21 C19        -1.2333    2.5288    2.5328 C.3       1 <0>        -0.0543
     22 C20        -1.3368    3.7895    1.7800 C.1       1 <0>         0.1939
     23 N3         -1.4166    4.7625    1.1991 N.1       1 <0>        -0.4012
     24 C21         0.1556   -2.8451    3.0480 C.ar      1 <0>        -0.0459
     25 C22        -0.1218   -3.1674    1.7235 C.ar      1 <0>        -0.1335
     26 C23        -0.1930   -4.6318    1.6069 C.2       1 <0>         0.5670
     27 O1         -0.4091   -5.2361    0.5739 O.2       1 <0>        -0.5231
     28 N4          0.0149   -5.2077    2.8033 N.am      1 <0>        -0.7241
     29 C24         0.2569   -4.1527    3.7942 C.3       1 <0>         0.1441
     30 H1          0.7562    1.7962    0.0589 H         1 <0>         0.0786
     31 H2         -0.7745    1.8491   -0.8479 H         1 <0>         0.0907
     32 H3         -0.7940    1.8489    0.9320 H         1 <0>         0.1054
     33 H4         -0.8395    0.5692   -2.7157 H         1 <0>         0.1218
     34 H5         -1.2099   -1.2189   -4.3529 H         1 <0>         0.1296
     35 H6         -1.1581   -3.5783   -3.6582 H         1 <0>         0.1286
     36 H7         -0.7338   -4.1689   -1.3114 H         1 <0>         0.1459
     37 H8          0.7864   -2.4139    6.2055 H         1 <0>         0.1280
     38 H9          1.2007   -0.8404    8.0480 H         1 <0>         0.1295
     39 H10         1.2005    1.5837    7.6301 H         1 <0>         0.1308
     40 H11         0.7883    2.4576    5.3751 H         1 <0>         0.1245
     41 H12         0.8488    2.7432    3.0426 H         1 <0>         0.1062
     42 H13         0.5532    1.9568    1.4734 H         1 <0>         0.1310
     43 H14        -1.8800    1.7792    2.0768 H         1 <0>         0.1201
     44 H15        -1.5418    2.6955    3.5649 H         1 <0>         0.1260
     45 H16         0.0160   -6.1615    2.9800 H         1 <0>         0.4270
     46 H17         1.2496   -4.2588    4.2316 H         1 <0>         0.1007
     47 H18        -0.5038   -4.1996    4.5734 H         1 <0>         0.0998
@<TRIPOS>BOND
     1    1    2 1
     2    1   30 1
     3    1   31 1
     4    1   32 1
     5    2   10 1
     6    2    3 1
     7    3    8 ar
     8    3    4 ar
     9    4    5 ar
    10    4   33 1
    11    5    6 ar
    12    5   34 1
    13    6    7 ar
    14    6   35 1
    15    7    8 ar
    16    7   36 1
    17    8    9 1
    18    9   25 ar
    19    9   10 ar
    20   10   11 ar
    21   11   19 1
    22   11   12 ar
    23   12   13 1
    24   12   24 ar
    25   13   18 ar
    26   13   14 ar
    27   14   15 ar
    28   14   37 1
    29   15   16 ar
    30   15   38 1
    31   16   17 ar
    32   16   39 1
    33   17   18 ar
    34   17   40 1
    35   18   19 1
    36   19   20 1
    37   20   21 1
    38   20   41 1
    39   20   42 1
    40   21   22 1
    41   21   43 1
    42   21   44 1
    43   22   23 3
    44   24   29 1
    45   24   25 ar
    46   25   26 1
    47   26   27 2
    48   26   28 am
    49   28   29 1
    50   28   45 1
    51   29   46 1
    52   29   47 1
