@<TRIPOS>MOLECULE
ZINC01530357
   24    24     0     0     0
SMALL
USER_CHARGES

@<TRIPOS>ATOM
      1 C1         -0.0187    1.5258    0.0104 C.3       1 <0>         0.1264
      2 C2          1.4167    2.0553   -0.0004 C.3       1 <0>         0.0892
      3 C3          2.1328    1.5619   -1.2592 C.3       1 <0>         0.0885
      4 C4          2.1536    0.0321   -1.2676 C.3       1 <0>         0.0920
      5 C5          0.7182   -0.4975   -1.2568 C.3       1 <0>         0.0403
      6 C6          0.0021   -0.0041    0.0020 C.3       1 <0>         0.0910
      7 O1          0.6932   -0.4774    1.1597 O.3       1 <0>        -0.5379
      8 O2          0.7376   -1.9263   -1.2646 O.3       1 <0>        -0.5649
      9 O3          2.8447   -0.4413   -0.1099 O.3       1 <0>        -0.5346
     10 O4          3.4735    2.0566   -1.2694 O.3       1 <0>        -0.5545
     11 O5          1.3973    3.4842    0.0074 O.3       1 <0>        -0.5685
     12 O6         -0.7098    1.9991   -1.1473 O.3       1 <0>        -0.5623
     13 H1         -0.5289    1.8773    0.9072 H         1 <0>         0.0810
     14 H2          1.9439    1.6943    0.8826 H         1 <0>         0.0914
     15 H3          1.6057    1.9230   -2.1423 H         1 <0>         0.0813
     16 H4          2.6638   -0.3194   -2.1644 H         1 <0>         0.0636
     17 H5          0.1910   -0.1364   -2.1398 H         1 <0>         0.0824
     18 H6         -1.0205   -0.3814    0.0098 H         1 <0>         0.0717
     19 H7          0.7451   -1.4412    1.2202 H         1 <0>         0.3854
     20 H8         -0.1404   -2.3316   -1.2584 H         1 <0>         0.3865
     21 H9          2.8966   -1.4050   -0.0495 H         1 <0>         0.3793
     22 H10         3.9880    1.7824   -2.0409 H         1 <0>         0.3836
     23 H11         2.2753    3.8895    0.0012 H         1 <0>         0.3925
     24 H12        -0.7617    2.9629   -1.2077 H         1 <0>         0.3967
@<TRIPOS>BOND
     1    1    6 1
     2    1    2 1
     3    1   12 1
     4    1   13 1
     5    2    3 1
     6    2   11 1
     7    2   14 1
     8    3    4 1
     9    3   10 1
    10    3   15 1
    11    4    5 1
    12    4    9 1
    13    4   16 1
    14    5    6 1
    15    5    8 1
    16    5   17 1
    17    6    7 1
    18    6   18 1
    19    7   19 1
    20    8   20 1
    21    9   21 1
    22   10   22 1
    23   11   23 1
    24   12   24 1
@<TRIPOS>MOLECULE
ZINC00153920
   23    24     0     0     0
SMALL
USER_CHARGES
2-(7-hydroxy-2-oxo-chromen-4-yl)acetic acid
@<TRIPOS>ATOM
      1 C1         -1.2355    2.0276    0.0189 C.ar      1 <0>        -0.1677
      2 C2         -1.2707    3.3921    0.0320 C.ar      1 <0>        -0.0261
      3 C3         -0.0747    4.1185    0.0240 C.ar      1 <0>        -0.1398
      4 C4         -0.0821    5.5829    0.0324 C.2       1 <0>         0.0852
      5 C5          1.1119    6.2307    0.0249 C.2       1 <0>        -0.2755
      6 C6          2.3116    5.4900    0.0095 C.2       1 <0>         0.5186
      7 O1          3.3752    6.0835    0.0029 O.2       1 <0>        -0.4816
      8 O2          2.3117    4.1478    0.0022 O.3       1 <0>        -0.2758
      9 C7          1.1600    3.4429    0.0090 C.ar      1 <0>         0.1605
     10 C8          1.1774    2.0566    0.0019 C.ar      1 <0>        -0.1677
     11 C9         -0.0163    1.3533    0.0095 C.ar      1 <0>         0.1530
     12 O3          0.0021   -0.0041    0.0020 O.3       1 <0>        -0.4943
     13 C10        -1.3790    6.3503    0.0484 C.3       1 <0>        -0.1458
     14 C11        -1.8613    6.4919    1.4691 C.2       1 <0>         0.4704
     15 O4         -1.2180    6.0183    2.3756 O.co2     1 <0>        -0.6254
     16 H1         -2.1586    1.4671    0.0203 H         1 <0>         0.1390
     17 H2         -2.2186    3.9094    0.0431 H         1 <0>         0.1451
     18 H3          1.1422    7.3103    0.0312 H         1 <0>         0.1589
     19 H4          2.1184    1.5267   -0.0093 H         1 <0>         0.1460
     20 H5          0.0158   -0.4021    0.8832 H         1 <0>         0.3962
     21 H6         -1.2213    7.3392   -0.3821 H         1 <0>         0.0939
     22 H7         -2.1257    5.8140   -0.5371 H         1 <0>         0.0908
     23 O5         -3.0057    7.1442    1.7274 O.co2     1 <0>        -0.7578
@<TRIPOS>BOND
     1    1   11 ar
     2    1    2 ar
     3    1   16 1
     4    2    3 ar
     5    2   17 1
     6    3    9 ar
     7    3    4 1
     8    4    5 2
     9    4   13 1
    10    5    6 1
    11    5   18 1
    12    6    7 2
    13    6    8 1
    14    8    9 1
    15    9   10 ar
    16   10   11 ar
    17   10   19 1
    18   11   12 1
    19   12   20 1
    20   13   14 1
    21   13   21 1
    22   13   22 1
    23   14   15 2
    24   14   23 1
@<TRIPOS>MOLECULE
ZINC18061856
   22    22     0     0     0
SMALL
USER_CHARGES

@<TRIPOS>ATOM
      1 C1         -0.0127    1.0858    0.0080 C.3       1 <0>         0.1288
      2 H1          0.0021   -0.0041    0.0020 H         1 <0>         0.0889
      3 C2         -0.7523    1.5937   -1.2342 C.3       1 <0>         0.0361
      4 H2         -1.7416    1.1387   -1.2828 H         1 <0>         0.0902
      5 C3          0.0454    1.2077   -2.4601 C.2       1 <0>         0.3098
      6 O1         -0.4783    0.6328   -3.3839 O.2       1 <0>        -0.4190
      7 C4          1.5158    1.5609   -2.4995 C.3       1 <0>         0.0361
      8 H3          1.9837    1.0847   -3.3611 H         1 <0>         0.0891
      9 C5          2.1731    1.0541   -1.2114 C.3       1 <0>         0.0823
     10 H4          3.2116    1.3836   -1.1793 H         1 <0>         0.0897
     11 C6          1.4222    1.6155   -0.0028 C.3       1 <0>         0.1257
     12 O2          2.0859    1.2138    1.1972 O.3       1 <0>        -0.5432
     13 O3          2.1249   -0.3737   -1.1816 O.3       1 <0>        -0.5444
     14 O4          1.6665    2.9787   -2.5940 O.3       1 <0>        -0.5273
     15 O5         -0.8807    3.0154   -1.1685 O.3       1 <0>        -0.5205
     16 O6         -0.6821    1.5469    1.1833 O.3       1 <0>        -0.5356
     17 H5          1.4062    2.7039   -0.0598 H         1 <0>         0.0987
     18 H6          3.0026    1.5152    1.2594 H         1 <0>         0.3801
     19 H7          2.5814   -0.7982   -1.9209 H         1 <0>         0.3843
     20 H8          1.2604    3.3658   -3.3816 H         1 <0>         0.3889
     21 H9         -1.3404    3.4042   -1.9252 H         1 <0>         0.3815
     22 H10        -1.5991    1.2488    1.2562 H         1 <0>         0.3797
@<TRIPOS>BOND
     1    1    2 1
     2    1   11 1
     3    1    3 1
     4    1   16 1
     5    3    4 1
     6    3    5 1
     7    3   15 1
     8    5    6 2
     9    5    7 1
    10    7    8 1
    11    7    9 1
    12    7   14 1
    13    9   10 1
    14    9   11 1
    15    9   13 1
    16   11   12 1
    17   11   17 1
    18   12   18 1
    19   13   19 1
    20   14   20 1
    21   15   21 1
    22   16   22 1
@<TRIPOS>MOLECULE
ZINC00068750
   31    33     0     0     0
SMALL
USER_CHARGES
4-[(5-oxo-2-phenyl-oxazol-4-ylidene)methyl]benzonitrile
@<TRIPOS>ATOM
      1 C1         -3.4012   -2.4618   -0.7133 C.ar      1 <0>        -0.0856
      2 C2         -2.1527   -2.9921   -0.9870 C.ar      1 <0>        -0.1247
      3 C3         -1.0316   -2.1907   -0.9290 C.ar      1 <0>        -0.0734
      4 C4         -1.1588   -0.8408   -0.5934 C.ar      1 <0>        -0.0511
      5 C5         -2.4215   -0.3135   -0.3131 C.ar      1 <0>        -0.0564
      6 C6         -3.5345   -1.1254   -0.3797 C.ar      1 <0>        -0.1258
      7 C7          0.0366    0.0233   -0.5293 C.2       1 <0>         0.3492
      8 N1          0.0091    1.2918   -0.2248 N.2       1 <0>        -0.4730
      9 C8          1.2790    1.7864   -0.2573 C.2       1 <0>        -0.0841
     10 C9          1.6782    3.0792    0.0022 C.2       1 <0>         0.0704
     11 C10         3.1050    3.3999    0.1004 C.ar      1 <0>        -0.0765
     12 C11         3.9883    2.4936    0.7042 C.ar      1 <0>        -0.0565
     13 C12         5.3180    2.7917    0.7896 C.ar      1 <0>        -0.0743
     14 C13         5.7973    4.0053    0.2863 C.ar      1 <0>        -0.0013
     15 C14         4.9170    4.9131   -0.3111 C.ar      1 <0>        -0.0797
     16 C15         3.5876    4.6160   -0.4040 C.ar      1 <0>        -0.0803
     17 C16         7.1913    4.3186    0.3823 C.1       1 <0>         0.2469
     18 N2          8.2971    4.5672    0.4585 N.1       1 <0>        -0.4036
     19 C17         2.1364    0.6427   -0.6302 C.2       1 <0>         0.4761
     20 O1          3.3441    0.6405   -0.7733 O.2       1 <0>        -0.4057
     21 O2          1.2908   -0.4000   -0.7780 O.3       1 <0>        -0.2894
     22 H1         -4.2756   -3.0940   -0.7598 H         1 <0>         0.1318
     23 H2         -2.0558   -4.0360   -1.2464 H         1 <0>         0.1344
     24 H3         -0.0577   -2.6061   -1.1422 H         1 <0>         0.1358
     25 H4         -2.5265    0.7283   -0.0483 H         1 <0>         0.1424
     26 H5         -4.5119   -0.7182   -0.1669 H         1 <0>         0.1357
     27 H6          0.9398    3.8564    0.1332 H         1 <0>         0.1636
     28 H7          3.6179    1.5583    1.0971 H         1 <0>         0.1328
     29 H8          5.9993    2.0919    1.2506 H         1 <0>         0.1387
     30 H9          5.2891    5.8496   -0.6996 H         1 <0>         0.1405
     31 H10         2.9083    5.3169   -0.8661 H         1 <0>         0.1431
@<TRIPOS>BOND
     1    1    6 ar
     2    1    2 ar
     3    1   22 1
     4    2    3 ar
     5    2   23 1
     6    3    4 ar
     7    3   24 1
     8    4    5 ar
     9    4    7 1
    10    5    6 ar
    11    5   25 1
    12    6   26 1
    13    7   21 1
    14    7    8 2
    15    8    9 1
    16    9   10 2
    17    9   19 1
    18   10   11 1
    19   10   27 1
    20   11   16 ar
    21   11   12 ar
    22   12   13 ar
    23   12   28 1
    24   13   14 ar
    25   13   29 1
    26   14   15 ar
    27   14   17 1
    28   15   16 ar
    29   15   30 1
    30   16   31 1
    31   17   18 3
    32   19   20 2
    33   19   21 1
@<TRIPOS>MOLECULE
ZINC01038604
   50    53     0     0     0
SMALL
USER_CHARGES

@<TRIPOS>ATOM
      1 C1         -0.0187    1.5258    0.0104 C.3       1 <0>        -0.1398
      2 C2          0.0021   -0.0041    0.0020 C.3       1 <0>         0.1115
      3 C3         -1.4346   -0.5405    0.0398 C.3       1 <0>        -0.1480
      4 C4         -1.3815   -2.0653   -0.0825 C.3       1 <0>        -0.0799
      5 C5         -0.3618   -2.6170    0.8817 C.ar      1 <0>        -0.1631
      6 C6         -0.4141   -3.9605    1.2054 C.ar      1 <0>        -0.0468
      7 C7          0.5130   -4.5049    2.0893 C.ar      1 <0>        -0.0671
      8 C8          1.4967   -3.6904    2.6474 C.ar      1 <0>        -0.0532
      9 C9          1.5441   -2.3528    2.3229 C.ar      1 <0>        -0.1518
     10 C10         0.6141   -1.8087    1.4405 C.ar      1 <0>         0.1554
     11 O1          0.6920   -0.4821    1.1574 O.3       1 <0>        -0.3058
     12 C11         0.4542   -5.9467    2.4363 C.2       1 <0>         0.1606
     13 C12         1.3214   -6.6233    3.3161 C.2       1 <0>        -0.2207
     14 C13         0.9372   -7.9176    3.3623 C.2       1 <0>         0.0711
     15 N1         -0.1298   -8.0650    2.5478 N.pl3     1 <0>        -0.7378
     16 N2         -0.4212   -6.8177    1.9808 N.2       1 <0>        -0.2491
     17 S1         -0.9546   -9.4742    2.2722 S.o2      1 <0>         2.6981
     18 O2         -1.5857   -9.3347    1.0068 O.2       1 <0>        -0.9143
     19 O3         -0.0544  -10.5349    2.5618 O.2       1 <0>        -0.9267
     20 C14        -2.2434   -9.5663    3.4703 C.ar      1 <0>        -0.7158
     21 C15        -2.0099  -10.1747    4.6897 C.ar      1 <0>         0.0203
     22 C16        -3.0188  -10.2486    5.6305 C.ar      1 <0>        -0.1703
     23 C17        -4.2669   -9.7113    5.3511 C.ar      1 <0>         0.1924
     24 C18        -4.4985   -9.1009    4.1270 C.ar      1 <0>        -0.2289
     25 C19        -3.4848   -9.0250    3.1915 C.ar      1 <0>         0.0326
     26 O4         -5.2612   -9.7831    6.2748 O.3       1 <0>        -0.3076
     27 C20        -6.5202   -9.2087    5.9186 C.3       1 <0>         0.0204
     28 C21         0.7060   -0.5028   -1.2615 C.3       1 <0>        -0.1773
     29 H1          1.0039    1.9031    0.0027 H         1 <0>         0.0688
     30 H2         -0.5459    1.8868   -0.8726 H         1 <0>         0.0792
     31 H3         -0.5289    1.8773    0.9072 H         1 <0>         0.0670
     32 H4         -1.9055   -0.2637    0.9831 H         1 <0>         0.0779
     33 H5         -2.0040   -0.1248   -0.7915 H         1 <0>         0.0863
     34 H6         -2.3619   -2.4820    0.1486 H         1 <0>         0.0835
     35 H7         -1.1030   -2.3380   -1.1004 H         1 <0>         0.0821
     36 H8         -1.1772   -4.5894    0.7711 H         1 <0>         0.1342
     37 H9          2.2198   -4.1071    3.3329 H         1 <0>         0.1366
     38 H10         2.3064   -1.7219    2.7558 H         1 <0>         0.1369
     39 H11         2.1471   -6.1853    3.8572 H         1 <0>         0.1632
     40 H12         1.4018   -8.6974    3.9474 H         1 <0>         0.1978
     41 H13        -1.0381  -10.5929    4.9068 H         1 <0>         0.1501
     42 H14        -2.8361  -10.7246    6.5826 H         1 <0>         0.1464
     43 H15        -5.4693   -8.6819    3.9070 H         1 <0>         0.1430
     44 H16        -3.6632   -8.5460    2.2401 H         1 <0>         0.1477
     45 H17        -6.3894   -8.1466    5.7111 H         1 <0>         0.0622
     46 H18        -6.9089   -9.7072    5.0306 H         1 <0>         0.0627
     47 H19        -7.2228   -9.3340    6.7425 H         1 <0>         0.1083
     48 H20         1.7292   -0.1273   -1.2797 H         1 <0>         0.0675
     49 H21         0.7189   -1.5928   -1.2641 H         1 <0>         0.0661
     50 H22         0.1716   -0.1437   -2.1410 H         1 <0>         0.0741
@<TRIPOS>BOND
     1    1    2 1
     2    1   29 1
     3    1   30 1
     4    1   31 1
     5    2   11 1
     6    2    3 1
     7    2   28 1
     8    3    4 1
     9    3   32 1
    10    3   33 1
    11    4    5 1
    12    4   34 1
    13    4   35 1
    14    5   10 ar
    15    5    6 ar
    16    6    7 ar
    17    6   36 1
    18    7    8 ar
    19    7   12 1
    20    8    9 ar
    21    8   37 1
    22    9   10 ar
    23    9   38 1
    24   10   11 1
    25   12   16 2
    26   12   13 1
    27   13   14 2
    28   13   39 1
    29   14   15 1
    30   14   40 1
    31   15   16 1
    32   15   17 1
    33   17   18 2
    34   17   19 2
    35   17   20 1
    36   20   25 ar
    37   20   21 ar
    38   21   22 ar
    39   21   41 1
    40   22   23 ar
    41   22   42 1
    42   23   24 ar
    43   23   26 1
    44   24   25 ar
    45   24   43 1
    46   25   44 1
    47   26   27 1
    48   27   45 1
    49   27   46 1
    50   27   47 1
    51   28   48 1
    52   28   49 1
    53   28   50 1
@<TRIPOS>MOLECULE
ZINC01040521
   35    37     0     0     0
SMALL
USER_CHARGES
2-chloro-N-[(1,1-dioxobenzothiophen-6-yl)carbamoyl]benzamide
@<TRIPOS>ATOM
      1 C1         -1.0102   -6.2582    0.4983 C.ar      1 <0>        -0.1217
      2 C2         -2.1953   -6.9648    0.6102 C.ar      1 <0>        -0.0726
      3 C3         -3.4067   -6.2982    0.6264 C.ar      1 <0>        -0.1177
      4 C4         -3.4416   -4.9206    0.5304 C.ar      1 <0>         0.0179
      5 C5         -2.2487   -4.2017    0.4172 C.ar      1 <0>        -0.1375
      6 C6         -1.0298   -4.8832    0.3963 C.ar      1 <0>        -0.0733
      7 C7         -2.2770   -2.7287    0.3142 C.2       1 <0>         0.5596
      8 O1         -3.3395   -2.1389    0.3276 O.2       1 <0>        -0.4325
      9 N1         -1.1246   -2.0385    0.2051 N.am      1 <0>        -0.6837
     10 C8         -1.1504   -0.6943    0.1110 C.2       1 <0>         0.6998
     11 O2         -2.2131   -0.1044    0.1245 O.2       1 <0>        -0.5040
     12 N2          0.0021   -0.0041    0.0020 N.am      1 <0>        -0.6764
     13 C9         -0.0176    1.3939    0.0024 C.ar      1 <0>         0.1706
     14 C10        -1.0662    2.0834   -0.5958 C.ar      1 <0>        -0.0832
     15 C11        -1.0999    3.4559   -0.5969 C.ar      1 <0>        -0.0526
     16 C12        -0.0633    4.2024   -0.0003 C.ar      1 <0>        -0.0832
     17 C13         0.9827    3.4776    0.5894 C.ar      1 <0>        -0.5974
     18 C14         1.0166    2.1141    0.5973 C.ar      1 <0>        -0.0179
     19 S1          2.0610    4.7415    1.2139 S.o2      1 <0>         2.5395
     20 O3          2.0235    4.6848    2.6333 O.2       1 <0>        -0.9197
     21 O4          3.2629    4.7029    0.4568 O.2       1 <0>        -0.9202
     22 C15         1.1358    6.1751    0.6989 C.2       1 <0>        -0.6436
     23 C16         0.0783    5.6610    0.0924 C.2       1 <0>        -0.0156
     24 Cl1        -4.9631   -4.0849    0.5497 Cl        1 <0>        -0.0232
     25 H1         -0.0679   -6.7856    0.4864 H         1 <0>         0.1403
     26 H2         -2.1737   -8.0420    0.6849 H         1 <0>         0.1417
     27 H3         -4.3275   -6.8558    0.7140 H         1 <0>         0.1450
     28 H4         -0.1044   -4.3342    0.3042 H         1 <0>         0.1349
     29 H5         -0.2765   -2.5092    0.1944 H         1 <0>         0.4108
     30 H6          0.8452   -0.4772   -0.0767 H         1 <0>         0.4157
     31 H7         -1.8683    1.5312   -1.0628 H         1 <0>         0.1569
     32 H8         -1.9274    3.9694   -1.0638 H         1 <0>         0.1437
     33 H9          1.8412    1.5948    1.0630 H         1 <0>         0.1461
     34 H10         1.3802    7.2165    0.8473 H         1 <0>         0.2025
     35 H11        -0.6750    6.3090   -0.3308 H         1 <0>         0.1511
@<TRIPOS>BOND
     1    1    6 ar
     2    1    2 ar
     3    1   25 1
     4    2    3 ar
     5    2   26 1
     6    3    4 ar
     7    3   27 1
     8    4    5 ar
     9    4   24 1
    10    5    6 ar
    11    5    7 1
    12    6   28 1
    13    7    8 2
    14    7    9 am
    15    9   10 am
    16    9   29 1
    17   10   11 2
    18   10   12 am
    19   12   13 1
    20   12   30 1
    21   13   18 ar
    22   13   14 ar
    23   14   15 ar
    24   14   31 1
    25   15   16 ar
    26   15   32 1
    27   16   23 1
    28   16   17 ar
    29   17   18 ar
    30   17   19 1
    31   18   33 1
    32   19   20 2
    33   19   21 2
    34   19   22 1
    35   22   23 2
    36   22   34 1
    37   23   35 1
@<TRIPOS>MOLECULE
ZINC00114547
   36    39     0     0     0
SMALL
USER_CHARGES
N-benzothiazol-2-yl-5-methoxy-1H-indole-2-carboxamide
@<TRIPOS>ATOM
      1 C1          4.7628    1.3463   -0.0360 C.3       1 <0>         0.0266
      2 O1          3.5596    2.1171   -0.0204 O.3       1 <0>        -0.3167
      3 C2          2.3862    1.4299   -0.0134 C.ar      1 <0>         0.0997
      4 C3          2.3991    0.0362   -0.0215 C.ar      1 <0>        -0.1551
      5 C4          1.2214   -0.6754   -0.0136 C.ar      1 <0>        -0.0947
      6 C5          0.0021   -0.0041    0.0020 C.ar      1 <0>         0.0948
      7 C6         -0.0170    1.4039    0.0098 C.ar      1 <0>        -0.0852
      8 C7          1.1905    2.1154    0.0021 C.ar      1 <0>        -0.0979
      9 C8         -1.3763    1.7992    0.0306 C.2       1 <0>        -0.0825
     10 C9         -2.1357    0.6718    0.0268 C.2       1 <0>         0.0138
     11 N1         -1.3063   -0.4327    0.0127 N.pl3     1 <0>        -0.5804
     12 H1         -1.5977   -1.3579    0.0109 H         1 <0>         0.4187
     13 C10        -3.6049    0.6340    0.0411 C.2       1 <0>         0.5916
     14 O2         -4.2399    1.6715    0.0526 O.2       1 <0>        -0.4721
     15 N2         -4.2485   -0.5502    0.0417 N.am      1 <0>        -0.6104
     16 C11        -5.6320   -0.5858    0.0552 C.2       1 <0>         0.3533
     17 N3         -6.4289   -1.6292    0.0579 N.2       1 <0>        -0.5412
     18 C12        -7.7745   -1.5147    0.0718 C.ar      1 <0>         0.0982
     19 C13        -8.7389   -2.5491    0.0767 C.ar      1 <0>        -0.0679
     20 C14       -10.0778   -2.2579    0.0922 C.ar      1 <0>        -0.1069
     21 C15       -10.5349   -0.9479    0.1032 C.ar      1 <0>        -0.1006
     22 C16        -9.6197    0.0887    0.0983 C.ar      1 <0>        -0.0598
     23 C17        -8.2766   -0.1933    0.0833 C.ar      1 <0>        -0.1795
     24 S1         -6.7882    0.7769    0.0812 S.3       1 <0>         0.1091
     25 H2          4.7833    0.7227   -0.9298 H         1 <0>         0.0553
     26 H3          5.6231    2.0156   -0.0402 H         1 <0>         0.1013
     27 H4          4.7999    0.7126    0.8500 H         1 <0>         0.0553
     28 H5          3.3422   -0.4901   -0.0336 H         1 <0>         0.1373
     29 H6          1.2431   -1.7552   -0.0193 H         1 <0>         0.1302
     30 H7          1.1841    3.1954    0.0075 H         1 <0>         0.1383
     31 H8         -1.7441    2.8146    0.0415 H         1 <0>         0.1641
     32 H9         -3.7422   -1.3774    0.0326 H         1 <0>         0.4228
     33 H10        -8.4165   -3.5798    0.0684 H         1 <0>         0.1321
     34 H11       -10.7936   -3.0666    0.0956 H         1 <0>         0.1348
     35 H12       -11.5946   -0.7400    0.1157 H         1 <0>         0.1392
     36 H13        -9.9597    1.1138    0.1064 H         1 <0>         0.1345
@<TRIPOS>BOND
     1    1    2 1
     2    1   25 1
     3    1   26 1
     4    1   27 1
     5    2    3 1
     6    3    8 ar
     7    3    4 ar
     8    4    5 ar
     9    4   28 1
    10    5    6 ar
    11    5   29 1
    12    6   11 1
    13    6    7 ar
    14    7    8 ar
    15    7    9 1
    16    8   30 1
    17    9   10 2
    18    9   31 1
    19   10   11 1
    20   10   13 1
    21   11   12 1
    22   13   14 2
    23   13   15 am
    24   15   16 1
    25   15   32 1
    26   16   24 1
    27   16   17 2
    28   17   18 1
    29   18   23 ar
    30   18   19 ar
    31   19   20 ar
    32   19   33 1
    33   20   21 ar
    34   20   34 1
    35   21   22 ar
    36   21   35 1
    37   22   23 ar
    38   22   36 1
    39   23   24 1
@<TRIPOS>MOLECULE
ZINC00108635
   25    27     0     0     0
SMALL
USER_CHARGES
2-[5-(5-nitro-3-thienyl)-1,2,4-oxadiazol-3-yl]pyridine
@<TRIPOS>ATOM
      1 C1         -6.8566   -2.5497    0.0557 C.ar      1 <0>        -0.0727
      2 C2         -7.4939   -1.3175    0.0692 C.ar      1 <0>        -0.1520
      3 C3         -6.7344   -0.1615    0.0682 C.ar      1 <0>         0.1059
      4 N1         -5.4185   -0.2170    0.0601 N.ar      1 <0>        -0.4475
      5 C4         -4.7714   -1.3743    0.0415 C.ar      1 <0>         0.1885
      6 C5         -5.4722   -2.5774    0.0417 C.ar      1 <0>        -0.1313
      7 C6         -3.2865   -1.3873    0.0265 C.2       1 <0>         0.2279
      8 N2         -2.4783   -0.3070    0.0246 N.2       1 <0>        -0.4351
      9 C7         -1.2470   -0.7875    0.0102 C.2       1 <0>         0.2382
     10 O1         -1.3524   -2.1260   -0.0014 O.3       1 <0>         0.0991
     11 N3         -2.5214   -2.4482    0.0135 N.2       1 <0>        -0.3588
     12 C8          0.0021   -0.0041    0.0020 C.2       1 <0>        -0.0896
     13 C9          1.2900   -0.6488   -0.0137 C.2       1 <0>        -0.0195
     14 C10         2.3750    0.1528   -0.0198 C.2       1 <0>        -0.1728
     15 S1          1.6629    1.7856   -0.0042 S.3       1 <0>         0.3069
     16 C11        -0.0165    1.3636    0.0095 C.2       1 <0>        -0.0994
     17 N4          3.8050   -0.2300   -0.0351 N.pl3     1 <0>         0.0696
     18 O2          4.1204   -1.4064   -0.0440 O.2       1 <0>        -0.1292
     19 O3          4.6660    0.6314   -0.0387 O.3       1 <0>        -0.1343
     20 H1         -7.4273   -3.4666    0.0559 H         1 <0>         0.1466
     21 H2         -8.5724   -1.2614    0.0800 H         1 <0>         0.1455
     22 H3         -7.2270    0.7996    0.0786 H         1 <0>         0.1680
     23 H4         -4.9435   -3.5191    0.0306 H         1 <0>         0.1446
     24 H5          1.3828   -1.7248   -0.0208 H         1 <0>         0.1779
     25 H6         -0.8726    2.0219    0.0174 H         1 <0>         0.2235
@<TRIPOS>BOND
     1    1    6 ar
     2    1    2 ar
     3    1   20 1
     4    2    3 ar
     5    2   21 1
     6    3    4 ar
     7    3   22 1
     8    4    5 ar
     9    5    6 ar
    10    5    7 1
    11    6   23 1
    12    7   11 2
    13    7    8 1
    14    8    9 2
    15    9   10 1
    16    9   12 1
    17   10   11 1
    18   12   16 2
    19   12   13 1
    20   13   14 2
    21   13   24 1
    22   14   15 1
    23   14   17 1
    24   15   16 1
    25   16   25 1
    26   17   18 2
    27   17   19 1
@<TRIPOS>MOLECULE
ZINC00134132
   36    39     0     0     0
SMALL
USER_CHARGES

@<TRIPOS>ATOM
      1 C1         -0.0173    1.4248    0.0099 C.3       1 <0>         0.0232
      2 O1          0.0021   -0.0041    0.0020 O.3       1 <0>        -0.3116
      3 C2          0.6056   -0.6069   -1.0553 C.ar      1 <0>         0.1503
      4 C3          1.1724    0.1646   -2.0615 C.ar      1 <0>        -0.2060
      5 C4          1.7856   -0.4431   -3.1359 C.ar      1 <0>        -0.0500
      6 C5          1.8369   -1.8364   -3.2117 C.ar      1 <0>        -0.0680
      7 C6          1.2662   -2.6084   -2.1978 C.ar      1 <0>        -0.0426
      8 C7          0.6591   -1.9930   -1.1244 C.ar      1 <0>        -0.1488
      9 C8          2.4929   -2.4921   -4.3620 C.2       1 <0>        -0.0333
     10 C9          2.6349   -3.8196   -4.6098 C.2       1 <0>        -0.1366
     11 C10         3.2972   -4.2491   -5.7715 C.ar      1 <0>         0.0093
     12 C11         3.7785   -3.2113   -6.6168 C.ar      1 <0>         0.0821
     13 S1          3.2855   -1.7329   -5.7693 S.3       1 <0>         0.1559
     14 N1          4.4139   -3.4762   -7.7322 N.ar      1 <0>        -0.4200
     15 C12         4.6097   -4.7480   -8.0752 C.ar      1 <0>         0.3125
     16 N2          4.1634   -5.7267   -7.2920 N.ar      1 <0>        -0.2548
     17 N3          3.5382   -5.5085   -6.1938 N.ar      1 <0>        -0.1339
     18 C13         5.3255   -5.0738   -9.3315 C.ar      1 <0>        -0.0524
     19 C14         5.7995   -4.0513  -10.1523 C.ar      1 <0>        -0.0670
     20 C15         6.4656   -4.3607  -11.3206 C.ar      1 <0>        -0.1290
     21 C16         6.6631   -5.6824  -11.6781 C.ar      1 <0>        -0.0901
     22 C17         6.1951   -6.7012  -10.8677 C.ar      1 <0>        -0.1279
     23 C18         5.5326   -6.4041   -9.6942 C.ar      1 <0>        -0.0655
     24 H1          1.0053    1.8021    0.0021 H         1 <0>         0.0595
     25 H2         -0.5445    1.7859   -0.8732 H         1 <0>         0.0595
     26 H3         -0.5275    1.7763    0.9067 H         1 <0>         0.1047
     27 H4          1.1324    1.2422   -2.0021 H         1 <0>         0.1381
     28 H5          2.2256    0.1575   -3.9182 H         1 <0>         0.1308
     29 H6          1.3035   -3.6864   -2.2530 H         1 <0>         0.1400
     30 H7          0.2210   -2.5894   -0.3377 H         1 <0>         0.1419
     31 H8          2.2391   -4.5446   -3.9139 H         1 <0>         0.1594
     32 H9          5.6453   -3.0191   -9.8745 H         1 <0>         0.1365
     33 H10         6.8332   -3.5695  -11.9572 H         1 <0>         0.1316
     34 H11         7.1843   -5.9198  -12.5937 H         1 <0>         0.1294
     35 H12         6.3518   -7.7313  -11.1521 H         1 <0>         0.1329
     36 H13         5.1716   -7.2003   -9.0601 H         1 <0>         0.1400
@<TRIPOS>BOND
     1    1    2 1
     2    1   24 1
     3    1   25 1
     4    1   26 1
     5    2    3 1
     6    3    8 ar
     7    3    4 ar
     8    4    5 ar
     9    4   27 1
    10    5    6 ar
    11    5   28 1
    12    6    7 ar
    13    6    9 1
    14    7    8 ar
    15    7   29 1
    16    8   30 1
    17    9   13 1
    18    9   10 2
    19   10   11 1
    20   10   31 1
    21   11   17 ar
    22   11   12 ar
    23   12   13 1
    24   12   14 ar
    25   14   15 ar
    26   15   16 ar
    27   15   18 1
    28   16   17 ar
    29   18   23 ar
    30   18   19 ar
    31   19   20 ar
    32   19   32 1
    33   20   21 ar
    34   20   33 1
    35   21   22 ar
    36   21   34 1
    37   22   23 ar
    38   22   35 1
    39   23   36 1
@<TRIPOS>MOLECULE
ZINC00171580
   38    40     0     0     0
SMALL
USER_CHARGES
7-nitro-N-phenethyl-1H-indole-2-carboxamide
@<TRIPOS>ATOM
      1 C1          1.3369    0.1643    4.7277 C.ar      1 <0>        -0.1192
      2 C2          1.6804    1.3801    4.1666 C.ar      1 <0>        -0.1176
      3 C3          1.0121    1.8378    3.0465 C.ar      1 <0>        -0.1132
      4 C4          0.0000    1.0800    2.4877 C.ar      1 <0>        -0.0861
      5 C5         -0.3473   -0.1331    3.0522 C.ar      1 <0>        -0.1132
      6 C6          0.3245   -0.5933    4.1692 C.ar      1 <0>        -0.1176
      7 C7         -0.7288    1.5792    1.2668 C.3       1 <0>        -0.0928
      8 C8         -0.0127    1.0858    0.0080 C.3       1 <0>         0.1244
      9 N1         -0.7213    1.5711   -1.1789 N.am      1 <0>        -0.7272
     10 C9         -0.2681    1.2584   -2.4090 C.2       1 <0>         0.5850
     11 O1          0.7292    0.5732   -2.5339 O.2       1 <0>        -0.5104
     12 C10        -0.9794    1.7456   -3.6004 C.2       1 <0>         0.0205
     13 C11        -0.6181    1.5030   -4.8875 C.2       1 <0>        -0.0887
     14 C12        -1.5612    2.1426   -5.7278 C.ar      1 <0>        -0.1216
     15 C13        -1.7019    2.2381   -7.1185 C.ar      1 <0>         0.0064
     16 C14        -2.7383    2.9498   -7.6485 C.ar      1 <0>        -0.1564
     17 C15        -3.6584    3.5823   -6.8216 C.ar      1 <0>        -0.0016
     18 C16        -3.5420    3.5028   -5.4521 C.ar      1 <0>        -0.0635
     19 C17        -2.4923    2.7833   -4.8873 C.ar      1 <0>         0.1580
     20 N2         -2.1180    2.5277   -3.5894 N.pl3     1 <0>        -0.5582
     21 H1         -2.5779    2.8445   -2.7962 H         1 <0>         0.4316
     22 N3         -4.5290    4.1817   -4.5826 N.pl3     1 <0>         0.0391
     23 O2         -5.4466    4.8106   -5.0786 O.2       1 <0>        -0.1502
     24 O3         -4.4236    4.1113   -3.3712 O.3       1 <0>        -0.1933
     25 H2          1.8593   -0.1934    5.6027 H         1 <0>         0.1229
     26 H3          2.4712    1.9722    4.6032 H         1 <0>         0.1236
     27 H4          1.2805    2.7877    2.6081 H         1 <0>         0.1224
     28 H5         -1.1410   -0.7231    2.6182 H         1 <0>         0.1224
     29 H6          0.0559   -1.5429    4.6078 H         1 <0>         0.1236
     30 H7         -0.7436    2.6691    1.2728 H         1 <0>         0.0818
     31 H8         -1.7514    1.2020    1.2746 H         1 <0>         0.0818
     32 H9          0.0021   -0.0041    0.0020 H         1 <0>         0.0766
     33 H10         1.0099    1.4631    0.0003 H         1 <0>         0.0766
     34 H11        -1.5165    2.1175   -1.0793 H         1 <0>         0.3989
     35 H12         0.2343    0.9244   -5.2115 H         1 <0>         0.1709
     36 H13        -0.9920    1.7493   -7.7693 H         1 <0>         0.1498
     37 H14        -2.8446    3.0220   -8.7209 H         1 <0>         0.1534
     38 H15        -4.4732    4.1414   -7.2574 H         1 <0>         0.1613
@<TRIPOS>BOND
     1    1    6 ar
     2    1    2 ar
     3    1   25 1
     4    2    3 ar
     5    2   26 1
     6    3    4 ar
     7    3   27 1
     8    4    5 ar
     9    4    7 1
    10    5    6 ar
    11    5   28 1
    12    6   29 1
    13    7    8 1
    14    7   30 1
    15    7   31 1
    16    8    9 1
    17    8   32 1
    18    8   33 1
    19    9   10 am
    20    9   34 1
    21   10   11 2
    22   10   12 1
    23   12   20 1
    24   12   13 2
    25   13   14 1
    26   13   35 1
    27   14   19 ar
    28   14   15 ar
    29   15   16 ar
    30   15   36 1
    31   16   17 ar
    32   16   37 1
    33   17   18 ar
    34   17   38 1
    35   18   19 ar
    36   18   22 1
    37   19   20 1
    38   20   21 1
    39   22   23 2
    40   22   24 1
@<TRIPOS>MOLECULE
ZINC00114339
   31    33     0     0     0
SMALL
USER_CHARGES

@<TRIPOS>ATOM
      1 C1         -0.0166    1.3838    0.0391 C.ar      1 <0>        -0.2002
      2 C2          1.1481    2.0950    0.0215 C.ar      1 <0>        -0.0170
      3 C3          2.3757    1.4209    0.0025 C.ar      1 <0>        -0.1611
      4 C4          3.7233    1.8550   -0.0180 C.2       1 <0>        -0.1894
      5 C5          4.5138    0.7498   -0.0306 C.2       1 <0>        -0.0279
      6 N1          3.7161   -0.3780   -0.0188 N.2       1 <0>        -0.5164
      7 C6          2.3978    0.0122    0.0016 C.ar      1 <0>         0.0866
      8 C7          1.1966   -0.6907    0.0191 C.ar      1 <0>        -0.0412
      9 C8          0.0025   -0.0050    0.0383 C.ar      1 <0>        -0.0487
     10 N2          1.2027   -2.1709    0.0181 N.pl3     1 <0>         0.0511
     11 O1          0.1583   -2.7797    0.0333 O.2       1 <0>        -0.2345
     12 O2          2.2521   -2.7711    0.0021 O.3       1 <0>        -0.1532
     13 C9          5.9839    0.7537   -0.0538 C.2       1 <0>         0.6069
     14 O3          6.5893    1.8089   -0.0634 O.2       1 <0>        -0.5396
     15 N3          6.6608   -0.4117   -0.0646 N.am      1 <0>        -0.6672
     16 C10         8.0544   -0.4099   -0.1842 C.ar      1 <0>         0.1682
     17 C11         8.6927   -1.4166   -0.8971 C.ar      1 <0>        -0.1390
     18 C12        10.0688   -1.4121   -1.0140 C.ar      1 <0>        -0.0907
     19 C13        10.8116   -0.4059   -0.4217 C.ar      1 <0>        -0.0605
     20 C14        10.1782    0.5980    0.2896 C.ar      1 <0>        -0.0914
     21 C15         8.8019    0.6016    0.4049 C.ar      1 <0>        -0.1149
     22 Cl1        12.5412   -0.4034   -0.5706 Cl        1 <0>        -0.0833
     23 H1         -0.9619    1.9058    0.0583 H         1 <0>         0.1226
     24 H2          1.1233    3.1747    0.0219 H         1 <0>         0.1141
     25 H3          4.0621    2.8804   -0.0228 H         1 <0>         0.1183
     26 H4         -0.9283   -0.5525    0.0524 H         1 <0>         0.1318
     27 H5          6.1815   -1.2516    0.0106 H         1 <0>         0.4244
     28 H6          8.1135   -2.2023   -1.3593 H         1 <0>         0.1363
     29 H7         10.5657   -2.1949   -1.5680 H         1 <0>         0.1337
     30 H8         10.7603    1.3819    0.7512 H         1 <0>         0.1329
     31 H9          8.3077    1.3880    0.9560 H         1 <0>         0.1492
@<TRIPOS>BOND
     1    1    9 ar
     2    1    2 ar
     3    1   23 1
     4    2    3 ar
     5    2   24 1
     6    3    7 ar
     7    3    4 1
     8    4    5 2
     9    4   25 1
    10    5    6 1
    11    5   13 1
    12    6    7 1
    13    7    8 ar
    14    8    9 ar
    15    8   10 1
    16    9   26 1
    17   10   11 2
    18   10   12 1
    19   13   14 2
    20   13   15 am
    21   15   16 1
    22   15   27 1
    23   16   21 ar
    24   16   17 ar
    25   17   18 ar
    26   17   28 1
    27   18   19 ar
    28   18   29 1
    29   19   20 ar
    30   19   22 1
    31   20   21 ar
    32   20   30 1
    33   21   31 1
@<TRIPOS>MOLECULE
ZINC00119618
   30    32     0     0     0
SMALL
USER_CHARGES
4-chloro-N-(5-oxo-4-thia-2-azabicyclo[4.4.0]deca-2,7,9,11-tetraen-3-yl)-benzamide
@<TRIPOS>ATOM
      1 C1          4.4840   -8.9210   -0.0904 C.ar      1 <0>        -0.1271
      2 C2          5.4568   -7.9293   -0.0938 C.ar      1 <0>        -0.0753
      3 C3          5.1151   -6.6155   -0.0831 C.ar      1 <0>        -0.1031
      4 C4          3.7559   -6.2095   -0.0681 C.ar      1 <0>         0.1890
      5 C5          2.7853   -7.2258   -0.0653 C.ar      1 <0>        -0.2145
      6 C6          3.1653   -8.5751   -0.0765 C.ar      1 <0>        -0.0482
      7 C7          1.3318   -6.9290   -0.0499 C.2       1 <0>         0.3877
      8 O1          0.4722   -7.7915   -0.0474 O.2       1 <0>        -0.3936
      9 S1          0.9682   -5.1800   -0.0366 S.3       1 <0>        -0.0138
     10 C8          2.4538   -4.1906   -0.0449 C.2       1 <0>         0.4280
     11 N1          3.5707   -4.8767   -0.0649 N.2       1 <0>        -0.5603
     12 N2          2.4286   -2.8121   -0.0368 N.am      1 <0>        -0.6148
     13 C9          1.2494   -2.1598   -0.0220 C.2       1 <0>         0.5628
     14 O2          0.2081   -2.7867   -0.0158 O.2       1 <0>        -0.4622
     15 C10         1.2224   -0.6829   -0.0133 C.ar      1 <0>        -0.1374
     16 C11         0.0021   -0.0041    0.0020 C.ar      1 <0>        -0.0346
     17 C12        -0.0166    1.3746    0.0096 C.ar      1 <0>        -0.1159
     18 C13         1.1717    2.0863    0.0021 C.ar      1 <0>        -0.0019
     19 C14         2.3853    1.4187   -0.0132 C.ar      1 <0>        -0.1155
     20 C15         2.4170    0.0402   -0.0209 C.ar      1 <0>        -0.0680
     21 Cl1         1.1400    3.8220    0.0118 Cl        1 <0>        -0.0507
     22 H1          4.7712   -9.9621   -0.0990 H         1 <0>         0.1375
     23 H2          6.5003   -8.2076   -0.1048 H         1 <0>         0.1367
     24 H3          5.8923   -5.8657   -0.0858 H         1 <0>         0.1400
     25 H4          2.4085   -9.3456   -0.0738 H         1 <0>         0.1397
     26 H5          3.2596   -2.3118   -0.0418 H         1 <0>         0.4296
     27 H6         -0.9251   -0.5578    0.0083 H         1 <0>         0.1527
     28 H7         -0.9598    1.9008    0.0169 H         1 <0>         0.1478
     29 H8          3.3086    1.9790   -0.0190 H         1 <0>         0.1466
     30 H9          3.3639   -0.4792   -0.0324 H         1 <0>         0.1388
@<TRIPOS>BOND
     1    1    6 ar
     2    1    2 ar
     3    1   22 1
     4    2    3 ar
     5    2   23 1
     6    3    4 ar
     7    3   24 1
     8    4   11 1
     9    4    5 ar
    10    5    6 ar
    11    5    7 1
    12    6   25 1
    13    7    8 2
    14    7    9 1
    15    9   10 1
    16   10   11 2
    17   10   12 1
    18   12   13 am
    19   12   26 1
    20   13   14 2
    21   13   15 1
    22   15   20 ar
    23   15   16 ar
    24   16   17 ar
    25   16   27 1
    26   17   18 ar
    27   17   28 1
    28   18   19 ar
    29   18   21 1
    30   19   20 ar
    31   19   29 1
    32   20   30 1
