@<TRIPOS>MOLECULE
ZINC64245736
   61    65     0     0     0
SMALL
USER_CHARGES

@<TRIPOS>ATOM
      1 C1         -0.0164    1.3572    0.0095 C.ar      1 <0>        -0.0951
      2 C2          1.1682    2.0914    0.0021 C.ar      1 <0>        -0.1124
      3 C3          2.3779    1.4681   -0.0127 C.ar      1 <0>        -0.0962
      4 C4          2.4368    0.0628   -0.0208 C.ar      1 <0>        -0.0662
      5 C5          3.6672   -0.6113   -0.0356 C.ar      1 <0>        -0.0188
      6 C6          3.6848   -1.9960   -0.0428 C.ar      1 <0>        -0.1533
      7 C7          2.4821   -2.7254   -0.0354 C.ar      1 <0>        -0.0987
      8 C8          1.2830   -2.0900   -0.0215 C.ar      1 <0>        -0.1019
      9 C9          1.2314   -0.6839   -0.0134 C.ar      1 <0>        -0.0298
     10 C10         0.0021   -0.0041    0.0020 C.ar      1 <0>        -0.1152
     11 C11         4.9769   -2.7128   -0.0589 C.2       1 <0>         0.5725
     12 O1          6.0191   -2.0870   -0.0657 O.2       1 <0>        -0.5237
     13 N1          5.0000   -4.0603   -0.0659 N.am      1 <0>        -0.7314
     14 C12         6.2810   -4.7709   -0.0819 C.3       1 <0>         0.0966
     15 C13         6.0273   -6.2797   -0.0871 C.3       1 <0>        -0.0217
     16 N2          7.3118   -6.9923   -0.1031 N.4       1 <0>        -0.3756
     17 C14         8.0146   -6.7021   -1.3585 C.3       1 <0>        -0.0218
     18 C15         9.3911   -7.3717   -1.3428 C.3       1 <0>        -0.1496
     19 C16         9.2149   -8.8820   -1.1811 C.3       1 <0>         0.1351
     20 C17         8.4081   -9.1757    0.0843 C.3       1 <0>        -0.1504
     21 C18         7.0702   -8.4354    0.0126 C.3       1 <0>        -0.0124
     22 C19         8.5162   -9.4544   -2.3860 C.2       1 <0>         0.5293
     23 O2          7.4057   -9.1496   -2.7666 O.2       1 <0>        -0.5113
     24 N3          9.3212  -10.3567   -2.9721 N.am      1 <0>        -0.7154
     25 C20        10.5819  -10.4633   -2.2385 C.3       1 <0>         0.3303
     26 N4         10.5270   -9.5345   -1.1022 N.pl3     1 <0>        -0.6304
     27 C21        11.5193   -9.3170   -0.1437 C.ar      1 <0>         0.2634
     28 C22        11.3095   -8.4010    0.8799 C.ar      1 <0>        -0.2121
     29 C23        12.2916   -8.1877    1.8269 C.ar      1 <0>        -0.0379
     30 C24        13.4842   -8.8840    1.7581 C.ar      1 <0>        -0.1936
     31 C25        13.6977   -9.7979    0.7396 C.ar      1 <0>         0.1596
     32 C26        12.7150  -10.0198   -0.2086 C.ar      1 <0>        -0.2196
     33 F1         14.8640  -10.4767    0.6750 F         1 <0>        -0.1275
     34 H1         -0.9634    1.8760    0.0259 H         1 <0>         0.1307
     35 H2          1.1255    3.1705    0.0080 H         1 <0>         0.1312
     36 H3          3.2880    2.0496   -0.0187 H         1 <0>         0.1339
     37 H4          4.5928   -0.0549   -0.0417 H         1 <0>         0.1436
     38 H5          2.5134   -3.8049   -0.0413 H         1 <0>         0.1219
     39 H6          0.3680   -2.6638   -0.0164 H         1 <0>         0.1357
     40 H7         -0.9244   -0.5590    0.0082 H         1 <0>         0.1333
     41 H8          4.1684   -4.5597   -0.0605 H         1 <0>         0.4082
     42 H9          6.8394   -4.4933   -0.9759 H         1 <0>         0.0908
     43 H10         6.8565   -4.5024    0.8040 H         1 <0>         0.0914
     44 H11         5.4689   -6.5574    0.8069 H         1 <0>         0.1413
     45 H12         5.4518   -6.5483   -0.9730 H         1 <0>         0.1413
     46 H13         7.4336   -7.0864   -2.1969 H         1 <0>         0.1498
     47 H14         8.1365   -5.6243   -1.4655 H         1 <0>         0.1418
     48 H15         9.9078   -7.1637   -2.2798 H         1 <0>         0.1220
     49 H16         9.9759   -6.9821   -0.5095 H         1 <0>         0.1116
     50 H17         8.2272  -10.2479    0.1600 H         1 <0>         0.1221
     51 H18         8.9651   -8.8371    0.9579 H         1 <0>         0.1116
     52 H19         6.4955   -8.6359    0.9168 H         1 <0>         0.1409
     53 H20         6.5105   -8.7806   -0.8567 H         1 <0>         0.1486
     54 H21         9.0979  -10.8648   -3.7677 H         1 <0>         0.4378
     55 H22        10.7117  -11.4828   -1.8752 H         1 <0>         0.0907
     56 H23        11.4123  -10.1969   -2.8924 H         1 <0>         0.0906
     57 H24        10.3788   -7.8559    0.9346 H         1 <0>         0.1218
     58 H25        12.1281   -7.4757    2.6223 H         1 <0>         0.1399
     59 H26        14.2509   -8.7146    2.4997 H         1 <0>         0.1415
     60 H27        12.8793  -10.7356   -1.0004 H         1 <0>         0.1392
     61 H28         7.8759   -6.6836    0.6745 H         1 <0>         0.4218
@<TRIPOS>BOND
     1    1   10 ar
     2    1    2 ar
     3    1   34 1
     4    2    3 ar
     5    2   35 1
     6    3    4 ar
     7    3   36 1
     8    4    9 ar
     9    4    5 ar
    10    5    6 ar
    11    5   37 1
    12    6    7 ar
    13    6   11 1
    14    7    8 ar
    15    7   38 1
    16    8    9 ar
    17    8   39 1
    18    9   10 ar
    19   10   40 1
    20   11   12 2
    21   11   13 am
    22   13   14 1
    23   13   41 1
    24   14   15 1
    25   14   42 1
    26   14   43 1
    27   15   16 1
    28   15   44 1
    29   15   45 1
    30   16   21 1
    31   16   17 1
    32   16   61 1
    33   17   18 1
    34   17   46 1
    35   17   47 1
    36   18   19 1
    37   18   48 1
    38   18   49 1
    39   19   26 1
    40   19   20 1
    41   19   22 1
    42   20   21 1
    43   20   50 1
    44   20   51 1
    45   21   52 1
    46   21   53 1
    47   22   23 2
    48   22   24 am
    49   24   25 1
    50   24   54 1
    51   25   26 1
    52   25   55 1
    53   25   56 1
    54   26   27 1
    55   27   32 ar
    56   27   28 ar
    57   28   29 ar
    58   28   57 1
    59   29   30 ar
    60   29   58 1
    61   30   31 ar
    62   30   59 1
    63   31   32 ar
    64   31   33 1
    65   32   60 1
@<TRIPOS>MOLECULE
ZINC00537818
   52    55     0     0     0
SMALL
USER_CHARGES
N-[2-[4-(5-chloro-2-oxo-3H-benzoimidazol-1-yl)-1-piperidyl]ethyl]-4-fluoro-benzamide
@<TRIPOS>ATOM
      1 C1         -1.3254    3.3289    0.0323 C.ar      1 <0>        -0.0553
      2 C2         -2.5312    3.9968    0.0367 C.ar      1 <0>        -0.1614
      3 C3         -3.7210    3.2848    0.0385 C.ar      1 <0>         0.1400
      4 C4         -3.7050    1.8984    0.0304 C.ar      1 <0>        -0.1585
      5 C5         -2.5049    1.2205    0.0206 C.ar      1 <0>        -0.0230
      6 C6         -1.3036    1.9326    0.0187 C.ar      1 <0>        -0.1619
      7 C7         -0.0144    1.2115    0.0087 C.2       1 <0>         0.5733
      8 O1          0.0021   -0.0041    0.0020 O.2       1 <0>        -0.5180
      9 N1          1.1435    1.9012    0.0014 N.am      1 <0>        -0.7320
     10 C8          2.4220    1.1860   -0.0147 C.3       1 <0>         0.0942
     11 C9          3.5713    2.1960   -0.0202 C.3       1 <0>        -0.0171
     12 C10         5.0500    0.7246    1.2082 C.3       1 <0>        -0.0008
     13 C11         6.3201   -0.1219    1.0978 C.3       1 <0>        -0.1681
     14 C12         7.5185    0.7957    0.8403 C.3       1 <0>         0.1599
     15 C13         7.2669    1.6051   -0.4349 C.3       1 <0>        -0.1691
     16 C14         5.9693    2.4016   -0.2801 C.3       1 <0>         0.0078
     17 N2          8.7293   -0.0125    0.6763 N.am      1 <0>        -0.5367
     18 C15         9.8768    0.0688    1.4626 C.ar      1 <0>         0.0840
     19 C16        10.2268    0.8445    2.5573 C.ar      1 <0>        -0.0901
     20 C17        11.4680    0.6884    3.1421 C.ar      1 <0>        -0.0932
     21 C18        12.3627   -0.2444    2.6433 C.ar      1 <0>        -0.0199
     22 C19        12.0202   -1.0258    1.5560 C.ar      1 <0>        -0.0931
     23 C20        10.7760   -0.8750    0.9626 C.ar      1 <0>         0.1066
     24 N3         10.1506   -1.4948   -0.1167 N.am      1 <0>        -0.6359
     25 H1         10.5330   -2.1946   -0.6689 H         1 <0>         0.4425
     26 C21         8.9253   -0.9565   -0.2634 C.2       1 <0>         0.6881
     27 O2          8.1178   -1.2745   -1.1165 O.2       1 <0>        -0.5520
     28 Cl1        13.9199   -0.4329    3.3871 Cl        1 <0>        -0.0409
     29 F1         -4.9000    3.9443    0.0477 F         1 <0>        -0.1256
     30 H2         -0.3992    3.8844    0.0354 H         1 <0>         0.1335
     31 H3         -2.5492    5.0766    0.0427 H         1 <0>         0.1472
     32 H4         -4.6346    1.3486    0.0315 H         1 <0>         0.1499
     33 H5         -2.4936    0.1406    0.0139 H         1 <0>         0.1496
     34 H6          1.1303    2.8711    0.0067 H         1 <0>         0.4075
     35 H7          2.4967    0.5554    0.8712 H         1 <0>         0.0916
     36 H8          2.4797    0.5650   -0.9086 H         1 <0>         0.0922
     37 H9          3.4965    2.8266   -0.9062 H         1 <0>         0.1393
     38 H10         3.5135    2.8170    0.8737 H         1 <0>         0.1410
     39 H11         5.1479    1.4194    2.0423 H         1 <0>         0.1377
     40 H12         4.1927    0.0730    1.3773 H         1 <0>         0.1388
     41 H13         6.2173   -0.8264    0.2724 H         1 <0>         0.1092
     42 H14         6.4743   -0.6697    2.0275 H         1 <0>         0.1201
     43 H15         7.6452    1.4747    1.6836 H         1 <0>         0.1168
     44 H16         7.1790    0.9277   -1.2844 H         1 <0>         0.1087
     45 H17         8.0974    2.2912   -0.6010 H         1 <0>         0.1202
     46 H18         5.7798    2.9679   -1.1920 H         1 <0>         0.1383
     47 H19         6.0631    3.0884    0.5611 H         1 <0>         0.1367
     48 H20         9.5317    1.5724    2.9491 H         1 <0>         0.1398
     49 H21        11.7423    1.2957    3.9921 H         1 <0>         0.1502
     50 H22        12.7197   -1.7523    1.1697 H         1 <0>         0.1483
     51 N4          4.8516    1.4596   -0.0592 N.4       1 <0>        -0.3944
     52 H23         4.8255    0.7864   -0.8340 H         1 <0>         0.4343
@<TRIPOS>BOND
     1    1    6 ar
     2    1    2 ar
     3    1   30 1
     4    2    3 ar
     5    2   31 1
     6    3    4 ar
     7    3   29 1
     8    4    5 ar
     9    4   32 1
    10    5    6 ar
    11    5   33 1
    12    6    7 1
    13    7    8 2
    14    7    9 am
    15    9   10 1
    16    9   34 1
    17   10   11 1
    18   10   35 1
    19   10   36 1
    20   11   37 1
    21   11   38 1
    22   11   51 1
    23   12   13 1
    24   12   39 1
    25   12   40 1
    26   12   51 1
    27   13   14 1
    28   13   41 1
    29   13   42 1
    30   14   15 1
    31   14   17 1
    32   14   43 1
    33   15   16 1
    34   15   44 1
    35   15   45 1
    36   16   46 1
    37   16   47 1
    38   16   51 1
    39   17   26 am
    40   17   18 1
    41   18   23 ar
    42   18   19 ar
    43   19   20 ar
    44   19   48 1
    45   20   21 ar
    46   20   49 1
    47   21   22 ar
    48   21   28 1
    49   22   23 ar
    50   22   50 1
    51   23   24 1
    52   24   25 1
    53   24   26 am
    54   26   27 2
    55   51   52 1
@<TRIPOS>MOLECULE
ZINC28879001
   56    60     0     0     0
SMALL
USER_CHARGES
5-fluoro-N-[2-[4-(2-oxo-3H-benzimidazol-1-yl)-1-piperidyl]ethyl]-1H-indole-2-carboxamide
@<TRIPOS>ATOM
      1 C1         -4.9152   18.6556    3.4822 C.ar      1 <0>        -0.0989
      2 C2         -4.1299   17.6698    4.0548 C.ar      1 <0>        -0.1051
      3 C3         -3.7667   16.5561    3.3233 C.ar      1 <0>        -0.1051
      4 C4         -4.1921   16.4241    2.0102 C.ar      1 <0>         0.0740
      5 C5         -4.9846   17.4182    1.4327 C.ar      1 <0>         0.0869
      6 C6         -5.3434   18.5331    2.1749 C.ar      1 <0>        -0.1017
      7 N1         -5.2499   17.0135    0.1266 N.am      1 <0>        -0.6533
      8 H1         -5.8678   17.6439   -0.5297 H         1 <0>         0.4708
      9 C7         -4.6423   15.8303   -0.0825 C.2       1 <0>         0.6929
     10 O1         -4.6715   15.2019   -1.1242 O.2       1 <0>        -0.5620
     11 N2         -4.0004   15.4462    1.0370 N.am      1 <0>        -0.5402
     12 C8         -3.2268   14.2131    1.2015 C.3       1 <0>         0.1600
     13 C9         -2.0811   14.1884    0.1859 C.3       1 <0>        -0.1671
     14 C10        -1.3130   12.8719    0.3226 C.3       1 <0>         0.0063
     15 N3         -2.2245   11.7450    0.0866 N.4       1 <0>        -0.3986
     16 C11        -3.3067   11.7206    1.0789 C.3       1 <0>        -0.0084
     17 C12        -4.1344   13.0027    0.9647 C.3       1 <0>        -0.1656
     18 C13        -1.4938   10.4707    0.0730 C.3       1 <0>        -0.0168
     19 C14        -2.4915    9.3107    0.0756 C.3       1 <0>         0.0957
     20 N4         -1.7627    8.0399    0.0620 N.am      1 <0>        -0.7448
     21 C15        -2.4400    6.8747    0.0617 C.2       1 <0>         0.5988
     22 O2         -3.6565    6.8782    0.0726 O.2       1 <0>        -0.5079
     23 C16        -1.7086    5.5990    0.0480 C.2       1 <0>        -0.0045
     24 C17        -2.2772    4.3650    0.0464 C.2       1 <0>        -0.0893
     25 C18        -1.2330    3.4089    0.0312 C.ar      1 <0>        -0.1013
     26 C19        -1.2118    2.0078    0.0187 C.ar      1 <0>        -0.0953
     27 C20        -0.0162    1.3468    0.0094 C.ar      1 <0>         0.0781
     28 C21         1.1825    2.0528    0.0018 C.ar      1 <0>        -0.1100
     29 C22         1.1856    3.4294    0.0092 C.ar      1 <0>        -0.1050
     30 C23        -0.0203    4.1248    0.0239 C.ar      1 <0>         0.1225
     31 N5         -0.3339    5.4643    0.0344 N.pl3     1 <0>        -0.5875
     32 H2          0.3064    6.3587    0.0335 H         1 <0>         0.4368
     33 F1          0.0021   -0.0041    0.0020 F         1 <0>        -0.1356
     34 H3         -5.1946   19.5240    4.0604 H         1 <0>         0.1392
     35 H4         -3.7994   17.7723    5.0779 H         1 <0>         0.1376
     36 H5         -3.1539   15.7891    3.7734 H         1 <0>         0.1267
     37 H6         -5.9566   19.3039    1.7317 H         1 <0>         0.1365
     38 H7         -2.8379   14.2146    2.2305 H         1 <0>         0.1141
     39 H8         -2.4911   14.2718   -0.8314 H         1 <0>         0.1106
     40 H9         -1.4025   15.0325    0.3781 H         1 <0>         0.1191
     41 H10        -0.4981   12.8445   -0.4157 H         1 <0>         0.1401
     42 H11        -0.8922   12.7964    1.3361 H         1 <0>         0.1313
     43 H12        -3.9532   10.8498    0.8950 H         1 <0>         0.1441
     44 H13        -2.8766   11.6512    2.0889 H         1 <0>         0.1331
     45 H14        -4.9357   12.9923    1.7182 H         1 <0>         0.1193
     46 H15        -4.5770   13.0673   -0.0403 H         1 <0>         0.1105
     47 H16        -0.8697   10.4156   -0.8311 H         1 <0>         0.1412
     48 H17        -0.8535   10.4056    0.9650 H         1 <0>         0.1359
     49 H18        -3.1156    9.3659    0.9797 H         1 <0>         0.0938
     50 H19        -3.1318    9.3758   -0.8164 H         1 <0>         0.0930
     51 H20        -0.6627    8.0368    0.0520 H         1 <0>         0.4213
     52 H21        -3.3358    4.1516    0.0550 H         1 <0>         0.1590
     53 H22        -2.1378    1.4521    0.0204 H         1 <0>         0.1428
     54 H23         2.1195    1.5159   -0.0097 H         1 <0>         0.1457
     55 H24         2.1214    3.9686    0.0038 H         1 <0>         0.1360
     56 H25        -2.6813   11.8851   -0.9042 H         1 <0>         0.4503
@<TRIPOS>BOND
     1    1    6 ar
     2    1    2 ar
     3    1   34 1
     4    2    3 ar
     5    2   35 1
     6    3    4 ar
     7    3   36 1
     8    4   11 1
     9    4    5 ar
    10    5    6 ar
    11    5    7 1
    12    6   37 1
    13    7    8 1
    14    7    9 am
    15    9   10 2
    16    9   11 am
    17   11   12 1
    18   12   17 1
    19   12   13 1
    20   12   38 1
    21   13   14 1
    22   13   39 1
    23   13   40 1
    24   14   15 1
    25   14   41 1
    26   14   42 1
    27   15   16 1
    28   15   18 1
    29   15   56 1
    30   16   17 1
    31   16   43 1
    32   16   44 1
    33   17   45 1
    34   17   46 1
    35   18   19 1
    36   18   47 1
    37   18   48 1
    38   19   20 1
    39   19   49 1
    40   19   50 1
    41   20   21 am
    42   20   51 1
    43   21   22 2
    44   21   23 1
    45   23   31 1
    46   23   24 2
    47   24   25 1
    48   24   52 1
    49   25   30 ar
    50   25   26 ar
    51   26   27 ar
    52   26   53 1
    53   27   28 ar
    54   27   33 1
    55   28   29 ar
    56   28   54 1
    57   29   30 ar
    58   29   55 1
    59   30   31 1
    60   31   32 1
@<TRIPOS>MOLECULE
ZINC00902197
   59    61     0     0     0
SMALL
USER_CHARGES

@<TRIPOS>ATOM
      1 C1          0.8254   -1.1911    0.5458 C.3       1 <0>        -0.1467
      2 C2          0.0049   -0.0175    0.0070 C.3       1 <0>        -0.0930
      3 C3         -1.4365   -0.4345   -0.1329 C.2       1 <0>        -0.0412
      4 C4         -1.8945   -0.9031   -1.3201 C.2       1 <0>        -0.0542
      5 C5         -1.0207   -0.8745   -2.5135 C.ar      1 <0>        -0.0505
      6 C6         -0.5927    0.3462   -3.0382 C.ar      1 <0>        -0.0904
      7 C7          0.2219    0.3688   -4.1500 C.ar      1 <0>        -0.1432
      8 C8          0.6163   -0.8208   -4.7483 C.ar      1 <0>         0.1114
      9 C9          0.1922   -2.0372   -4.2295 C.ar      1 <0>        -0.1430
     10 C10        -0.6173   -2.0682   -3.1143 C.ar      1 <0>        -0.0865
     11 O1          1.4188   -0.7945   -5.8442 O.3       1 <0>        -0.4998
     12 C11        -3.2681   -1.4431   -1.4219 C.ar      1 <0>        -0.0476
     13 C12        -3.6201   -2.5973   -0.7200 C.ar      1 <0>        -0.0585
     14 C13        -4.9009   -3.0973   -0.8174 C.ar      1 <0>        -0.1372
     15 C14        -5.8406   -2.4544   -1.6126 C.ar      1 <0>         0.1115
     16 C15        -5.4943   -1.3060   -2.3124 C.ar      1 <0>        -0.1995
     17 C16        -4.2171   -0.7965   -2.2156 C.ar      1 <0>        -0.0636
     18 O2         -7.1019   -2.9506   -1.7064 O.3       1 <0>        -0.3290
     19 C17        -8.0181   -2.2400   -2.5417 C.3       1 <0>         0.0246
     20 C18        -9.3768   -2.9431   -2.5220 C.3       1 <0>        -0.0017
     21 N1         -9.9465   -2.8699   -1.1700 N.4       1 <0>        -0.3886
     22 C19       -10.2293   -1.4683   -0.8330 C.3       1 <0>        -0.0545
     23 C20       -11.1926   -3.6463   -1.1210 C.3       1 <0>        -0.0476
     24 C21        -2.3462   -0.3332    1.0179 C.ar      1 <0>        -0.0458
     25 C22        -3.4325    0.5475    0.9802 C.ar      1 <0>        -0.1002
     26 C23        -4.2808    0.6367    2.0634 C.ar      1 <0>        -0.1203
     27 C24        -4.0597   -0.1419    3.1862 C.ar      1 <0>        -0.1181
     28 C25        -2.9870   -1.0154    3.2316 C.ar      1 <0>        -0.1170
     29 C26        -2.1333   -1.1212    2.1541 C.ar      1 <0>        -0.1062
     30 H1          1.8836   -0.9299    0.5351 H         1 <0>         0.0624
     31 H2          0.5160   -1.4121    1.5673 H         1 <0>         0.0568
     32 H3          0.6611   -2.0675   -0.0812 H         1 <0>         0.0566
     33 H4          0.0747    0.8224    0.6983 H         1 <0>         0.0736
     34 H5          0.3931    0.2804   -0.9670 H         1 <0>         0.0821
     35 H6         -0.8996    1.2717   -2.5739 H         1 <0>         0.1277
     36 H7          0.5534    1.3128   -4.5565 H         1 <0>         0.1319
     37 H8          0.5005   -2.9602   -4.6979 H         1 <0>         0.1307
     38 H9         -0.9431   -3.0147   -2.7087 H         1 <0>         0.1250
     39 H10         2.3639   -0.8127   -5.6402 H         1 <0>         0.3948
     40 H11        -2.8897   -3.0979   -0.1017 H         1 <0>         0.1325
     41 H12        -5.1738   -3.9904   -0.2749 H         1 <0>         0.1321
     42 H13        -6.2278   -0.8088   -2.9298 H         1 <0>         0.1265
     43 H14        -3.9499    0.0993   -2.7563 H         1 <0>         0.1290
     44 H15        -8.1310   -1.2207   -2.1723 H         1 <0>         0.0864
     45 H16        -7.6360   -2.2163   -3.5623 H         1 <0>         0.1085
     46 H17       -10.0493   -2.4539   -3.2267 H         1 <0>         0.1492
     47 H18        -9.2496   -3.9876   -2.8066 H         1 <0>         0.1425
     48 H19       -10.9410   -1.0587   -1.5499 H         1 <0>         0.1246
     49 H20       -10.6520   -1.4139    0.1702 H         1 <0>         0.1273
     50 H21        -9.3047   -0.8922   -0.8694 H         1 <0>         0.1214
     51 H22       -10.9828   -4.6863   -1.3710 H         1 <0>         0.1248
     52 H23       -11.6153   -3.5919   -0.1177 H         1 <0>         0.1258
     53 H24       -11.9043   -3.2367   -1.8378 H         1 <0>         0.1231
     54 H25        -3.6059    1.1562    0.1051 H         1 <0>         0.1183
     55 H26        -5.1199    1.3161    2.0359 H         1 <0>         0.1196
     56 H27        -4.7277   -0.0673    4.0316 H         1 <0>         0.1206
     57 H28        -2.8211   -1.6193    4.1115 H         1 <0>         0.1239
     58 H29        -1.2997   -1.8070    2.1889 H         1 <0>         0.1249
     59 H30        -9.2877   -3.2489   -0.5064 H         1 <0>         0.4339
@<TRIPOS>BOND
     1    1    2 1
     2    1   30 1
     3    1   31 1
     4    1   32 1
     5    2    3 1
     6    2   33 1
     7    2   34 1
     8    3    4 2
     9    3   24 1
    10    4    5 1
    11    4   12 1
    12    5   10 ar
    13    5    6 ar
    14    6    7 ar
    15    6   35 1
    16    7    8 ar
    17    7   36 1
    18    8    9 ar
    19    8   11 1
    20    9   10 ar
    21    9   37 1
    22   10   38 1
    23   11   39 1
    24   12   17 ar
    25   12   13 ar
    26   13   14 ar
    27   13   40 1
    28   14   15 ar
    29   14   41 1
    30   15   16 ar
    31   15   18 1
    32   16   17 ar
    33   16   42 1
    34   17   43 1
    35   18   19 1
    36   19   20 1
    37   19   44 1
    38   19   45 1
    39   20   21 1
    40   20   46 1
    41   20   47 1
    42   21   22 1
    43   21   23 1
    44   21   59 1
    45   22   48 1
    46   22   49 1
    47   22   50 1
    48   23   51 1
    49   23   52 1
    50   23   53 1
    51   24   29 ar
    52   24   25 ar
    53   25   26 ar
    54   25   54 1
    55   26   27 ar
    56   26   55 1
    57   27   28 ar
    58   27   56 1
    59   28   29 ar
    60   28   57 1
    61   29   58 1
@<TRIPOS>MOLECULE
ZINC40951976
   61    65     0     0     0
SMALL
USER_CHARGES

@<TRIPOS>ATOM
      1 C1         -0.0187    1.5258    0.0104 C.3       1 <0>        -0.1677
      2 C2          0.0021   -0.0041    0.0020 C.3       1 <0>         0.1204
      3 H1          0.5123   -0.3556   -0.8948 H         1 <0>         0.1152
      4 C3          0.7421   -0.5109    1.2415 C.3       1 <0>        -0.0191
      5 N1          0.6589   -1.9765    1.2963 N.4       1 <0>        -0.3883
      6 C4          1.3710   -2.5488    0.1475 C.3       1 <0>        -0.0056
      7 C5          1.2189   -4.0714    0.1552 C.3       1 <0>        -0.1657
      8 C6          1.8078   -4.6312    1.4534 C.3       1 <0>         0.1602
      9 C7          1.1083   -3.9720    2.6456 C.3       1 <0>        -0.1678
     10 C8          1.2645   -2.4531    2.5456 C.3       1 <0>        -0.0001
     11 N2          1.5974   -6.0802    1.5019 N.am      1 <0>        -0.5362
     12 C9          2.5972   -7.0470    1.5866 C.ar      1 <0>         0.0843
     13 C10         3.9810   -6.9818    1.6464 C.ar      1 <0>        -0.0900
     14 C11         4.7215   -8.1447    1.7265 C.ar      1 <0>        -0.0931
     15 C12         4.0874   -9.3764    1.7469 C.ar      1 <0>        -0.0200
     16 C13         2.7087   -9.4509    1.6872 C.ar      1 <0>        -0.0932
     17 C14         1.9576   -8.2880    1.6075 C.ar      1 <0>         0.1063
     18 N3          0.5895   -8.0370    1.5349 N.am      1 <0>        -0.6360
     19 H2         -0.1111   -8.7079    1.5300 H         1 <0>         0.4421
     20 C15         0.4048   -6.7046    1.4780 C.2       1 <0>         0.6879
     21 O1         -0.6758   -6.1491    1.4119 O.2       1 <0>        -0.5516
     22 Cl1         5.0284  -10.8317    1.8473 Cl        1 <0>        -0.0412
     23 N4         -1.3723   -0.5112    0.0124 N.am      1 <0>        -0.7507
     24 C16        -2.0508   -0.6427   -1.1446 C.2       1 <0>         0.5716
     25 O2         -1.5224   -0.3406   -2.1969 O.2       1 <0>        -0.5147
     26 C17        -3.4372   -1.1542   -1.1341 C.ar      1 <0>        -0.1580
     27 C18        -4.0455   -1.4968    0.0869 C.ar      1 <0>        -0.1015
     28 C19        -5.3176   -1.9686    0.1225 C.ar      1 <0>        -0.0993
     29 C20        -6.0455   -2.1211   -1.0719 C.ar      1 <0>        -0.0291
     30 C21        -7.3635   -2.6073   -1.0602 C.ar      1 <0>        -0.1154
     31 C22        -8.0430   -2.7438   -2.2320 C.ar      1 <0>        -0.0937
     32 C23        -7.4513   -2.4085   -3.4484 C.ar      1 <0>        -0.1111
     33 C24        -6.1767   -1.9343   -3.4996 C.ar      1 <0>        -0.0963
     34 C25        -5.4434   -1.7793   -2.3094 C.ar      1 <0>        -0.0660
     35 C26        -4.1296   -1.2873   -2.3261 C.ar      1 <0>        -0.0167
     36 H3          1.0039    1.9031    0.0027 H         1 <0>         0.0804
     37 H4         -0.5459    1.8868   -0.8726 H         1 <0>         0.0837
     38 H5         -0.5289    1.8773    0.9072 H         1 <0>         0.0708
     39 H6          1.7879   -0.2080    1.1895 H         1 <0>         0.1507
     40 H7          0.2852   -0.0874    2.1360 H         1 <0>         0.1408
     41 H8          0.9530   -2.1471   -0.7754 H         1 <0>         0.1382
     42 H9          2.4279   -2.2894    0.2098 H         1 <0>         0.1375
     43 H10         0.1624   -4.3320    0.0928 H         1 <0>         0.1072
     44 H11         1.7499   -4.4946   -0.6975 H         1 <0>         0.1198
     45 H12         2.8755   -4.4152    1.4922 H         1 <0>         0.1177
     46 H13         0.0494   -4.2305    2.6348 H         1 <0>         0.1078
     47 H14         1.5601   -4.3241    3.5729 H         1 <0>         0.1205
     48 H15         2.3236   -2.1957    2.5567 H         1 <0>         0.1365
     49 H16         0.7677   -1.9807    3.3930 H         1 <0>         0.1396
     50 H17         4.4787   -6.0234    1.6301 H         1 <0>         0.1400
     51 H18         5.7993   -8.0938    1.7732 H         1 <0>         0.1502
     52 H19         2.2173  -10.4125    1.7032 H         1 <0>         0.1480
     53 H20        -1.7940   -0.7522    0.8520 H         1 <0>         0.3999
     54 H21        -3.4931   -1.3832    1.0080 H         1 <0>         0.1181
     55 H22        -5.7711   -2.2273    1.0679 H         1 <0>         0.1354
     56 H23        -7.8355   -2.8722   -0.1256 H         1 <0>         0.1336
     57 H24        -9.0560   -3.1180   -2.2187 H         1 <0>         0.1315
     58 H25        -8.0122   -2.5270   -4.3636 H         1 <0>         0.1319
     59 H26        -5.7304   -1.6787   -4.4493 H         1 <0>         0.1343
     60 H27        -3.6604   -1.0190   -3.2612 H         1 <0>         0.1438
     61 H28        -0.3093   -2.2589    1.2640 H         1 <0>         0.4225
@<TRIPOS>BOND
     1    1    2 1
     2    1   36 1
     3    1   37 1
     4    1   38 1
     5    2    3 1
     6    2    4 1
     7    2   23 1
     8    4    5 1
     9    4   39 1
    10    4   40 1
    11    5   10 1
    12    5    6 1
    13    5   61 1
    14    6    7 1
    15    6   41 1
    16    6   42 1
    17    7    8 1
    18    7   43 1
    19    7   44 1
    20    8    9 1
    21    8   11 1
    22    8   45 1
    23    9   10 1
    24    9   46 1
    25    9   47 1
    26   10   48 1
    27   10   49 1
    28   11   20 am
    29   11   12 1
    30   12   17 ar
    31   12   13 ar
    32   13   14 ar
    33   13   50 1
    34   14   15 ar
    35   14   51 1
    36   15   16 ar
    37   15   22 1
    38   16   17 ar
    39   16   52 1
    40   17   18 1
    41   18   19 1
    42   18   20 am
    43   20   21 2
    44   23   24 am
    45   23   53 1
    46   24   25 2
    47   24   26 1
    48   26   35 ar
    49   26   27 ar
    50   27   28 ar
    51   27   54 1
    52   28   29 ar
    53   28   55 1
    54   29   34 ar
    55   29   30 ar
    56   30   31 ar
    57   30   56 1
    58   31   32 ar
    59   31   57 1
    60   32   33 ar
    61   32   58 1
    62   33   34 ar
    63   33   59 1
    64   34   35 ar
    65   35   60 1
@<TRIPOS>MOLECULE
ZINC40896792
   61    65     0     0     0
SMALL
USER_CHARGES

@<TRIPOS>ATOM
      1 C1         -0.0167    1.3786    0.0096 C.ar      1 <0>        -0.1570
      2 C2          1.1695    2.0894    0.0021 C.ar      1 <0>        -0.0634
      3 C3          2.3774    1.4200   -0.0130 C.ar      1 <0>        -0.1782
      4 C4          2.3998    0.0311   -0.0206 C.ar      1 <0>         0.2314
      5 C5          1.2064   -0.6798   -0.0130 C.ar      1 <0>        -0.1989
      6 C6          0.0021   -0.0041    0.0020 C.ar      1 <0>        -0.0704
      7 N1          3.6196   -0.6492   -0.0363 N.pl3     1 <0>        -0.6332
      8 C7          4.9637   -0.0571   -0.0400 C.3       1 <0>         0.3325
      9 N2          5.9388   -1.1470   -0.0572 N.am      1 <0>        -0.7162
     10 C8          5.3099   -2.3344   -0.0641 C.2       1 <0>         0.5287
     11 O1          5.8532   -3.4187   -0.0778 O.2       1 <0>        -0.5135
     12 C9          3.8222   -2.1026   -0.0461 C.3       1 <0>         0.1357
     13 C10         3.1820   -2.7114   -1.2943 C.3       1 <0>        -0.1497
     14 C11         3.3480   -4.2326   -1.2552 C.3       1 <0>        -0.0125
     15 N3          2.7020   -4.7671   -0.0503 N.4       1 <0>        -0.3755
     16 C12         3.3698   -4.2457    1.1482 C.3       1 <0>        -0.0214
     17 C13         3.2050   -2.7250    1.2070 C.3       1 <0>        -0.1491
     18 C14         2.7905   -6.2335   -0.0591 C.3       1 <0>        -0.0217
     19 C15         2.0109   -6.7986    1.1299 C.3       1 <0>         0.0966
     20 N4          2.0991   -8.2609    1.1211 N.am      1 <0>        -0.7312
     21 C16         1.4840   -8.9789    2.0816 C.2       1 <0>         0.5723
     22 O2          0.8560   -8.4131    2.9552 O.2       1 <0>        -0.5236
     23 C17         1.5730  -10.4539    2.0728 C.ar      1 <0>        -0.1531
     24 C18         2.3059  -11.1028    1.0628 C.ar      1 <0>        -0.0986
     25 C19         2.4024  -12.4563    1.0332 C.ar      1 <0>        -0.1020
     26 C20         1.7645  -13.2293    2.0208 C.ar      1 <0>        -0.0298
     27 C21         1.8502  -14.6314    2.0110 C.ar      1 <0>        -0.1152
     28 C22         1.2225  -15.3528    2.9802 C.ar      1 <0>        -0.0952
     29 C23         0.4929  -14.7218    3.9860 C.ar      1 <0>        -0.1124
     30 C24         0.3873  -13.3657    4.0284 C.ar      1 <0>        -0.0961
     31 C25         1.0225  -12.5869    3.0444 C.ar      1 <0>        -0.0662
     32 C26         0.9389  -11.1865    3.0623 C.ar      1 <0>        -0.0189
     33 H1         -0.9598    1.9046    0.0260 H         1 <0>         0.1277
     34 H2          1.1513    3.1692    0.0077 H         1 <0>         0.1313
     35 H3          3.3034    1.9757   -0.0192 H         1 <0>         0.1258
     36 H4          1.2204   -1.7597   -0.0193 H         1 <0>         0.1142
     37 H5         -0.9261   -0.5561    0.0079 H         1 <0>         0.1278
     38 H6          5.0901    0.5643   -0.9265 H         1 <0>         0.0883
     39 H7          5.1025    0.5473    0.8564 H         1 <0>         0.0880
     40 H8          6.9016   -1.0295   -0.0627 H         1 <0>         0.4367
     41 H9          2.1214   -2.4613   -1.3183 H         1 <0>         0.1106
     42 H10         3.6706   -2.3147   -2.1843 H         1 <0>         0.1208
     43 H11         2.8858   -4.6710   -2.1397 H         1 <0>         0.1400
     44 H12         4.4090   -4.4817   -1.2391 H         1 <0>         0.1485
     45 H13         2.9238   -4.6937    2.0361 H         1 <0>         0.1408
     46 H14         4.4303   -4.4946    1.1101 H         1 <0>         0.1493
     47 H15         3.7099   -2.3380    2.0921 H         1 <0>         0.1207
     48 H16         2.1450   -2.4752    1.2532 H         1 <0>         0.1110
     49 H17         2.3668   -6.6175   -0.9870 H         1 <0>         0.1410
     50 H18         3.8354   -6.5348    0.0153 H         1 <0>         0.1412
     51 H19         2.4346   -6.4145    2.0578 H         1 <0>         0.0908
     52 H20         0.9660   -6.4972    1.0555 H         1 <0>         0.0913
     53 H21         2.6003   -8.7123    0.4240 H         1 <0>         0.4081
     54 H22         2.7978  -10.5165    0.3007 H         1 <0>         0.1219
     55 H23         2.9687  -12.9401    0.2512 H         1 <0>         0.1357
     56 H24         2.4113  -15.1351    1.2378 H         1 <0>         0.1333
     57 H25         1.2909  -16.4306    2.9691 H         1 <0>         0.1307
     58 H26         0.0039  -15.3176    4.7424 H         1 <0>         0.1311
     59 H27        -0.1818  -12.8899    4.8134 H         1 <0>         0.1339
     60 H28         0.3809  -10.6842    3.8386 H         1 <0>         0.1436
     61 H29         1.7315   -4.4913   -0.0400 H         1 <0>         0.4217
@<TRIPOS>BOND
     1    1    6 ar
     2    1    2 ar
     3    1   33 1
     4    2    3 ar
     5    2   34 1
     6    3    4 ar
     7    3   35 1
     8    4    5 ar
     9    4    7 1
    10    5    6 ar
    11    5   36 1
    12    6   37 1
    13    7   12 1
    14    7    8 1
    15    8    9 1
    16    8   38 1
    17    8   39 1
    18    9   10 am
    19    9   40 1
    20   10   11 2
    21   10   12 1
    22   12   17 1
    23   12   13 1
    24   13   14 1
    25   13   41 1
    26   13   42 1
    27   14   15 1
    28   14   43 1
    29   14   44 1
    30   15   16 1
    31   15   18 1
    32   15   61 1
    33   16   17 1
    34   16   45 1
    35   16   46 1
    36   17   47 1
    37   17   48 1
    38   18   19 1
    39   18   49 1
    40   18   50 1
    41   19   20 1
    42   19   51 1
    43   19   52 1
    44   20   21 am
    45   20   53 1
    46   21   22 2
    47   21   23 1
    48   23   32 ar
    49   23   24 ar
    50   24   25 ar
    51   24   54 1
    52   25   26 ar
    53   25   55 1
    54   26   31 ar
    55   26   27 ar
    56   27   28 ar
    57   27   56 1
    58   28   29 ar
    59   28   57 1
    60   29   30 ar
    61   29   58 1
    62   30   31 ar
    63   30   59 1
    64   31   32 ar
    65   32   60 1
@<TRIPOS>MOLECULE
ZINC40953486
   62    66     0     0     0
SMALL
USER_CHARGES

@<TRIPOS>ATOM
      1 C1         -2.0701    1.3497    1.5883 C.3       1 <0>        -0.1677
      2 C2         -1.9742   -0.1641    1.3882 C.3       1 <0>         0.1191
      3 H1         -2.9684   -0.6044    1.4640 H         1 <0>         0.1142
      4 C3         -1.3895   -0.4597    0.0056 C.3       1 <0>        -0.0188
      5 N1         -1.1996   -1.9085   -0.1462 N.4       1 <0>        -0.3877
      6 C4         -0.5023   -2.1794   -1.4091 C.3       1 <0>        -0.0001
      7 C5         -0.2299   -3.6799   -1.5340 C.3       1 <0>        -0.1675
      8 C6         -1.5601   -4.4383   -1.5107 C.3       1 <0>         0.1598
      9 C7         -2.3124   -4.0903   -0.2231 C.3       1 <0>        -0.1654
     10 C8         -2.5077   -2.5745   -0.1467 C.3       1 <0>        -0.0052
     11 N2         -1.3030   -5.8799   -1.5534 N.am      1 <0>        -0.5364
     12 C9         -1.7415   -6.7575   -2.5427 C.ar      1 <0>         0.0950
     13 C10        -2.4890   -6.5912   -3.6987 C.ar      1 <0>        -0.0969
     14 C11        -2.7697   -7.6812   -4.4988 C.ar      1 <0>        -0.0741
     15 C12        -2.3079   -8.9400   -4.1512 C.ar      1 <0>        -0.0777
     16 C13        -1.5626   -9.1152   -3.0008 C.ar      1 <0>        -0.0718
     17 C14        -1.2754   -8.0261   -2.1921 C.ar      1 <0>         0.0993
     18 N3         -0.5683   -7.8803   -1.0010 N.am      1 <0>        -0.6357
     19 H2         -0.1265   -8.5922   -0.5124 H         1 <0>         0.4423
     20 C15        -0.5977   -6.5818   -0.6464 C.2       1 <0>         0.6881
     21 O1         -0.0695   -6.1139    0.3451 O.2       1 <0>        -0.5519
     22 Br1        -2.6995  -10.4248   -5.2548 Br        1 <0>        -0.0196
     23 N4         -1.1058   -0.7388    2.4187 N.am      1 <0>        -0.7493
     24 C16        -1.6196   -1.0893    3.6143 C.2       1 <0>         0.5527
     25 O2         -2.8010   -0.9289    3.8372 O.2       1 <0>        -0.5132
     26 C17        -0.7264   -1.6805    4.6743 C.3       1 <0>        -0.1927
     27 H3          0.2931   -1.2954    4.6983 H         1 <0>         0.1303
     28 C18        -0.9337   -3.1536    5.0318 C.3       1 <0>        -0.1424
     29 C19        -1.3699   -2.0596    6.0096 C.3       1 <0>        -0.0675
     30 H4         -2.4395   -1.8814    6.1214 H         1 <0>         0.1286
     31 C20        -0.5457   -1.8726    7.2573 C.ar      1 <0>        -0.0672
     32 C21         0.6557   -2.5416    7.3987 C.ar      1 <0>        -0.1197
     33 C22         1.4118   -2.3701    8.5431 C.ar      1 <0>        -0.1162
     34 C23         0.9667   -1.5292    9.5460 C.ar      1 <0>        -0.1154
     35 C24        -0.2343   -0.8596    9.4042 C.ar      1 <0>        -0.1147
     36 C25        -0.9883   -1.0278    8.2579 C.ar      1 <0>        -0.1068
     37 H5         -2.4866    1.5603    2.5734 H         1 <0>         0.0828
     38 H6         -1.0759    1.7900    1.5126 H         1 <0>         0.0710
     39 H7         -2.7162    1.7773    0.8217 H         1 <0>         0.0801
     40 H8         -2.0742   -0.1005   -0.7628 H         1 <0>         0.1497
     41 H9         -0.4293    0.0455   -0.0984 H         1 <0>         0.1407
     42 H10        -1.1227   -1.8524   -2.2435 H         1 <0>         0.1361
     43 H11         0.4427   -1.6364   -1.4255 H         1 <0>         0.1396
     44 H12         0.2863   -3.8792   -2.4731 H         1 <0>         0.1205
     45 H13         0.3907   -4.0079   -0.7001 H         1 <0>         0.1078
     46 H14        -2.1602   -4.1482   -2.3732 H         1 <0>         0.1176
     47 H15        -3.2848   -4.5828   -0.2251 H         1 <0>         0.1196
     48 H16        -1.7351   -4.4267    0.6381 H         1 <0>         0.1075
     49 H17        -3.0431   -2.3232    0.7688 H         1 <0>         0.1375
     50 H18        -3.0853   -2.2392   -1.0081 H         1 <0>         0.1370
     51 H19        -2.8513   -5.6113   -3.9725 H         1 <0>         0.1396
     52 H20        -3.3519   -7.5517   -5.3992 H         1 <0>         0.1495
     53 H21        -1.2041  -10.0980   -2.7326 H         1 <0>         0.1474
     54 H22        -0.1610   -0.8671    2.2404 H         1 <0>         0.4027
     55 H23        -1.7162   -3.6951    4.5003 H         1 <0>         0.1046
     56 H24        -0.0507   -3.7376    5.2914 H         1 <0>         0.1145
     57 H25         1.0035   -3.1985    6.6151 H         1 <0>         0.1217
     58 H26         2.3501   -2.8932    8.6539 H         1 <0>         0.1251
     59 H27         1.5570   -1.3958   10.4405 H         1 <0>         0.1257
     60 H28        -0.5822   -0.2029   10.1879 H         1 <0>         0.1267
     61 H29        -1.9248   -0.5017    8.1455 H         1 <0>         0.1239
     62 H30        -0.6464   -2.2565    0.6225 H         1 <0>         0.4232
@<TRIPOS>BOND
     1    1    2 1
     2    1   37 1
     3    1   38 1
     4    1   39 1
     5    2    3 1
     6    2    4 1
     7    2   23 1
     8    4    5 1
     9    4   40 1
    10    4   41 1
    11    5   10 1
    12    5    6 1
    13    5   62 1
    14    6    7 1
    15    6   42 1
    16    6   43 1
    17    7    8 1
    18    7   44 1
    19    7   45 1
    20    8    9 1
    21    8   11 1
    22    8   46 1
    23    9   10 1
    24    9   47 1
    25    9   48 1
    26   10   49 1
    27   10   50 1
    28   11   20 am
    29   11   12 1
    30   12   17 ar
    31   12   13 ar
    32   13   14 ar
    33   13   51 1
    34   14   15 ar
    35   14   52 1
    36   15   16 ar
    37   15   22 1
    38   16   17 ar
    39   16   53 1
    40   17   18 1
    41   18   19 1
    42   18   20 am
    43   20   21 2
    44   23   24 am
    45   23   54 1
    46   24   25 2
    47   24   26 1
    48   26   27 1
    49   26   29 1
    50   26   28 1
    51   28   29 1
    52   28   55 1
    53   28   56 1
    54   29   30 1
    55   29   31 1
    56   31   36 ar
    57   31   32 ar
    58   32   33 ar
    59   32   57 1
    60   33   34 ar
    61   33   58 1
    62   34   35 ar
    63   34   59 1
    64   35   36 ar
    65   35   60 1
    66   36   61 1
@<TRIPOS>MOLECULE
ZINC00538275
   62    66     0     0     0
SMALL
USER_CHARGES

@<TRIPOS>ATOM
      1 C1         -1.0560   -3.6471   -2.9834 C.ar      1 <0>        -0.0731
      2 C2         -0.5292   -3.8209   -4.2441 C.ar      1 <0>        -0.1418
      3 C3         -0.2617   -2.7179   -5.0458 C.ar      1 <0>         0.1273
      4 C4         -0.5240   -1.4352   -4.5802 C.ar      1 <0>        -0.1436
      5 C5         -1.0507   -1.2517   -3.3208 C.ar      1 <0>        -0.0726
      6 C6         -1.3215   -2.3585   -2.5107 C.ar      1 <0>        -0.0443
      7 C7         -1.8857   -2.1673   -1.1621 C.2       1 <0>        -0.0491
      8 C8         -1.4781   -2.7470    0.0324 C.2       1 <0>        -0.1672
      9 C9         -2.2084   -2.3914    1.2518 C.ar      1 <0>        -0.0733
     10 C10        -1.9811   -2.8478    2.5699 C.ar      1 <0>        -0.0620
     11 C11        -2.7636   -2.4131    3.6070 C.ar      1 <0>        -0.1362
     12 C12        -3.8034   -1.5118    3.3971 C.ar      1 <0>         0.1376
     13 C13        -4.0502   -1.0462    2.1156 C.ar      1 <0>        -0.0999
     14 C14        -3.2654   -1.4805    1.0680 C.ar      1 <0>        -0.1027
     15 S1         -3.2496   -1.1310   -0.6716 S.3       1 <0>         0.0989
     16 O1         -4.5695   -1.0928    4.4389 O.3       1 <0>        -0.4890
     17 C15        -0.3552   -3.6836    0.0717 C.2       1 <0>         0.4632
     18 O2         -0.5599   -4.8828    0.0108 O.2       1 <0>        -0.4303
     19 C16         1.0269   -3.1752    0.1852 C.ar      1 <0>        -0.1819
     20 C17         1.2584   -1.8082    0.3588 C.ar      1 <0>        -0.0197
     21 C18         2.5485   -1.3381    0.4641 C.ar      1 <0>        -0.1529
     22 C19         3.6196   -2.2215    0.3980 C.ar      1 <0>         0.1478
     23 C20         3.3936   -3.5820    0.2249 C.ar      1 <0>        -0.2153
     24 C21         2.1062   -4.0607    0.1249 C.ar      1 <0>        -0.0165
     25 O3          4.8897   -1.7543    0.5022 O.3       1 <0>        -0.3241
     26 C22         5.9433   -2.7167    0.4259 C.3       1 <0>         0.0227
     27 C23         7.2923   -2.0079    0.5623 C.3       1 <0>        -0.0010
     28 N1          7.3928   -1.3985    1.8951 N.4       1 <0>        -0.3845
     29 C24         8.6181   -0.5941    1.9726 C.3       1 <0>        -0.0072
     30 C25         8.6868    0.1080    3.3305 C.3       1 <0>        -0.1466
     31 C26         8.6938   -0.9442    4.4432 C.3       1 <0>        -0.1392
     32 C27         7.4482   -1.8247    4.3075 C.3       1 <0>        -0.1453
     33 C28         7.4253   -2.4551    2.9134 C.3       1 <0>        -0.0137
     34 O4          0.2580   -2.8940   -6.2879 O.3       1 <0>        -0.4983
     35 H1         -1.2677   -4.5052   -2.3627 H         1 <0>         0.1336
     36 H2         -0.3235   -4.8160   -4.6100 H         1 <0>         0.1374
     37 H3         -0.3141   -0.5808   -5.2066 H         1 <0>         0.1382
     38 H4         -1.2542   -0.2544   -2.9597 H         1 <0>         0.1348
     39 H5         -1.1813   -3.5477    2.7618 H         1 <0>         0.1270
     40 H6         -2.5705   -2.7766    4.6055 H         1 <0>         0.1391
     41 H7         -4.8538   -0.3469    1.9378 H         1 <0>         0.1433
     42 H8         -4.2357   -0.2987    4.8782 H         1 <0>         0.3978
     43 H9          0.4267   -1.1211    0.4099 H         1 <0>         0.1415
     44 H10         2.7283   -0.2816    0.5980 H         1 <0>         0.1408
     45 H11         4.2285   -4.2651    0.1733 H         1 <0>         0.1355
     46 H12         1.9312   -5.1186   -0.0043 H         1 <0>         0.1432
     47 H13         5.8313   -3.4427    1.2312 H         1 <0>         0.0893
     48 H14         5.8979   -3.2297   -0.5348 H         1 <0>         0.1127
     49 H15         8.0975   -2.7309    0.4318 H         1 <0>         0.1504
     50 H16         7.3737   -1.2321   -0.1990 H         1 <0>         0.1436
     51 H17         9.4861   -1.2428    1.8552 H         1 <0>         0.1295
     52 H18         8.6132    0.1521    1.1781 H         1 <0>         0.1314
     53 H19         9.5982    0.7032    3.3868 H         1 <0>         0.1133
     54 H20         7.8194    0.7572    3.4489 H         1 <0>         0.0880
     55 H21         9.5878   -1.5615    4.3556 H         1 <0>         0.0823
     56 H22         8.6856   -0.4483    5.4139 H         1 <0>         0.0949
     57 H23         7.4742   -2.6108    5.0621 H         1 <0>         0.1125
     58 H24         6.5550   -1.2155    4.4462 H         1 <0>         0.0878
     59 H25         6.5398   -3.0828    2.8135 H         1 <0>         0.1272
     60 H26         8.3188   -3.0642    2.7759 H         1 <0>         0.1308
     61 H27        -0.4076   -2.9906   -6.9827 H         1 <0>         0.3988
     62 H28         6.5925   -0.8047    2.0535 H         1 <0>         0.4291
@<TRIPOS>BOND
     1    1    6 ar
     2    1    2 ar
     3    1   35 1
     4    2    3 ar
     5    2   36 1
     6    3    4 ar
     7    3   34 1
     8    4    5 ar
     9    4   37 1
    10    5    6 ar
    11    5   38 1
    12    6    7 1
    13    7   15 1
    14    7    8 2
    15    8    9 1
    16    8   17 1
    17    9   14 ar
    18    9   10 ar
    19   10   11 ar
    20   10   39 1
    21   11   12 ar
    22   11   40 1
    23   12   13 ar
    24   12   16 1
    25   13   14 ar
    26   13   41 1
    27   14   15 1
    28   16   42 1
    29   17   18 2
    30   17   19 1
    31   19   24 ar
    32   19   20 ar
    33   20   21 ar
    34   20   43 1
    35   21   22 ar
    36   21   44 1
    37   22   23 ar
    38   22   25 1
    39   23   24 ar
    40   23   45 1
    41   24   46 1
    42   25   26 1
    43   26   27 1
    44   26   47 1
    45   26   48 1
    46   27   28 1
    47   27   49 1
    48   27   50 1
    49   28   33 1
    50   28   29 1
    51   28   62 1
    52   29   30 1
    53   29   51 1
    54   29   52 1
    55   30   31 1
    56   30   53 1
    57   30   54 1
    58   31   32 1
    59   31   55 1
    60   31   56 1
    61   32   33 1
    62   32   57 1
    63   32   58 1
    64   33   59 1
    65   33   60 1
    66   34   61 1
