@<TRIPOS>MOLECULE
ZINC00410207
   26    28     0     0     0
SMALL
USER_CHARGES
3-(2-iodophenyl)-4-oxa-2-azabicyclo[4.4.0]deca-2,7,9,11-tetraen-5-one
@<TRIPOS>ATOM
      1 C1          0.0282    4.1301    0.0249 C.ar      1 <0>        -0.1304
      2 C2         -1.1806    3.4467    0.0323 C.ar      1 <0>        -0.0668
      3 C3         -1.2131    2.0699    0.0305 C.ar      1 <0>        -0.0969
      4 C4         -0.0163    1.3506    0.0095 C.ar      1 <0>         0.1556
      5 C5          1.2126    2.0500    0.0015 C.ar      1 <0>        -0.2269
      6 C6          1.2228    3.4425    0.0093 C.ar      1 <0>        -0.0331
      7 C7          2.4534    1.2611   -0.0141 C.2       1 <0>         0.5287
      8 O1          3.5441    1.7994   -0.0216 O.2       1 <0>        -0.4356
      9 O2          2.3353   -0.0854   -0.0202 O.3       1 <0>        -0.3043
     10 C8          1.1256   -0.6706   -0.0123 C.2       1 <0>         0.3971
     11 N1          0.0021   -0.0041    0.0020 N.2       1 <0>        -0.4880
     12 C9          1.0629   -2.1460   -0.0196 C.ar      1 <0>        -0.0426
     13 C10         2.2396   -2.8981   -0.0348 C.ar      1 <0>        -0.0671
     14 C11         2.1737   -4.2756   -0.0417 C.ar      1 <0>        -0.1100
     15 C12         0.9454   -4.9133   -0.0334 C.ar      1 <0>        -0.0808
     16 C13        -0.2243   -4.1753   -0.0183 C.ar      1 <0>        -0.0920
     17 C14        -0.1735   -2.7958   -0.0055 C.ar      1 <0>        -0.0571
     18 I1         -1.9462   -1.6798    0.0262 I         1 <0>         0.0205
     19 H1          0.0324    5.2101    0.0310 H         1 <0>         0.1393
     20 H2         -2.1070    4.0018    0.0441 H         1 <0>         0.1400
     21 H3         -2.1592    1.5492    0.0407 H         1 <0>         0.1417
     22 H4          2.1597    3.9797    0.0036 H         1 <0>         0.1425
     23 H5          3.1989   -2.4021   -0.0417 H         1 <0>         0.1440
     24 H6          3.0830   -4.8582   -0.0531 H         1 <0>         0.1405
     25 H7          0.9000   -5.9924   -0.0384 H         1 <0>         0.1401
     26 H8         -1.1795   -4.6793   -0.0123 H         1 <0>         0.1414
@<TRIPOS>BOND
     1    1    6 ar
     2    1    2 ar
     3    1   19 1
     4    2    3 ar
     5    2   20 1
     6    3    4 ar
     7    3   21 1
     8    4   11 1
     9    4    5 ar
    10    5    6 ar
    11    5    7 1
    12    6   22 1
    13    7    8 2
    14    7    9 1
    15    9   10 1
    16   10   11 2
    17   10   12 1
    18   12   17 ar
    19   12   13 ar
    20   13   14 ar
    21   13   23 1
    22   14   15 ar
    23   14   24 1
    24   15   16 ar
    25   15   25 1
    26   16   17 ar
    27   16   26 1
    28   17   18 1
@<TRIPOS>MOLECULE
ZINC05732362
   38    40     0     0     0
SMALL
USER_CHARGES
2-(3,4-dihydroxyphenyl)-5-hydroxy-3,7-dimethoxy-chromen-4-one
@<TRIPOS>ATOM
      1 C1          0.4676    1.1352    0.2511 C.3       1 <0>         0.0176
      2 O1         -0.1973    1.5936    1.4300 O.3       1 <0>        -0.3002
      3 C2         -0.4598    2.9230    1.5122 C.ar      1 <0>         0.2396
      4 C3         -0.0809    3.7653    0.4720 C.ar      1 <0>        -0.2927
      5 C4         -0.3436    5.1203    0.5449 C.ar      1 <0>         0.3028
      6 C5         -0.9936    5.6376    1.6734 C.ar      1 <0>        -0.3566
      7 C6         -1.3754    4.7841    2.7231 C.ar      1 <0>         0.2238
      8 C7         -1.1077    3.4267    2.6289 C.ar      1 <0>        -0.2225
      9 O2         -2.0013    5.2903    3.8062 O.3       1 <0>        -0.2014
     10 C8         -2.2813    6.5993    3.9280 C.2       1 <0>         0.2026
     11 C9         -1.9539    7.5091    2.9680 C.2       1 <0>        -0.0929
     12 C10        -1.2925    7.0737    1.7905 C.2       1 <0>         0.4291
     13 O3         -0.9832    7.8598    0.9093 O.2       1 <0>        -0.4790
     14 O4         -2.2590    8.8245    3.1370 O.3       1 <0>        -0.2955
     15 C11        -3.4787    9.2876    2.5540 C.3       1 <0>         0.0255
     16 C12        -2.9687    7.0679    5.1454 C.ar      1 <0>        -0.0862
     17 C13        -4.1093    6.4039    5.6056 C.ar      1 <0>        -0.0705
     18 C14        -4.7501    6.8434    6.7440 C.ar      1 <0>        -0.1377
     19 C15        -4.2654    7.9444    7.4361 C.ar      1 <0>         0.1591
     20 C16        -3.1286    8.6114    6.9831 C.ar      1 <0>         0.0591
     21 C17        -2.4780    8.1739    5.8454 C.ar      1 <0>        -0.1110
     22 O5         -2.6569    9.6902    7.6637 O.3       1 <0>        -0.5169
     23 O6         -4.9005    8.3729    8.5583 O.3       1 <0>        -0.5015
     24 O7          0.0249    5.9436   -0.4691 O.3       1 <0>        -0.5025
     25 H1          0.6174    0.0473    0.3142 H         1 <0>         0.1103
     26 H2          1.4434    1.6352    0.1626 H         1 <0>         0.0651
     27 H3         -0.1462    1.3703   -0.6309 H         1 <0>         0.0650
     28 H4          0.4194    3.3594   -0.3948 H         1 <0>         0.1496
     29 H5         -1.4009    2.7621    3.4282 H         1 <0>         0.1550
     30 H6         -3.6016   10.3602    2.7645 H         1 <0>         0.0995
     31 H7         -4.3247    8.7305    2.9828 H         1 <0>         0.0468
     32 H8         -3.4486    9.1286    1.4660 H         1 <0>         0.0507
     33 H9         -4.4883    5.5464    5.0694 H         1 <0>         0.1384
     34 H10        -5.6314    6.3294    7.0986 H         1 <0>         0.1445
     35 H11        -1.5944    8.6872    5.4958 H         1 <0>         0.1419
     36 H12        -1.7597   10.2167    7.3063 H         1 <0>         0.4454
     37 H13        -4.5175    9.2454    9.1079 H         1 <0>         0.4447
     38 H14        -0.1862    7.0214   -0.4069 H         1 <0>         0.4513
@<TRIPOS>BOND
     1    1    2 1
     2    1   25 1
     3    1   26 1
     4    1   27 1
     5    2    3 1
     6    3    8 ar
     7    3    4 ar
     8    4    5 ar
     9    4   28 1
    10    5    6 ar
    11    5   24 1
    12    6   12 1
    13    6    7 ar
    14    7    8 ar
    15    7    9 1
    16    8   29 1
    17    9   10 1
    18   10   11 2
    19   10   16 1
    20   11   12 1
    21   11   14 1
    22   12   13 2
    23   14   15 1
    24   15   30 1
    25   15   31 1
    26   15   32 1
    27   16   21 ar
    28   16   17 ar
    29   17   18 ar
    30   17   33 1
    31   18   19 ar
    32   18   34 1
    33   19   20 ar
    34   19   23 1
    35   20   21 ar
    36   20   22 1
    37   21   35 1
    38   22   36 1
    39   23   37 1
    40   24   38 1
@<TRIPOS>MOLECULE
ZINC01009546
   33    35     0     0     0
SMALL
USER_CHARGES
3-allyl-5-[(6-nitrobenzo[1,3]dioxol-5-yl)methylene]-2-thioxo-thiazolidin-4-one
@<TRIPOS>ATOM
      1 C1          0.2351    1.8508    1.0912 C.2       1 <0>        -0.1369
      2 C2         -0.8875    1.1967    0.9239 C.2       1 <0>        -0.1941
      3 C3         -2.1664    1.9495    0.6619 C.3       1 <0>         0.1133
      4 N1         -2.7764    1.4596   -0.5767 N.am      1 <0>        -0.5177
      5 C4         -3.6335    0.4540   -0.5212 C.2       1 <0>         0.5445
      6 O1         -3.9292   -0.0765    0.5336 O.2       1 <0>        -0.4378
      7 C5         -4.2132    0.0071   -1.8036 C.2       1 <0>        -0.2109
      8 C6         -5.1050   -0.9860   -2.0507 C.2       1 <0>         0.0680
      9 C7         -5.6407   -1.1714   -3.4053 C.ar      1 <0>        -0.0093
     10 C8         -5.8466   -0.0637   -4.2373 C.ar      1 <0>        -0.0865
     11 C9         -6.3450   -0.2442   -5.5119 C.ar      1 <0>         0.0993
     12 C10        -6.6539   -1.5280   -5.9657 C.ar      1 <0>         0.0589
     13 C11        -6.4552   -2.6257   -5.1390 C.ar      1 <0>        -0.0388
     14 C12        -5.9528   -2.4553   -3.8676 C.ar      1 <0>        -0.0113
     15 N2         -5.7436   -3.6294   -2.9905 N.pl3     1 <0>         0.0311
     16 O2         -6.1196   -4.7313   -3.3479 O.2       1 <0>        -0.1307
     17 O3         -5.1953   -3.4934   -1.9114 O.3       1 <0>        -0.1520
     18 O4         -7.1304   -1.4350   -7.2407 O.3       1 <0>        -0.2885
     19 C13        -6.7267   -0.1350   -7.7091 C.3       1 <0>         0.2091
     20 O5         -6.6291    0.6485   -6.5051 O.3       1 <0>        -0.2876
     21 S1         -3.4171    1.1330   -2.9412 S.3       1 <0>         0.0574
     22 C14        -2.4554    2.0479   -1.7469 C.2       1 <0>         0.2759
     23 S2         -1.3833    3.3542   -2.0213 S.2       1 <0>        -0.3083
     24 H1          1.1525    1.3111    1.2745 H         1 <0>         0.1079
     25 H2          0.2433    2.9299    1.0457 H         1 <0>         0.1082
     26 H3         -0.8956    0.1177    0.9694 H         1 <0>         0.1151
     27 H4         -2.8555    1.7950    1.4922 H         1 <0>         0.1139
     28 H5         -1.9484    3.0129    0.5637 H         1 <0>         0.1178
     29 H6         -5.4206   -1.6397   -1.2511 H         1 <0>         0.1937
     30 H7         -5.6119    0.9294   -3.8838 H         1 <0>         0.1686
     31 H8         -6.6958   -3.6169   -5.4939 H         1 <0>         0.1765
     32 H9         -5.7596   -0.1913   -8.2087 H         1 <0>         0.1021
     33 H10        -7.4801    0.2822   -8.3773 H         1 <0>         0.1492
@<TRIPOS>BOND
     1    1    2 2
     2    1   24 1
     3    1   25 1
     4    2    3 1
     5    2   26 1
     6    3    4 1
     7    3   27 1
     8    3   28 1
     9    4   22 1
    10    4    5 am
    11    5    6 2
    12    5    7 1
    13    7    8 2
    14    7   21 1
    15    8    9 1
    16    8   29 1
    17    9   14 ar
    18    9   10 ar
    19   10   11 ar
    20   10   30 1
    21   11   20 1
    22   11   12 ar
    23   12   13 ar
    24   12   18 1
    25   13   14 ar
    26   13   31 1
    27   14   15 1
    28   15   16 2
    29   15   17 1
    30   18   19 1
    31   19   20 1
    32   19   32 1
    33   19   33 1
    34   21   22 1
    35   22   23 2
@<TRIPOS>MOLECULE
ZINC14813714
   34    36     0     0     0
SMALL
USER_CHARGES

@<TRIPOS>ATOM
      1 C1         -0.0173    1.4248    0.0099 C.3       1 <0>         0.0218
      2 O1          0.0021   -0.0041    0.0020 O.3       1 <0>        -0.3028
      3 C2          0.6051   -0.6064   -1.0546 C.ar      1 <0>         0.2104
      4 C3          1.1712    0.1708   -2.0594 C.ar      1 <0>        -0.2676
      5 C4          1.7883   -0.4323   -3.1396 C.ar      1 <0>         0.2426
      6 C5          1.8384   -1.8301   -3.2134 C.ar      1 <0>        -0.2917
      7 C6          2.4863   -2.5135   -4.3457 C.2       1 <0>         0.4249
      8 O2          3.0002   -1.8839   -5.2562 O.2       1 <0>        -0.4566
      9 C7          2.4900   -3.9284   -4.3366 C.2       1 <0>        -0.3050
     10 C8          1.9070   -4.5939   -3.3034 C.2       1 <0>         0.2053
     11 O3          1.3189   -3.9595   -2.2767 O.3       1 <0>        -0.2171
     12 C9          1.2655   -2.6131   -2.1966 C.ar      1 <0>         0.2049
     13 C10         0.6558   -1.9902   -1.1186 C.ar      1 <0>        -0.1906
     14 C11         1.9210   -6.0689   -3.3116 C.ar      1 <0>        -0.0649
     15 C12         2.5302   -6.7577   -4.3640 C.ar      1 <0>        -0.0711
     16 C13         2.5427   -8.1358   -4.3697 C.ar      1 <0>        -0.1309
     17 C14         1.9511   -8.8428   -3.3318 C.ar      1 <0>         0.1090
     18 C15         1.3413   -8.1623   -2.2793 C.ar      1 <0>         0.0793
     19 C16         1.3301   -6.7809   -2.2640 C.ar      1 <0>        -0.0906
     20 O4          0.7620   -8.8583   -1.2646 O.3       1 <0>        -0.4829
     21 O5          1.9662  -10.2012   -3.3423 O.3       1 <0>        -0.4848
     22 O6          2.3408    0.3244   -4.1214 O.3       1 <0>        -0.4737
     23 H1          1.0053    1.8021    0.0021 H         1 <0>         0.0626
     24 H2         -0.5445    1.7859   -0.8732 H         1 <0>         0.0634
     25 H3         -0.5275    1.7763    0.9067 H         1 <0>         0.1090
     26 H4          1.1283    1.2481   -1.9959 H         1 <0>         0.1493
     27 H5          2.9522   -4.4762   -5.1444 H         1 <0>         0.1641
     28 H6          0.2166   -2.5834   -0.3302 H         1 <0>         0.1553
     29 H7          2.9908   -6.2101   -5.1729 H         1 <0>         0.1450
     30 H8          3.0135   -8.6669   -5.1837 H         1 <0>         0.1465
     31 H9          0.8618   -6.2524   -1.4468 H         1 <0>         0.1471
     32 H10         1.3602   -9.0547   -0.5306 H         1 <0>         0.3915
     33 H11         2.7366  -10.5893   -2.9053 H         1 <0>         0.3944
     34 H12         3.2692    0.5485   -3.9699 H         1 <0>         0.4038
@<TRIPOS>BOND
     1    1    2 1
     2    1   23 1
     3    1   24 1
     4    1   25 1
     5    2    3 1
     6    3   13 ar
     7    3    4 ar
     8    4    5 ar
     9    4   26 1
    10    5    6 ar
    11    5   22 1
    12    6   12 ar
    13    6    7 1
    14    7    8 2
    15    7    9 1
    16    9   10 2
    17    9   27 1
    18   10   11 1
    19   10   14 1
    20   11   12 1
    21   12   13 ar
    22   13   28 1
    23   14   19 ar
    24   14   15 ar
    25   15   16 ar
    26   15   29 1
    27   16   17 ar
    28   16   30 1
    29   17   18 ar
    30   17   21 1
    31   18   19 ar
    32   18   20 1
    33   19   31 1
    34   20   32 1
    35   21   33 1
    36   22   34 1
@<TRIPOS>MOLECULE
ZINC03777328
   64    65     0     0     0
SMALL
USER_CHARGES
N-(1-formyl-4-guanidino-butyl)-1-(2-methylamino-3-phenyl-propanoyl)-pyrrolidine-2-carboxamide
@<TRIPOS>ATOM
      1 C1         -1.1006   11.6463   -1.5224 C.3       1 <0>        -0.0461
      2 C2         -0.9630   11.2349    0.8596 C.3       1 <0>         0.0169
      3 H1         -1.8685   11.8411    0.8348 H         1 <0>         0.1593
      4 C3         -0.1070   11.6456    2.0594 C.3       1 <0>        -0.0917
      5 C4          0.1631   13.1271    2.0002 C.ar      1 <0>        -0.1306
      6 C5          1.2821   13.5998    1.3406 C.ar      1 <0>        -0.1429
      7 C6          1.5270   14.9590    1.2817 C.ar      1 <0>        -0.1028
      8 C7          0.6589   15.8448    1.8922 C.ar      1 <0>        -0.0988
      9 C8         -0.4574   15.3717    2.5563 C.ar      1 <0>        -0.1020
     10 C9         -0.7053   14.0129    2.6102 C.ar      1 <0>        -0.1030
     11 C10        -1.3357    9.7799    0.9830 C.2       1 <0>         0.5339
     12 O1         -0.6480    8.9310    0.4564 O.2       1 <0>        -0.5146
     13 N1         -2.4332    9.4221    1.6787 N.am      1 <0>        -0.5806
     14 C11        -3.3535   10.3459    2.3665 C.3       1 <0>         0.0813
     15 C12        -4.0211    9.4904    3.4720 C.3       1 <0>        -0.1308
     16 C13        -4.1772    8.1228    2.7560 C.3       1 <0>        -0.1285
     17 C14        -2.9104    8.0459    1.8779 C.3       1 <0>         0.1215
     18 H2         -2.1435    7.4566    2.3804 H         1 <0>         0.1120
     19 C15        -3.2460    7.4222    0.5477 C.2       1 <0>         0.5198
     20 O2         -3.1031    8.0595   -0.4742 O.2       1 <0>        -0.5250
     21 N2         -3.7051    6.1561    0.4937 N.am      1 <0>        -0.7157
     22 C16        -4.0313    5.5498   -0.7994 C.3       1 <0>         0.0934
     23 H3         -3.3938    5.8829   -1.4941 H         1 <0>         0.1097
     24 C17        -3.9188    4.0277   -0.6920 C.3       1 <0>        -0.1228
     25 C18        -2.4636    3.6418   -0.4196 C.3       1 <0>        -0.1314
     26 C19        -2.3512    2.1198   -0.3120 C.3       1 <0>         0.0917
     27 N3         -0.9577    1.7502   -0.0513 N.pl3     1 <0>        -0.7015
     28 C20        -0.6115    0.4267    0.0849 C.cat     1 <0>         0.7402
     29 N4          0.6971    0.0796    0.3240 N.pl3     1 <0>        -0.8052
     30 C21        -5.4384    5.9233   -1.1887 C.2       1 <0>         0.3242
     31 O3         -6.1004    6.6237   -0.4610 O.2       1 <0>        -0.4336
     32 H4         -1.7933   10.8080   -1.5941 H         1 <0>         0.1248
     33 H5         -1.6614   12.5704   -1.3827 H         1 <0>         0.1257
     34 H6         -0.5140   11.7124   -2.4389 H         1 <0>         0.1325
     35 H7         -0.6374   11.4096    2.9820 H         1 <0>         0.1230
     36 H8          0.8379   11.1028    2.0345 H         1 <0>         0.1070
     37 H9          1.9630   12.9075    0.8678 H         1 <0>         0.1239
     38 H10         2.3990   15.3287    0.7626 H         1 <0>         0.1351
     39 H11         0.8526   16.9065    1.8500 H         1 <0>         0.1355
     40 H12        -1.1357   16.0637    3.0331 H         1 <0>         0.1356
     41 H13        -1.5773   13.6432    3.1294 H         1 <0>         0.1298
     42 H14        -2.7994   11.1733    2.8098 H         1 <0>         0.0903
     43 H15        -4.1047   10.7206    1.6713 H         1 <0>         0.0881
     44 H16        -3.3726    9.4033    4.3438 H         1 <0>         0.0897
     45 H17        -4.9924    9.8998    3.7496 H         1 <0>         0.1035
     46 H18        -5.0756    8.1109    2.1388 H         1 <0>         0.0942
     47 H19        -4.1946    7.3082    3.4801 H         1 <0>         0.1022
     48 H20        -3.8194    5.6464    1.3110 H         1 <0>         0.4059
     49 H21        -4.2467    3.5723   -1.6264 H         1 <0>         0.1024
     50 H22        -4.5476    3.6737    0.1251 H         1 <0>         0.0872
     51 H23        -2.1357    4.0972    0.5149 H         1 <0>         0.0828
     52 H24        -1.8348    3.9957   -1.2365 H         1 <0>         0.0868
     53 H25        -2.6790    1.6643   -1.2465 H         1 <0>         0.0960
     54 H26        -2.9800    1.7658    0.5049 H         1 <0>         0.0946
     55 H27        -0.2787    2.4390    0.0213 H         1 <0>         0.4328
     56 H28        -1.3784   -1.4601    0.0685 H         1 <0>         0.4538
     57 H29         1.3761    0.7684    0.3966 H         1 <0>         0.4401
     58 H30         0.9414   -0.8543    0.4201 H         1 <0>         0.4409
     59 H31        -5.8548    5.5646   -2.1184 H         1 <0>         0.1125
     60 N5         -0.1904   11.4419   -0.3798 N.4       1 <0>        -0.5078
     61 H32         0.4084   12.2689   -0.2715 H         1 <0>         0.4350
     62 H33         0.3945   10.6166   -0.5561 H         1 <0>         0.4390
     63 N6         -1.5851   -0.4656   -0.0249 N.pl3     1 <0>        -0.7942
     64 H34        -2.5475   -0.1559   -0.2040 H         1 <0>         0.4551
@<TRIPOS>BOND
     1    1   32 1
     2    1   33 1
     3    1   34 1
     4    1   60 1
     5    2    3 1
     6    2    4 1
     7    2   11 1
     8    2   60 1
     9    4    5 1
    10    4   35 1
    11    4   36 1
    12    5   10 ar
    13    5    6 ar
    14    6    7 ar
    15    6   37 1
    16    7    8 ar
    17    7   38 1
    18    8    9 ar
    19    8   39 1
    20    9   10 ar
    21    9   40 1
    22   10   41 1
    23   11   12 2
    24   11   13 am
    25   13   17 1
    26   13   14 1
    27   14   15 1
    28   14   42 1
    29   14   43 1
    30   15   16 1
    31   15   44 1
    32   15   45 1
    33   16   17 1
    34   16   46 1
    35   16   47 1
    36   17   18 1
    37   17   19 1
    38   19   20 2
    39   19   21 am
    40   21   22 1
    41   21   48 1
    42   22   23 1
    43   22   24 1
    44   22   30 1
    45   24   25 1
    46   24   49 1
    47   24   50 1
    48   25   26 1
    49   25   51 1
    50   25   52 1
    51   26   27 1
    52   26   53 1
    53   26   54 1
    54   27   28 1
    55   27   55 1
    56   28   29 1
    57   28   63 2
    58   29   57 1
    59   29   58 1
    60   30   31 2
    61   30   59 1
    62   56   63 1
    63   60   61 1
    64   60   62 1
    65   63   64 1
@<TRIPOS>MOLECULE
ZINC00001763
   45    47     0     0     0
SMALL
USER_CHARGES

@<TRIPOS>ATOM
      1 C1          0.4307    0.2502    2.0676 C.ar      1 <0>        -0.0153
      2 C2          1.6219    0.9331    2.1617 C.ar      1 <0>        -0.1193
      3 C3          2.6604    0.6489    1.2801 C.ar      1 <0>         0.1435
      4 C4          2.4990   -0.3267    0.3008 C.ar      1 <0>        -0.1724
      5 C5          1.3106   -1.0136    0.2008 C.ar      1 <0>        -0.0246
      6 C6          0.2649   -0.7307    1.0849 C.ar      1 <0>        -0.1135
      7 C7         -1.0096   -1.4644    0.9809 C.2       1 <0>         0.5087
      8 O1         -1.9176   -1.2170    1.7498 O.2       1 <0>        -0.4667
      9 O2         -1.1677   -2.4095    0.0332 O.3       1 <0>        -0.2923
     10 C8         -2.3923   -2.9828   -0.0978 C.ar      1 <0>         0.1259
     11 C9         -3.4217   -2.2783   -0.7313 C.ar      1 <0>        -0.1152
     12 C10        -4.6566   -2.8272   -0.8764 C.ar      1 <0>        -0.0682
     13 C11        -4.9108   -4.1213   -0.3857 C.ar      1 <0>        -0.0654
     14 C12        -6.1763   -4.7102   -0.5232 C.ar      1 <0>        -0.0099
     15 C13        -6.3918   -5.9856   -0.0291 C.ar      1 <0>        -0.1471
     16 C14        -5.3542   -6.6900    0.6072 C.ar      1 <0>        -0.0871
     17 C15        -4.1234   -6.1364    0.7499 C.ar      1 <0>        -0.0773
     18 C16        -3.8721   -4.8419    0.2575 C.ar      1 <0>        -0.0011
     19 C17        -2.6050   -4.2525    0.3893 C.ar      1 <0>        -0.1091
     20 C18        -7.7236   -6.6117   -0.1711 C.cat     1 <0>         0.5988
     21 N1         -7.9368   -7.8384    0.3023 N.pl3     1 <0>        -0.7582
     22 N2         -8.7104   -5.9491   -0.7725 N.pl3     1 <0>        -0.7622
     23 N3          3.8650    1.3431    1.3778 N.pl3     1 <0>        -0.6394
     24 C19         5.0543    0.6734    1.2516 C.cat     1 <0>         0.7482
     25 N4          6.2001    1.3513    1.2200 N.pl3     1 <0>        -0.7807
     26 N5          5.0638   -0.6552    1.1604 N.pl3     1 <0>        -0.7908
     27 H1         -0.3734    0.4685    2.7547 H         1 <0>         0.1604
     28 H2          1.7507    1.6909    2.9204 H         1 <0>         0.1556
     29 H3          3.3071   -0.5447   -0.3817 H         1 <0>         0.1475
     30 H4          1.1857   -1.7701   -0.5598 H         1 <0>         0.1596
     31 H5         -3.2326   -1.2847   -1.1100 H         1 <0>         0.1435
     32 H6         -5.4416   -2.2709   -1.3671 H         1 <0>         0.1506
     33 H7         -6.9764   -4.1730   -1.0105 H         1 <0>         0.1463
     34 H8         -5.5392   -7.6838    0.9873 H         1 <0>         0.1398
     35 H9         -3.3365   -6.6892    1.2415 H         1 <0>         0.1528
     36 H10        -1.8032   -4.7903    0.8733 H         1 <0>         0.1514
     37 H11        -7.2183   -8.3209    0.7403 H         1 <0>         0.4450
     38 H12        -8.5551   -5.0558   -1.1173 H         1 <0>         0.4433
     39 H13        -9.5841   -6.3598   -0.8657 H         1 <0>         0.4357
     40 H14         3.8617    2.3003    1.5351 H         1 <0>         0.4483
     41 H15         6.1931    2.3190    1.2864 H         1 <0>         0.4449
     42 H16         4.2274   -1.1445    1.1178 H         1 <0>         0.4412
     43 H17         5.9073   -1.1336    1.1367 H         1 <0>         0.4432
     44 H18        -8.8106   -8.2492    0.2091 H         1 <0>         0.4352
     45 H19         7.0417    0.8773    1.1307 H         1 <0>         0.4465
@<TRIPOS>BOND
     1    1    6 ar
     2    1    2 ar
     3    1   27 1
     4    2    3 ar
     5    2   28 1
     6    3    4 ar
     7    3   23 1
     8    4    5 ar
     9    4   29 1
    10    5    6 ar
    11    5   30 1
    12    6    7 1
    13    7    8 2
    14    7    9 1
    15    9   10 1
    16   10   19 ar
    17   10   11 ar
    18   11   12 ar
    19   11   31 1
    20   12   13 ar
    21   12   32 1
    22   13   18 ar
    23   13   14 ar
    24   14   15 ar
    25   14   33 1
    26   15   16 ar
    27   15   20 1
    28   16   17 ar
    29   16   34 1
    30   17   18 ar
    31   17   35 1
    32   18   19 ar
    33   19   36 1
    34   20   21 2
    35   20   22 1
    36   21   37 1
    37   21   44 1
    38   22   38 1
    39   22   39 1
    40   23   24 1
    41   23   40 1
    42   24   25 2
    43   24   26 1
    44   25   41 1
    45   25   45 1
    46   26   42 1
    47   26   43 1
@<TRIPOS>MOLECULE
ZINC03936607
   57    60     0     0     0
SMALL
USER_CHARGES

@<TRIPOS>ATOM
      1 C1         -0.0173    1.4248    0.0099 C.3       1 <0>         0.0244
      2 O1          0.0021   -0.0041    0.0020 O.3       1 <0>        -0.3145
      3 C2          0.6057   -0.6070   -1.0556 C.ar      1 <0>         0.1266
      4 C3          1.1742    0.1768   -2.0647 C.ar      1 <0>        -0.1670
      5 C4          1.7851   -0.3974   -3.1353 C.ar      1 <0>        -0.0816
      6 C5          1.8489   -1.7984   -3.2331 C.ar      1 <0>        -0.0381
      7 C6          2.4730   -2.4247   -4.3253 C.ar      1 <0>        -0.1076
      8 C7          2.5170   -3.7836   -4.3878 C.ar      1 <0>        -0.0476
      9 C8          1.9516   -4.5670   -3.3833 C.ar      1 <0>        -0.6460
     10 C9          1.3390   -3.9957   -2.3107 C.ar      1 <0>         0.0242
     11 C10         1.2739   -2.5950   -2.2114 C.ar      1 <0>        -0.0294
     12 C11         0.6543   -1.9705   -1.1164 C.ar      1 <0>        -0.1402
     13 S1          2.0305   -6.3231   -3.5041 S.o2      1 <0>         2.6870
     14 O2          0.9575   -6.8325   -2.7241 O.2       1 <0>        -0.9476
     15 O3          2.1818   -6.6288   -4.8836 O.2       1 <0>        -0.9485
     16 N1          3.4283   -6.8029   -2.7569 N.pl3     1 <0>        -1.0969
     17 C12         3.5963   -6.5979   -1.3161 C.3       1 <0>         0.1162
     18 H1          2.6253   -6.5357   -0.8248 H         1 <0>         0.1341
     19 C13         4.4414   -7.7380   -0.7021 C.3       1 <0>        -0.1337
     20 C14         5.2643   -6.9811    0.3639 C.3       1 <0>         0.0980
     21 N2          5.3375   -5.5941   -0.1101 N.am      1 <0>        -0.6148
     22 C15         4.4053   -5.3476   -1.0500 C.2       1 <0>         0.5017
     23 O4          4.2392   -4.2817   -1.6041 O.2       1 <0>        -0.5013
     24 C16         6.2997   -4.6033    0.3786 C.3       1 <0>         0.1597
     25 C17         7.5480   -4.6572   -0.4640 C.ar      1 <0>        -0.1016
     26 C18         8.5833   -5.5045   -0.1108 C.ar      1 <0>        -0.0414
     27 C19         9.7323   -5.5598   -0.8790 C.ar      1 <0>        -0.1120
     28 C20         9.8529   -4.7687   -2.0032 C.ar      1 <0>        -0.0571
     29 C21         8.8127   -3.9124   -2.3647 C.ar      1 <0>        -0.1595
     30 C22         7.6537   -3.8658   -1.5890 C.ar      1 <0>        -0.0417
     31 C23         8.9356   -3.0611   -3.5687 C.cat     1 <0>         0.6019
     32 N3         10.1336   -2.6345   -3.9630 N.pl3     1 <0>        -0.7591
     33 N4          7.8481   -2.7216   -4.2579 N.pl3     1 <0>        -0.7571
     34 H2          1.0053    1.8021    0.0021 H         1 <0>         0.0562
     35 H3         -0.5445    1.7859   -0.8732 H         1 <0>         0.0584
     36 H4         -0.5275    1.7763    0.9067 H         1 <0>         0.1056
     37 H5          1.1270    1.2534   -1.9928 H         1 <0>         0.1353
     38 H6          2.2191    0.2203   -3.9076 H         1 <0>         0.1344
     39 H7          2.9152   -1.8307   -5.1114 H         1 <0>         0.1294
     40 H8          2.9971   -4.2621   -5.2286 H         1 <0>         0.1322
     41 H9          0.9049   -4.6153   -1.5399 H         1 <0>         0.1398
     42 H10         0.2157   -2.5652   -0.3288 H         1 <0>         0.1396
     43 H11         4.1358   -7.2198   -3.2732 H         1 <0>         0.4220
     44 H12         3.8033   -8.4912   -0.2400 H         1 <0>         0.1095
     45 H13         5.0931   -8.1875   -1.4514 H         1 <0>         0.0944
     46 H14         4.7606   -7.0237    1.3296 H         1 <0>         0.0867
     47 H15         6.2648   -7.4069    0.4404 H         1 <0>         0.0858
     48 H16         5.8605   -3.6078    0.3141 H         1 <0>         0.1007
     49 H17         6.5519   -4.8226    1.4161 H         1 <0>         0.1028
     50 H18         8.4940   -6.1251    0.7686 H         1 <0>         0.1450
     51 H19        10.5369   -6.2231   -0.5981 H         1 <0>         0.1497
     52 H20        10.7508   -4.8122   -2.6018 H         1 <0>         0.1403
     53 H21         6.8430   -3.2083   -1.8663 H         1 <0>         0.1424
     54 H22        10.9259   -2.8818   -3.4609 H         1 <0>         0.4461
     55 H23         6.9753   -3.0324   -3.9706 H         1 <0>         0.4478
     56 H24         7.9286   -2.1636   -5.0471 H         1 <0>         0.4333
     57 H25        10.2142   -2.0764   -4.7523 H         1 <0>         0.4334
@<TRIPOS>BOND
     1    1    2 1
     2    1   34 1
     3    1   35 1
     4    1   36 1
     5    2    3 1
     6    3   12 ar
     7    3    4 ar
     8    4    5 ar
     9    4   37 1
    10    5    6 ar
    11    5   38 1
    12    6   11 ar
    13    6    7 ar
    14    7    8 ar
    15    7   39 1
    16    8    9 ar
    17    8   40 1
    18    9   10 ar
    19    9   13 1
    20   10   11 ar
    21   10   41 1
    22   11   12 ar
    23   12   42 1
    24   13   14 2
    25   13   15 2
    26   13   16 1
    27   16   17 1
    28   16   43 1
    29   17   18 1
    30   17   22 1
    31   17   19 1
    32   19   20 1
    33   19   44 1
    34   19   45 1
    35   20   21 1
    36   20   46 1
    37   20   47 1
    38   21   22 am
    39   21   24 1
    40   22   23 2
    41   24   25 1
    42   24   48 1
    43   24   49 1
    44   25   30 ar
    45   25   26 ar
    46   26   27 ar
    47   26   50 1
    48   27   28 ar
    49   27   51 1
    50   28   29 ar
    51   28   52 1
    52   29   30 ar
    53   29   31 1
    54   30   53 1
    55   31   32 2
    56   31   33 1
    57   32   54 1
    58   32   57 1
    59   33   55 1
    60   33   56 1
@<TRIPOS>MOLECULE
ZINC01910616
   60    63     0     0     0
SMALL
USER_CHARGES
3-[[2-[(4-amidinophenyl)aminomethyl]-1-methyl-benzoimidazol-5-yl]carbonyl-(2-pyridyl)amino]propanoic acid
@<TRIPOS>ATOM
      1 C1          0.5865   -1.8473    1.7596 C.3       1 <0>         0.0728
      2 N1         -0.0011   -1.5841    3.0754 N.pl3     1 <0>        -0.4807
      3 C2          0.6873   -1.4122    4.2568 C.ar      1 <0>         0.0845
      4 C3          2.0357   -1.4239    4.5969 C.ar      1 <0>        -0.1121
      5 C4          2.4180   -1.2162    5.8900 C.ar      1 <0>        -0.0691
      6 C5          1.4591   -0.9894    6.8866 C.ar      1 <0>        -0.1346
      7 C6          0.1055   -0.9743    6.5647 C.ar      1 <0>         0.0074
      8 C7         -0.2888   -1.1862    5.2445 C.ar      1 <0>         0.0276
      9 N2         -1.4970   -1.2314    4.6247 N.2       1 <0>        -0.4522
     10 C8         -1.3270   -1.4583    3.3553 C.2       1 <0>         0.2306
     11 C9         -2.4371   -1.5695    2.3423 C.3       1 <0>         0.2000
     12 N3         -2.8760   -2.9642    2.2500 N.pl3     1 <0>        -0.7081
     13 C10        -3.8991   -3.3156    1.3732 C.ar      1 <0>         0.2903
     14 C11        -4.5076   -2.3402    0.5894 C.ar      1 <0>        -0.2017
     15 C12        -5.5157   -2.6860   -0.2827 C.ar      1 <0>         0.0008
     16 C13        -5.9350   -4.0149   -0.3716 C.ar      1 <0>        -0.2332
     17 C14        -5.3265   -4.9907    0.4201 C.ar      1 <0>        -0.0066
     18 C15        -4.3149   -4.6405    1.2864 C.ar      1 <0>        -0.1916
     19 C16        -7.0210   -4.3881   -1.3031 C.cat     1 <0>         0.6028
     20 N4         -7.6208   -3.4237   -2.0842 N.pl3     1 <0>        -0.7922
     21 C17         1.8864   -0.7664    8.2821 C.2       1 <0>         0.5708
     22 O1          1.2765    0.0138    8.9873 O.2       1 <0>        -0.5153
     23 N5          2.9525   -1.4280    8.7743 N.am      1 <0>        -0.5330
     24 C18         3.8077   -2.2092    7.8774 C.3       1 <0>         0.0980
     25 C19         5.0983   -1.4353    7.6010 C.3       1 <0>        -0.1787
     26 C20         5.9781   -2.2389    6.6784 C.2       1 <0>         0.4674
     27 O2          5.6107   -3.3197    6.2826 O.co2     1 <0>        -0.6418
     28 C21         3.2412   -1.3688   10.1360 C.ar      1 <0>         0.3587
     29 C22         2.2767   -0.9077   11.0253 C.ar      1 <0>        -0.1939
     30 C23         2.5746   -0.8598   12.3755 C.ar      1 <0>        -0.0597
     31 C24         3.8359   -1.2656   12.7904 C.ar      1 <0>        -0.2031
     32 C25         4.7469   -1.7068   11.8515 C.ar      1 <0>         0.1276
     33 N6          4.4328   -1.7471   10.5707 N.ar      1 <0>        -0.4989
     34 H1          0.6785   -2.9233    1.6114 H         1 <0>         0.0794
     35 H2          1.5730   -1.3872    1.7035 H         1 <0>         0.0947
     36 H3         -0.0549   -1.4275    0.9847 H         1 <0>         0.0858
     37 H4          2.7819   -1.5982    3.8358 H         1 <0>         0.1371
     38 H5          3.4668   -1.2268    6.1473 H         1 <0>         0.1711
     39 H6         -0.6342   -0.7993    7.3319 H         1 <0>         0.1440
     40 H7         -3.2751   -0.9447    2.6514 H         1 <0>         0.1102
     41 H8         -2.0757   -1.2372    1.3692 H         1 <0>         0.0941
     42 H9         -2.4539   -3.6429    2.7996 H         1 <0>         0.4168
     43 H10        -4.1860   -1.3117    0.6618 H         1 <0>         0.1452
     44 H11        -5.9847   -1.9293   -0.8940 H         1 <0>         0.1350
     45 H12        -5.6487   -6.0194    0.3530 H         1 <0>         0.1335
     46 H13        -3.8437   -5.3951    1.8989 H         1 <0>         0.1452
     47 H14        -8.1155   -5.9726   -1.9664 H         1 <0>         0.4390
     48 H15        -7.3305   -2.5003   -2.0228 H         1 <0>         0.4401
     49 H16        -8.3332   -3.6685   -2.6952 H         1 <0>         0.4268
     50 H17         4.0496   -3.1634    8.3456 H         1 <0>         0.0897
     51 H18         3.2830   -2.3876    6.9389 H         1 <0>         0.1112
     52 H19         4.8566   -0.4811    7.1328 H         1 <0>         0.0627
     53 H20         5.6231   -1.2568    8.5395 H         1 <0>         0.0925
     54 H21         1.3068   -0.5952   10.6673 H         1 <0>         0.1662
     55 H22         1.8440   -0.5105   13.0902 H         1 <0>         0.1341
     56 H23         4.1018   -1.2361   13.8368 H         1 <0>         0.1331
     57 H24         5.7293   -2.0235   12.1695 H         1 <0>         0.1595
     58 N7         -7.3714   -5.6657   -1.3399 N.pl3     1 <0>        -0.7722
     59 H25        -6.8937   -6.3465   -0.7377 H         1 <0>         0.4572
     60 O3          7.1701   -1.7540    6.2963 O.co2     1 <0>        -0.7646
@<TRIPOS>BOND
     1    1    2 1
     2    1   34 1
     3    1   35 1
     4    1   36 1
     5    2   10 1
     6    2    3 1
     7    3    8 ar
     8    3    4 ar
     9    4    5 ar
    10    4   37 1
    11    5    6 ar
    12    5   38 1
    13    6    7 ar
    14    6   21 1
    15    7    8 ar
    16    7   39 1
    17    8    9 1
    18    9   10 2
    19   10   11 1
    20   11   12 1
    21   11   40 1
    22   11   41 1
    23   12   13 1
    24   12   42 1
    25   13   18 ar
    26   13   14 ar
    27   14   15 ar
    28   14   43 1
    29   15   16 ar
    30   15   44 1
    31   16   17 ar
    32   16   19 1
    33   17   18 ar
    34   17   45 1
    35   18   46 1
    36   19   20 1
    37   19   58 2
    38   20   48 1
    39   20   49 1
    40   21   22 2
    41   21   23 am
    42   23   24 1
    43   23   28 1
    44   24   25 1
    45   24   50 1
    46   24   51 1
    47   25   26 1
    48   25   52 1
    49   25   53 1
    50   26   27 2
    51   26   60 1
    52   28   33 ar
    53   28   29 ar
    54   29   30 ar
    55   29   54 1
    56   30   31 ar
    57   30   55 1
    58   31   32 ar
    59   31   56 1
    60   32   33 ar
    61   32   57 1
    62   47   58 1
    63   58   59 1
@<TRIPOS>MOLECULE
ZINC13800223
   53    56     0     0     0
SMALL
USER_CHARGES

@<TRIPOS>ATOM
      1 C1         -0.0164    1.3567    0.0095 C.ar      1 <0>        -0.0981
      2 C2          1.1686    2.0905    0.0021 C.ar      1 <0>        -0.1223
      3 C3          2.3785    1.4675   -0.0131 C.ar      1 <0>        -0.0994
      4 C4          2.4375    0.0634   -0.0211 C.ar      1 <0>        -0.0741
      5 C5          3.6681   -0.6153   -0.0364 C.ar      1 <0>         0.0203
      6 C6          3.6865   -1.9761   -0.0434 C.ar      1 <0>        -0.6500
      7 C7          2.5015   -2.7098   -0.0357 C.ar      1 <0>        -0.0328
      8 C8          1.2917   -2.0868   -0.0209 C.ar      1 <0>        -0.1097
      9 C9          1.2327   -0.6827   -0.0133 C.ar      1 <0>        -0.0054
     10 C10         0.0021   -0.0041    0.0020 C.ar      1 <0>        -0.1150
     11 S1          5.2315   -2.8230   -0.0631 S.o2      1 <0>         2.6871
     12 O1          4.9835   -4.1075   -0.6179 O.2       1 <0>        -0.9454
     13 O2          6.1807   -1.9234   -0.6189 O.2       1 <0>        -0.9510
     14 N1          5.6766   -3.0663    1.5133 N.pl3     1 <0>        -1.0973
     15 C11         4.8732   -3.9368    2.3753 C.3       1 <0>         0.1171
     16 H1          4.3135   -4.6545    1.7756 H         1 <0>         0.1348
     17 C12         5.7752   -4.6703    3.3949 C.3       1 <0>        -0.1341
     18 C13         4.8743   -4.6980    4.6495 C.3       1 <0>         0.0980
     19 N2          3.9612   -3.5586    4.5012 N.am      1 <0>        -0.6148
     20 C14         3.9342   -3.1146    3.2303 C.2       1 <0>         0.5023
     21 O3          3.2589   -2.1905    2.8291 O.2       1 <0>        -0.5021
     22 C15         3.1772   -2.9798    5.5951 C.3       1 <0>         0.1596
     23 C16         3.9746   -1.8888    6.2621 C.ar      1 <0>        -0.1018
     24 C17         4.8093   -2.1938    7.3227 C.ar      1 <0>        -0.0413
     25 C18         5.5446   -1.1980    7.9403 C.ar      1 <0>        -0.1120
     26 C19         5.4493    0.1069    7.5018 C.ar      1 <0>        -0.0570
     27 C20         4.6096    0.4208    6.4330 C.ar      1 <0>        -0.1595
     28 C21         3.8752   -0.5892    5.8104 C.ar      1 <0>        -0.0419
     29 C22         4.5023    1.8181    5.9580 C.cat     1 <0>         0.6019
     30 N3          4.6729    2.8261    6.8110 N.pl3     1 <0>        -0.7589
     31 N4          4.2352    2.0674    4.6777 N.pl3     1 <0>        -0.7570
     32 H2         -0.9633    1.8757    0.0259 H         1 <0>         0.1280
     33 H3          1.1260    3.1696    0.0083 H         1 <0>         0.1263
     34 H4          3.2884    2.0491   -0.0194 H         1 <0>         0.1285
     35 H5          4.5943   -0.0599   -0.0428 H         1 <0>         0.1387
     36 H6          2.5441   -3.7890   -0.0419 H         1 <0>         0.1331
     37 H7          0.3816   -2.6684   -0.0154 H         1 <0>         0.1333
     38 H8         -0.9241   -0.5595    0.0082 H         1 <0>         0.1322
     39 H9          6.4692   -2.6324    1.8660 H         1 <0>         0.4216
     40 H10         6.0043   -5.6809    3.0568 H         1 <0>         0.1096
     41 H11         6.6891   -4.1070    3.5833 H         1 <0>         0.0942
     42 H12         4.3109   -5.6303    4.6888 H         1 <0>         0.0868
     43 H13         5.4779   -4.5830    5.5499 H         1 <0>         0.0859
     44 H14         2.2520   -2.5625    5.1977 H         1 <0>         0.1008
     45 H15         2.9423   -3.7556    6.3239 H         1 <0>         0.1030
     46 H16         4.8868   -3.2134    7.6701 H         1 <0>         0.1451
     47 H17         6.1944   -1.4424    8.7677 H         1 <0>         0.1498
     48 H18         6.0233    0.8835    7.9852 H         1 <0>         0.1404
     49 H19         3.2270   -0.3532    4.9794 H         1 <0>         0.1420
     50 H20         4.8675    2.6445    7.7437 H         1 <0>         0.4461
     51 H21         4.1109    1.3330    4.0563 H         1 <0>         0.4475
     52 H22         4.1648    2.9833    4.3663 H         1 <0>         0.4333
     53 H23         4.6025    3.7421    6.4996 H         1 <0>         0.4335
@<TRIPOS>BOND
     1    1   10 ar
     2    1    2 ar
     3    1   32 1
     4    2    3 ar
     5    2   33 1
     6    3    4 ar
     7    3   34 1
     8    4    9 ar
     9    4    5 ar
    10    5    6 ar
    11    5   35 1
    12    6    7 ar
    13    6   11 1
    14    7    8 ar
    15    7   36 1
    16    8    9 ar
    17    8   37 1
    18    9   10 ar
    19   10   38 1
    20   11   12 2
    21   11   13 2
    22   11   14 1
    23   14   15 1
    24   14   39 1
    25   15   16 1
    26   15   20 1
    27   15   17 1
    28   17   18 1
    29   17   40 1
    30   17   41 1
    31   18   19 1
    32   18   42 1
    33   18   43 1
    34   19   20 am
    35   19   22 1
    36   20   21 2
    37   22   23 1
    38   22   44 1
    39   22   45 1
    40   23   28 ar
    41   23   24 ar
    42   24   25 ar
    43   24   46 1
    44   25   26 ar
    45   25   47 1
    46   26   27 ar
    47   26   48 1
    48   27   28 ar
    49   27   29 1
    50   28   49 1
    51   29   30 2
    52   29   31 1
    53   30   50 1
    54   30   53 1
    55   31   51 1
    56   31   52 1
