@<TRIPOS>MOLECULE
ZINC27751733
   26    28     0     0     0
SMALL
USER_CHARGES
2-amino-8-(3-thienylmethyl)-7H-purin-6-ol
@<TRIPOS>ATOM
      1 C1          4.4433   -3.6741   -2.4461 C.2       1 <0>        -0.1502
      2 C2          5.3142   -3.5958   -3.4818 C.2       1 <0>        -0.1653
      3 S1          6.7040   -2.7616   -2.7334 S.3       1 <0>         0.0437
      4 C3          6.0271   -2.5670   -1.0929 C.2       1 <0>        -0.1822
      5 C4          4.8064   -3.1417   -1.2233 C.2       1 <0>        -0.1210
      6 C5          3.8618   -3.2048   -0.0508 C.3       1 <0>         0.0156
      7 C6          2.9959   -1.9715   -0.0364 C.2       1 <0>         0.2360
      8 N1          1.6442   -1.9748   -0.0238 N.2       1 <0>        -0.4134
      9 H1         -0.9857    1.8430    0.0202 H         1 <0>         0.4526
     10 C7          1.2339   -0.6560   -0.0132 C.2       1 <0>        -0.1192
     11 C8          2.4078    0.1161   -0.0201 C.2       1 <0>         0.2868
     12 N2          3.4418   -0.7459   -0.0343 N.pl3     1 <0>        -0.5231
     13 N3          2.3004    1.4483   -0.0121 N.2       1 <0>        -0.5789
     14 C9          1.1113    2.0244    0.0016 C.2       1 <0>         0.6474
     15 N4         -0.0159    1.3241    0.0086 N.am      1 <0>        -0.6146
     16 C10         0.0021   -0.0041    0.0016 C.2       1 <0>         0.5390
     17 O1         -1.1541   -0.7110    0.0084 O.2       1 <0>        -0.5819
     18 N5          1.0388    3.4084    0.0091 N.pl3     1 <0>        -0.8508
     19 H2          3.4785   -4.1418   -2.5755 H         1 <0>         0.1391
     20 H3          5.1993   -3.9506   -4.4954 H         1 <0>         0.1876
     21 H4          6.4743   -2.1102   -0.2225 H         1 <0>         0.1869
     22 H5          3.2261   -4.0981   -0.1397 H         1 <0>         0.1155
     23 H6          4.4400   -3.2578    0.8835 H         1 <0>         0.1018
     24 H7          4.4742   -0.3663   -0.0421 H         1 <0>         0.4550
     25 H8          1.9613    4.0075    0.0036 H         1 <0>         0.4544
     26 H9          0.0587    3.9078    0.0206 H         1 <0>         0.4394
@<TRIPOS>BOND
     1    1    5 1
     2    1    2 2
     3    1   19 1
     4    2    3 1
     5    2   20 1
     6    3    4 1
     7    4    5 2
     8    4   21 1
     9    5    6 1
    10    6    7 1
    11    6   22 1
    12    6   23 1
    13    7   12 1
    14    7    8 2
    15    8   10 1
    16    9   15 1
    17   10   11 2
    18   10   16 1
    19   11   12 1
    20   11   13 1
    21   12   24 1
    22   13   14 2
    23   14   15 1
    24   14   18 1
    25   15   16 am
    26   16   17 2
    27   18   26 1
    28   18   25 1
@<TRIPOS>MOLECULE
ZINC27758092
   26    28     0     0     0
SMALL
USER_CHARGES
2-amino-8-(2-thienylmethyl)-7H-purin-6-ol
@<TRIPOS>ATOM
      1 C1          6.7441   -2.6696   -2.4834 C.2       1 <0>        -0.1610
      2 C2          6.0531   -2.6134   -1.2875 C.2       1 <0>        -0.1530
      3 C3          4.8064   -3.1417   -1.2233 C.2       1 <0>        -0.1570
      4 S1          4.5771   -3.7503   -2.8858 S.3       1 <0>         0.0629
      5 C4          6.1547   -3.2513   -3.5564 C.2       1 <0>        -0.1705
      6 C5          3.8618   -3.2048   -0.0508 C.3       1 <0>         0.0466
      7 C6          2.9959   -1.9715   -0.0364 C.2       1 <0>         0.2297
      8 N1          1.6442   -1.9748   -0.0238 N.2       1 <0>        -0.4081
      9 H1         -0.9857    1.8430    0.0202 H         1 <0>         0.4530
     10 C7          1.2339   -0.6560   -0.0132 C.2       1 <0>        -0.1190
     11 C8          2.4078    0.1161   -0.0201 C.2       1 <0>         0.2896
     12 N2          3.4418   -0.7459   -0.0343 N.pl3     1 <0>        -0.5221
     13 N3          2.3004    1.4483   -0.0121 N.2       1 <0>        -0.5793
     14 C9          1.1113    2.0244    0.0016 C.2       1 <0>         0.6487
     15 N4         -0.0159    1.3241    0.0086 N.am      1 <0>        -0.6148
     16 C10         0.0021   -0.0041    0.0016 C.2       1 <0>         0.5397
     17 O1         -1.1541   -0.7110    0.0084 O.2       1 <0>        -0.5803
     18 N5          1.0388    3.4084    0.0091 N.pl3     1 <0>        -0.8504
     19 H2          7.7389   -2.2565   -2.5615 H         1 <0>         0.1352
     20 H3          6.4996   -2.1551   -0.4175 H         1 <0>         0.1339
     21 H4          6.5408   -3.3826   -4.5565 H         1 <0>         0.1866
     22 H5          3.2261   -4.0981   -0.1397 H         1 <0>         0.1227
     23 H6          4.4400   -3.2578    0.8835 H         1 <0>         0.1159
     24 H7          4.4742   -0.3663   -0.0421 H         1 <0>         0.4568
     25 H8          1.9613    4.0075    0.0036 H         1 <0>         0.4546
     26 H9          0.0587    3.9078    0.0206 H         1 <0>         0.4396
@<TRIPOS>BOND
     1    1    5 2
     2    1    2 1
     3    1   19 1
     4    2    3 2
     5    2   20 1
     6    3    4 1
     7    3    6 1
     8    4    5 1
     9    5   21 1
    10    6    7 1
    11    6   22 1
    12    6   23 1
    13    7   12 1
    14    7    8 2
    15    8   10 1
    16    9   15 1
    17   10   11 2
    18   10   16 1
    19   11   12 1
    20   11   13 1
    21   12   24 1
    22   13   14 2
    23   14   15 1
    24   14   18 1
    25   15   16 am
    26   16   17 2
    27   18   26 1
    28   18   25 1
@<TRIPOS>MOLECULE
ZINC05117356
   29    31     0     0     0
SMALL
USER_CHARGES
2-amino-8-benzyl-1,9-dihydropurin-6-one
@<TRIPOS>ATOM
      1 C1         -1.2377    3.1328    0.0290 C.ar      1 <0>        -0.1164
      2 C2         -1.2190    1.7507    0.0173 C.ar      1 <0>        -0.1194
      3 C3         -0.0126    1.0758    0.0080 C.ar      1 <0>        -0.0894
      4 C4          1.1750    1.7832    0.0004 C.ar      1 <0>        -0.0852
      5 C5          1.1563    3.1654    0.0081 C.ar      1 <0>        -0.1122
      6 C6         -0.0501    3.8402    0.0223 C.ar      1 <0>        -0.1230
      7 C7          2.4902    1.0476   -0.0156 C.3       1 <0>         0.0080
      8 C8          2.9152    0.8095   -1.4417 C.2       1 <0>         0.2446
      9 N1          4.1100    1.1929   -1.9788 N.pl3     1 <0>        -0.5557
     10 H1          4.8448    1.6759   -1.5025 H         1 <0>         0.4359
     11 C9          4.1185    0.7955   -3.2883 C.2       1 <0>         0.2892
     12 C10         2.8857    0.1723   -3.5129 C.2       1 <0>        -0.1230
     13 N2          2.1961    0.2129   -2.3469 N.2       1 <0>        -0.4079
     14 C11         2.6110   -0.3403   -4.8024 C.2       1 <0>         0.5872
     15 O1          1.5501   -0.8906   -5.0431 O.2       1 <0>        -0.5057
     16 N3          3.5536   -0.2039   -5.7613 N.am      1 <0>        -0.6649
     17 H2          3.3826   -0.5576   -6.6809 H         1 <0>         0.4259
     18 C12         4.7362    0.4133   -5.4812 C.2       1 <0>         0.6056
     19 N4          5.0035    0.8934   -4.2873 N.2       1 <0>        -0.5356
     20 N5          5.6750    0.5366   -6.4745 N.pl3     1 <0>        -0.7425
     21 H3         -2.1802    3.6600    0.0398 H         1 <0>         0.1215
     22 H4         -2.1469    1.1980    0.0188 H         1 <0>         0.1237
     23 H5          0.0021   -0.0041    0.0020 H         1 <0>         0.1264
     24 H6          2.0841    3.7181    0.0025 H         1 <0>         0.1187
     25 H7         -0.0647    4.9201    0.0280 H         1 <0>         0.1215
     26 H8          3.2465    1.6443    0.4942 H         1 <0>         0.0961
     27 H9          2.3776    0.0909    0.4944 H         1 <0>         0.1084
     28 H10         5.8686    1.5050   -6.6318 H         1 <0>         0.3841
     29 H11         5.4922    0.1872   -7.3607 H         1 <0>         0.3843
@<TRIPOS>BOND
     1    1    6 ar
     2    1    2 ar
     3    1   21 1
     4    2    3 ar
     5    2   22 1
     6    3    4 ar
     7    3   23 1
     8    4    5 ar
     9    4    7 1
    10    5    6 ar
    11    5   24 1
    12    6   25 1
    13    7    8 1
    14    7   26 1
    15    7   27 1
    16    8   13 2
    17    8    9 1
    18    9   10 1
    19    9   11 1
    20   11   19 1
    21   11   12 2
    22   12   13 1
    23   12   14 1
    24   14   15 2
    25   14   16 am
    26   16   17 1
    27   16   18 1
    28   18   19 2
    29   18   20 1
    30   20   28 1
    31   20   29 1
@<TRIPOS>MOLECULE
ZINC00895129
   16    17     0     0     0
SMALL
USER_CHARGES

@<TRIPOS>ATOM
      1 C1         -0.0156    1.2968    0.0092 C.2       1 <0>         0.2103
      2 N1         -1.3058    1.7418    0.0180 N.pl3     1 <0>        -0.5624
      3 H1         -1.5930    2.6683    0.0241 H         1 <0>         0.4300
      4 C2         -2.1202    0.6420    0.0160 C.2       1 <0>         0.3097
      5 C3         -1.2706   -0.4701    0.0058 C.2       1 <0>        -0.1485
      6 N2          0.0021   -0.0041    0.0020 N.2       1 <0>        -0.4223
      7 C4         -1.8465   -1.7621    0.0016 C.2       1 <0>         0.5946
      8 N3         -3.1941   -1.8640    0.0077 N.am      1 <0>        -0.6571
      9 C5         -3.9692   -0.7427    0.0176 C.2       1 <0>         0.6589
     10 N4         -3.4463    0.4631    0.0216 N.2       1 <0>        -0.5849
     11 N5         -5.3349   -0.8768    0.0236 N.pl3     1 <0>        -0.8172
     12 O1         -1.1447   -2.7590   -0.0077 O.2       1 <0>        -0.5062
     13 H2          0.8596    1.9297    0.0042 H         1 <0>         0.2266
     14 H3         -5.7355   -1.7602    0.0208 H         1 <0>         0.4182
     15 H4         -3.6119   -2.7394    0.0047 H         1 <0>         0.4202
     16 H5         -5.8996   -0.0882    0.0307 H         1 <0>         0.4299
@<TRIPOS>BOND
     1    1    6 2
     2    1   13 1
     3    1    2 1
     4    2    3 1
     5    2    4 1
     6    4    5 2
     7    4   10 1
     8    5    7 1
     9    5    6 1
    10    7   12 2
    11    7    8 am
    12    8    9 1
    13    8   15 1
    14    9   10 2
    15    9   11 1
    16   11   14 1
    17   11   16 1
@<TRIPOS>MOLECULE
ZINC14977914
   31    33     0     0     0
SMALL
USER_CHARGES
7-[[3-(hydroxymethyl)azetidin-1-yl]methyl]-3,5-dihydropyrrolo[3,2-d]pyrimidin-4-one
@<TRIPOS>ATOM
      1 C1          2.7773    3.5213   -0.0055 C.2       1 <0>         0.0602
      2 C2          1.4351    3.3894    0.0066 C.2       1 <0>        -0.2732
      3 C3          1.1361    2.0103    0.0020 C.ar      1 <0>         0.1369
      4 C4          2.3618    1.3356   -0.0133 C.ar      1 <0>        -0.1328
      5 N1          3.3537    2.2882   -0.0178 N.pl3     1 <0>        -0.5274
      6 H1          4.4496    2.1934   -0.0290 H         1 <0>         0.4455
      7 C5          2.3540   -0.0745   -0.0204 C.ar      1 <0>         0.5204
      8 O1          3.3981   -0.7047   -0.0329 O.3       1 <0>        -0.6041
      9 N2          1.1620   -0.7106   -0.0124 N.ar      1 <0>        -0.6675
     10 C6          0.0021   -0.0041    0.0020 C.ar      1 <0>         0.3408
     11 N3         -0.0156    1.2973    0.0092 N.ar      1 <0>        -0.6303
     12 C7          0.4329    4.5148    0.0226 C.3       1 <0>         0.0792
     13 N4         -0.0589    4.7130    1.3926 N.4       1 <0>        -0.4400
     14 C8          0.9623    5.3682    2.2310 C.3       1 <0>         0.0337
     15 C9         -0.1617    6.2204    2.8368 C.3       1 <0>        -0.1214
     16 C10        -0.8555    5.9500    1.4944 C.3       1 <0>         0.0298
     17 C11         0.2157    7.6857    3.0630 C.3       1 <0>         0.0827
     18 O2          0.7450    7.8433    4.3810 O.3       1 <0>        -0.6035
     19 H2          3.3119    4.4597   -0.0056 H         1 <0>         0.1646
     20 H3         -0.9359   -0.5394    0.0081 H         1 <0>         0.1671
     21 H4          0.9134    5.4387   -0.3318 H         1 <0>         0.1108
     22 H5         -0.4108    4.2639   -0.6372 H         1 <0>         0.1264
     23 H6          1.4571    4.6151    2.8618 H         1 <0>         0.1233
     24 H7          1.7093    5.8544    1.5863 H         1 <0>         0.1396
     25 H8         -0.6214    6.0253    3.8169 H         1 <0>         0.1544
     26 H9         -0.6297    6.6030    0.6385 H         1 <0>         0.1428
     27 H10        -1.9262    5.6980    1.4908 H         1 <0>         0.1282
     28 H11         0.9736    7.9872    2.3250 H         1 <0>         0.0498
     29 H12        -0.6783    8.3164    2.9491 H         1 <0>         0.0614
     30 H13         1.0732    8.8345    4.7270 H         1 <0>         0.4273
     31 H14        -0.4761    3.7265    1.6429 H         1 <0>         0.4755
@<TRIPOS>BOND
     1    1    5 1
     2    1    2 2
     3    1   19 1
     4    2    3 1
     5    2   12 1
     6    3   11 ar
     7    3    4 ar
     8    4    5 1
     9    4    7 ar
    10    5    6 1
    11    7    8 1
    12    7    9 ar
    13    9   10 ar
    14   10   11 ar
    15   10   20 1
    16   12   13 1
    17   12   21 1
    18   12   22 1
    19   13   16 1
    20   13   14 1
    21   13   31 1
    22   14   15 1
    23   14   23 1
    24   14   24 1
    25   15   16 1
    26   15   17 1
    27   15   25 1
    28   16   26 1
    29   16   27 1
    30   17   18 1
    31   17   28 1
    32   17   29 1
    33   18   30 1
@<TRIPOS>MOLECULE
ZINC14977914
   31    33     0     0     0
SMALL
USER_CHARGES
7-[[3-(hydroxymethyl)azetidin-1-yl]methyl]-3,5-dihydropyrrolo[3,2-d]pyrimidin-4-one
@<TRIPOS>ATOM
      1 C1          2.7773    3.5213   -0.0055 C.2       1 <0>         0.0577
      2 C2          1.4351    3.3894    0.0066 C.2       1 <0>        -0.1515
      3 C3          1.1361    2.0103    0.0020 C.2       1 <0>         0.1243
      4 C4          2.3618    1.3356   -0.0133 C.2       1 <0>        -0.0910
      5 N1          3.3537    2.2882   -0.0178 N.pl3     1 <0>        -0.5307
      6 H1          4.4496    2.1934   -0.0290 H         1 <0>         0.4552
      7 C5          2.3540   -0.0745   -0.0204 C.2       1 <0>         0.5637
      8 O1          3.3981   -0.7047   -0.0329 O.2       1 <0>        -0.5492
      9 N2          1.1620   -0.7106   -0.0124 N.am      1 <0>        -0.6548
     10 C6          0.0021   -0.0041    0.0020 C.2       1 <0>         0.3439
     11 N3         -0.0156    1.2973    0.0092 N.2       1 <0>        -0.4847
     12 C7          0.4329    4.5148    0.0226 C.3       1 <0>         0.0955
     13 N4         -0.0589    4.7130    1.3926 N.3       1 <0>        -0.4754
     14 C8          0.9623    5.3682    2.2310 C.3       1 <0>         0.0141
     15 C9         -0.1617    6.2204    2.8368 C.3       1 <0>        -0.0916
     16 C10        -0.8555    5.9500    1.4944 C.3       1 <0>         0.0107
     17 C11         0.2157    7.6857    3.0630 C.3       1 <0>         0.0781
     18 O2          0.7450    7.8433    4.3810 O.3       1 <0>        -0.6026
     19 H2          3.3119    4.4597   -0.0056 H         1 <0>         0.1788
     20 H3         -0.9359   -0.5394    0.0081 H         1 <0>         0.2057
     21 H4          0.9134    5.4387   -0.3318 H         1 <0>         0.0466
     22 H5         -0.4108    4.2639   -0.6372 H         1 <0>         0.0890
     23 H6          1.4571    4.6151    2.8618 H         1 <0>         0.0788
     24 H7          1.7093    5.8544    1.5863 H         1 <0>         0.0665
     25 H8         -0.6214    6.0253    3.8169 H         1 <0>         0.1213
     26 H9         -0.6297    6.6030    0.6385 H         1 <0>         0.0706
     27 H10        -1.9262    5.6980    1.4908 H         1 <0>         0.0877
     28 H11         0.9736    7.9872    2.3250 H         1 <0>         0.0362
     29 H12        -0.6783    8.3164    2.9491 H         1 <0>         0.0466
     30 H13         1.0732    8.8345    4.7270 H         1 <0>         0.4103
     31 H14         1.1252   -1.8100   -0.0175 H         1 <0>         0.4503
@<TRIPOS>BOND
     1    1    5 1
     2    1    2 2
     3    1   19 1
     4    2    3 1
     5    2   12 1
     6    3   11 1
     7    3    4 2
     8    4    5 1
     9    4    7 1
    10    5    6 1
    11    7    8 2
    12    7    9 am
    13    9   10 1
    14    9   31 1
    15   10   11 2
    16   10   20 1
    17   12   13 1
    18   12   21 1
    19   12   22 1
    20   13   16 1
    21   13   14 1
    22   14   15 1
    23   14   23 1
    24   14   24 1
    25   15   16 1
    26   15   17 1
    27   15   25 1
    28   16   26 1
    29   16   27 1
    30   17   18 1
    31   17   28 1
    32   17   29 1
    33   18   30 1
@<TRIPOS>MOLECULE
ZINC14977914
   30    32     0     0     0
SMALL
USER_CHARGES
7-[[3-(hydroxymethyl)azetidin-1-yl]methyl]-3,5-dihydropyrrolo[3,2-d]pyrimidin-4-one
@<TRIPOS>ATOM
      1 C1          2.7773    3.5213   -0.0055 C.2       1 <0>         0.0180
      2 C2          1.4351    3.3894    0.0066 C.2       1 <0>        -0.1868
      3 C3          1.1361    2.0103    0.0020 C.ar      1 <0>         0.1391
      4 C4          2.3618    1.3356   -0.0133 C.ar      1 <0>        -0.1348
      5 N1          3.3537    2.2882   -0.0178 N.pl3     1 <0>        -0.5499
      6 H1          4.4496    2.1934   -0.0290 H         1 <0>         0.4297
      7 C5          2.3540   -0.0745   -0.0204 C.ar      1 <0>         0.5190
      8 O1          3.3981   -0.7047   -0.0329 O.3       1 <0>        -0.6331
      9 N2          1.1620   -0.7106   -0.0124 N.ar      1 <0>        -0.6847
     10 C6          0.0021   -0.0041    0.0020 C.ar      1 <0>         0.3164
     11 N3         -0.0156    1.2973    0.0092 N.ar      1 <0>        -0.5968
     12 C7          0.4329    4.5148    0.0226 C.3       1 <0>         0.1120
     13 N4         -0.0589    4.7130    1.3926 N.3       1 <0>        -0.4680
     14 C8          0.9623    5.3682    2.2310 C.3       1 <0>         0.0144
     15 C9         -0.1617    6.2204    2.8368 C.3       1 <0>        -0.0894
     16 C10        -0.8555    5.9500    1.4944 C.3       1 <0>         0.0061
     17 C11         0.2157    7.6857    3.0630 C.3       1 <0>         0.0786
     18 O2          0.7450    7.8433    4.3810 O.3       1 <0>        -0.6007
     19 H2          3.3119    4.4597   -0.0056 H         1 <0>         0.1520
     20 H3         -0.9359   -0.5394    0.0081 H         1 <0>         0.1574
     21 H4          0.9134    5.4387   -0.3318 H         1 <0>         0.0306
     22 H5         -0.4108    4.2639   -0.6372 H         1 <0>         0.0793
     23 H6          1.4571    4.6151    2.8618 H         1 <0>         0.0787
     24 H7          1.7093    5.8544    1.5863 H         1 <0>         0.0645
     25 H8         -0.6214    6.0253    3.8169 H         1 <0>         0.1162
     26 H9         -0.6297    6.6030    0.6385 H         1 <0>         0.0656
     27 H10        -1.9262    5.6980    1.4908 H         1 <0>         0.0833
     28 H11         0.9736    7.9872    2.3250 H         1 <0>         0.0358
     29 H12        -0.6783    8.3164    2.9491 H         1 <0>         0.0433
     30 H13         1.0732    8.8345    4.7270 H         1 <0>         0.4039
@<TRIPOS>BOND
     1    1    5 1
     2    1    2 2
     3    1   19 1
     4    2    3 1
     5    2   12 1
     6    3   11 ar
     7    3    4 ar
     8    4    5 1
     9    4    7 ar
    10    5    6 1
    11    7    8 1
    12    7    9 ar
    13    9   10 ar
    14   10   11 ar
    15   10   20 1
    16   12   13 1
    17   12   21 1
    18   12   22 1
    19   13   16 1
    20   13   14 1
    21   14   15 1
    22   14   23 1
    23   14   24 1
    24   15   16 1
    25   15   17 1
    26   15   25 1
    27   16   26 1
    28   16   27 1
    29   17   18 1
    30   17   28 1
    31   17   29 1
    32   18   30 1
@<TRIPOS>MOLECULE
ZINC14977914
   32    34     0     0     0
SMALL
USER_CHARGES

@<TRIPOS>ATOM
      1 C1         -0.0164    1.3570    0.0095 C.2       1 <0>         0.1159
      2 C2          1.2492    1.8233   -0.0001 C.2       1 <0>        -0.2358
      3 C3          2.1192    0.7123   -0.0144 C.2       1 <0>         0.1270
      4 C4          1.3100   -0.4292   -0.0128 C.2       1 <0>        -0.0915
      5 N1          0.0021   -0.0041    0.0020 N.pl3     1 <0>        -0.5036
      6 H1         -0.7788   -0.5795    0.0064 H         1 <0>         0.4386
      7 C5          1.9314   -1.6949   -0.0259 C.2       1 <0>         0.5594
      8 O1          1.2663   -2.7172   -0.0254 O.2       1 <0>        -0.5175
      9 N2          3.2814   -1.7479   -0.0394 N.am      1 <0>        -0.6364
     10 H2          3.7287   -2.6085   -0.0489 H         1 <0>         0.4333
     11 C6          4.0176   -0.6064   -0.0403 C.2       1 <0>         0.3823
     12 N3          3.4665    0.5725   -0.0276 N.2       1 <0>        -0.5187
     13 C7          1.6609    3.2730    0.0038 C.3       1 <0>         0.0890
     14 N4          2.0124    3.6858   -1.3615 N.4       1 <0>        -0.4068
     15 C8          0.8550    4.1453   -2.1516 C.3       1 <0>         0.0040
     16 C9          1.7659    5.2233   -2.7556 C.3       1 <0>        -0.1267
     17 C10         2.5412    5.0602   -1.4407 C.3       1 <0>         0.0043
     18 C11         1.0955    6.5885   -2.9223 C.3       1 <0>         0.0854
     19 O2          1.9882    7.4786   -3.5951 O.3       1 <0>        -0.5696
     20 H3         -0.9064    1.9686    0.0254 H         1 <0>         0.1948
     21 H4          5.0951   -0.6795   -0.0513 H         1 <0>         0.2179
     22 H5          0.8347    3.8843    0.3669 H         1 <0>         0.1338
     23 H6          2.5240    3.4038    0.6565 H         1 <0>         0.1384
     24 H7          0.5077    3.4124   -2.8798 H         1 <0>         0.1361
     25 H8          0.0470    4.5509   -1.5426 H         1 <0>         0.1508
     26 H9          2.3143    4.8998   -3.6402 H         1 <0>         0.1378
     27 H10         2.1833    5.7099   -0.6421 H         1 <0>         0.1508
     28 H11         3.6231    5.1026   -1.5665 H         1 <0>         0.1393
     29 H12         0.1837    6.4763   -3.5089 H         1 <0>         0.0684
     30 H13         0.8487    6.9943   -1.9412 H         1 <0>         0.0618
     31 H14         1.6283    8.3651   -3.7353 H         1 <0>         0.3988
     32 H15         2.5839    3.0076   -1.8426 H         1 <0>         0.4387
@<TRIPOS>BOND
     1    1    5 1
     2    1    2 2
     3    1   20 1
     4    2    3 1
     5    2   13 1
     6    3   12 1
     7    3    4 2
     8    4    5 1
     9    4    7 1
    10    5    6 1
    11    7    8 2
    12    7    9 am
    13    9   10 1
    14    9   11 1
    15   11   12 2
    16   11   21 1
    17   13   14 1
    18   13   22 1
    19   13   23 1
    20   14   17 1
    21   14   15 1
    22   14   32 1
    23   15   16 1
    24   15   24 1
    25   15   25 1
    26   16   17 1
    27   16   18 1
    28   16   26 1
    29   17   27 1
    30   17   28 1
    31   18   19 1
    32   18   29 1
    33   18   30 1
    34   19   31 1
@<TRIPOS>MOLECULE
ZINC14977914
   31    33     0     0     0
SMALL
USER_CHARGES

@<TRIPOS>ATOM
      1 C1         -0.0164    1.3570    0.0095 C.2       1 <0>         0.0841
      2 C2          1.2529    1.8194   -0.0001 C.2       1 <0>        -0.1724
      3 C3          2.1145    0.7110   -0.0143 C.2       1 <0>         0.1099
      4 C4          1.3105   -0.4266   -0.0127 C.2       1 <0>        -0.0978
      5 N1          0.0021   -0.0041    0.0020 N.pl3     1 <0>        -0.5148
      6 H1         -0.7782   -0.5803    0.0067 H         1 <0>         0.4316
      7 C5          1.9397   -1.6940   -0.0256 C.2       1 <0>         0.5462
      8 O1          1.2718   -2.7165   -0.0251 O.2       1 <0>        -0.5133
      9 N2          3.2842   -1.7574   -0.0387 N.2       1 <0>        -0.5862
     10 C6          4.0204   -0.6802   -0.0400 C.2       1 <0>         0.4159
     11 N3          3.4841    0.5549   -0.0282 N.pl3     1 <0>        -0.5984
     12 C7          1.6698    3.2676    0.0029 C.3       1 <0>         0.0907
     13 N4          2.0231    3.6783   -1.3625 N.3       1 <0>        -0.4630
     14 C8          3.4724    3.5397   -1.5978 C.3       1 <0>        -0.0005
     15 C9          3.4232    4.8807   -2.3435 C.3       1 <0>        -0.1134
     16 C10         2.2062    5.1394   -1.4443 C.3       1 <0>         0.0030
     17 C11         4.6155    5.7976   -2.0631 C.3       1 <0>         0.0851
     18 O2          4.5281    6.9591   -2.8909 O.3       1 <0>        -0.5711
     19 H2         -0.9052    1.9703    0.0253 H         1 <0>         0.1852
     20 H3          5.0955   -0.7826   -0.0504 H         1 <0>         0.2113
     21 H4          0.8458    3.8821    0.3655 H         1 <0>         0.0892
     22 H5          2.5332    3.3957    0.6557 H         1 <0>         0.0526
     23 H6          4.0657    3.5725   -0.6841 H         1 <0>         0.0684
     24 H7          3.7296    2.6960   -2.2382 H         1 <0>         0.0879
     25 H8          3.1844    4.7934   -3.4035 H         1 <0>         0.1119
     26 H9          1.3903    5.6513   -1.9545 H         1 <0>         0.0908
     27 H10         2.4616    5.5991   -0.4896 H         1 <0>         0.0713
     28 H11         4.6052    6.0967   -1.0150 H         1 <0>         0.0466
     29 H12         5.5418    5.2656   -2.2801 H         1 <0>         0.0504
     30 H13         5.2534    7.5864   -2.7661 H         1 <0>         0.3822
     31 H14         4.0613    1.3345   -0.0296 H         1 <0>         0.4167
@<TRIPOS>BOND
     1    1    5 1
     2    1    2 2
     3    1   19 1
     4    2    3 1
     5    2   12 1
     6    3   11 1
     7    3    4 2
     8    4    5 1
     9    4    7 1
    10    5    6 1
    11    7    8 2
    12    7    9 1
    13    9   10 2
    14   10   11 1
    15   10   20 1
    16   11   31 1
    17   12   13 1
    18   12   21 1
    19   12   22 1
    20   13   16 1
    21   13   14 1
    22   14   15 1
    23   14   23 1
    24   14   24 1
    25   15   16 1
    26   15   17 1
    27   15   25 1
    28   16   26 1
    29   16   27 1
    30   17   18 1
    31   17   28 1
    32   17   29 1
    33   18   30 1
@<TRIPOS>MOLECULE
ZINC14977914
   32    34     0     0     0
SMALL
USER_CHARGES

@<TRIPOS>ATOM
      1 C1         -0.0164    1.3570    0.0095 C.2       1 <0>         0.1161
      2 C2          1.2529    1.8194   -0.0001 C.2       1 <0>        -0.2617
      3 C3          2.1145    0.7110   -0.0143 C.2       1 <0>         0.1172
      4 C4          1.3105   -0.4266   -0.0127 C.2       1 <0>        -0.0822
      5 N1          0.0021   -0.0041    0.0020 N.pl3     1 <0>        -0.4968
      6 H1         -0.7782   -0.5803    0.0067 H         1 <0>         0.4433
      7 C5          1.9397   -1.6940   -0.0256 C.2       1 <0>         0.5406
      8 O1          1.2718   -2.7165   -0.0251 O.2       1 <0>        -0.4829
      9 N2          3.2842   -1.7574   -0.0387 N.2       1 <0>        -0.5672
     10 C6          4.0204   -0.6802   -0.0400 C.2       1 <0>         0.4228
     11 N3          3.4841    0.5549   -0.0282 N.pl3     1 <0>        -0.6117
     12 C7          1.6698    3.2676    0.0029 C.3       1 <0>         0.0828
     13 N4          2.0231    3.6783   -1.3625 N.4       1 <0>        -0.4091
     14 C8          3.4291    3.4030   -1.7125 C.3       1 <0>        -0.0043
     15 C9          3.4431    4.7371   -2.4719 C.3       1 <0>        -0.1224
     16 C10         2.3333    5.1152   -1.4810 C.3       1 <0>         0.0026
     17 C11         4.7342    5.5405   -2.3031 C.3       1 <0>         0.0845
     18 O2          4.6870    6.6989   -3.1385 O.3       1 <0>        -0.5689
     19 H2         -0.9052    1.9703    0.0253 H         1 <0>         0.1967
     20 H3          5.0955   -0.7826   -0.0504 H         1 <0>         0.2202
     21 H4          0.8458    3.8821    0.3655 H         1 <0>         0.1426
     22 H5          2.5332    3.3957    0.6557 H         1 <0>         0.1319
     23 H6          4.0960    3.3871   -0.8504 H         1 <0>         0.1469
     24 H7          3.5536    2.5342   -2.3587 H         1 <0>         0.1384
     25 H8          3.1110    4.6646   -3.5076 H         1 <0>         0.1405
     26 H9          1.5292    5.6974   -1.9311 H         1 <0>         0.1417
     27 H10         2.7078    5.5562   -0.5572 H         1 <0>         0.1522
     28 H11         4.8378    5.8472   -1.2622 H         1 <0>         0.0621
     29 H12         5.5863    4.9227   -2.5863 H         1 <0>         0.0696
     30 H13         5.4750    7.2566   -3.0825 H         1 <0>         0.4003
     31 H14         1.3652    3.3515   -2.0543 H         1 <0>         0.4394
     32 H15         4.0613    1.3345   -0.0296 H         1 <0>         0.4147
@<TRIPOS>BOND
     1    1    5 1
     2    1    2 2
     3    1   19 1
     4    2    3 1
     5    2   12 1
     6    3   11 1
     7    3    4 2
     8    4    5 1
     9    4    7 1
    10    5    6 1
    11    7    8 2
    12    7    9 1
    13    9   10 2
    14   10   11 1
    15   10   20 1
    16   11   32 1
    17   12   13 1
    18   12   21 1
    19   12   22 1
    20   13   16 1
    21   13   14 1
    22   13   31 1
    23   14   15 1
    24   14   23 1
    25   14   24 1
    26   15   16 1
    27   15   17 1
    28   15   25 1
    29   16   26 1
    30   16   27 1
    31   17   18 1
    32   17   28 1
    33   17   29 1
    34   18   30 1
@<TRIPOS>MOLECULE
ZINC21290085
   35    37     0     0     0
SMALL
USER_CHARGES
(3S)-3-(2-amino-4-oxo-3,5-dihydropyrrolo[4,5-d]pyrimidin-7-yl)-3-(3-chlorophenyl)propanoic acid
@<TRIPOS>ATOM
      1 C1         -3.2763    8.3860    2.6376 C.ar      1 <0>        -0.1148
      2 C2         -3.0916    7.6192    1.5020 C.ar      1 <0>        -0.1214
      3 C3         -1.8786    6.9953    1.2785 C.ar      1 <0>        -0.0159
      4 C4         -0.8460    7.1462    2.1851 C.ar      1 <0>        -0.0673
      5 C5         -1.0286    7.9176    3.3188 C.ar      1 <0>        -0.0336
      6 C6         -2.2448    8.5377    3.5446 C.ar      1 <0>        -0.1289
      7 Cl1         0.2679    8.1081    4.4575 Cl        1 <0>        -0.0893
      8 C7         -1.6798    6.1554    0.0432 C.3       1 <0>         0.0395
      9 H1         -0.6609    5.7408    0.0510 H         1 <0>         0.0952
     10 C8         -1.8914    7.0203   -1.2011 C.3       1 <0>        -0.1446
     11 C9         -0.8223    8.0806   -1.2635 C.2       1 <0>         0.4605
     12 O1          0.0222    8.1386   -0.4014 O.co2     1 <0>        -0.6292
     13 O2         -0.8083    8.9606   -2.2770 O.co2     1 <0>        -0.7802
     14 C10        -2.6724    5.0215    0.0415 C.2       1 <0>        -0.1500
     15 C11        -4.0153    5.1426    0.0478 C.2       1 <0>         0.0652
     16 N1         -4.5829    3.9052    0.0438 N.pl3     1 <0>        -0.5392
     17 H2         -5.6781    3.8024    0.0479 H         1 <0>         0.4466
     18 C12        -3.5807    2.9582    0.0347 C.2       1 <0>        -0.1358
     19 C13        -2.3607    3.6443    0.0331 C.2       1 <0>         0.1683
     20 N2         -1.2066    2.9482    0.0292 N.2       1 <0>        -0.5534
     21 C14        -1.2100    1.6365    0.0167 C.2       1 <0>         0.6143
     22 N3         -2.3706    0.9195    0.0183 N.am      1 <0>        -0.6674
     23 C15        -3.5649    1.5510    0.0269 C.2       1 <0>         0.5838
     24 O3         -4.6062    0.9156    0.0276 O.2       1 <0>        -0.5602
     25 N4         -0.0111    0.9658    0.0074 N.pl3     1 <0>        -0.8582
     26 H3         -4.2257    8.8699    2.8137 H         1 <0>         0.1230
     27 H4         -3.8966    7.5046    0.7911 H         1 <0>         0.1195
     28 H5          0.1029    6.6618    2.0085 H         1 <0>         0.1307
     29 H6         -2.3878    9.1403    4.4293 H         1 <0>         0.1227
     30 H7         -1.8349    6.3892   -2.1003 H         1 <0>         0.0677
     31 H8         -2.8804    7.4992   -1.1509 H         1 <0>         0.0626
     32 H9         -4.5569    6.0769    0.0552 H         1 <0>         0.1780
     33 H10         0.0038   -0.1340   -0.0031 H         1 <0>         0.4266
     34 H11         0.9340    1.5286    0.0105 H         1 <0>         0.4515
     35 H12        -2.3378   -0.1800    0.0126 H         1 <0>         0.4338
@<TRIPOS>BOND
     1    1    6 ar
     2    1    2 ar
     3    1   26 1
     4    2    3 ar
     5    2   27 1
     6    3    4 ar
     7    3    8 1
     8    4    5 ar
     9    4   28 1
    10    5    6 ar
    11    5    7 1
    12    6   29 1
    13    8    9 1
    14    8   10 1
    15    8   14 1
    16   10   11 1
    17   10   30 1
    18   10   31 1
    19   11   12 2
    20   11   13 1
    21   14   19 1
    22   14   15 2
    23   15   16 1
    24   15   32 1
    25   16   17 1
    26   16   18 1
    27   18   23 1
    28   18   19 2
    29   19   20 1
    30   20   21 2
    31   21   22 1
    32   21   25 1
    33   22   23 am
    34   22   35 1
    35   23   24 2
    36   25   33 1
    37   25   34 1
@<TRIPOS>MOLECULE
ZINC21290085
   34    36     0     0     0
SMALL
USER_CHARGES
(3S)-3-(2-amino-4-oxo-3,5-dihydropyrrolo[4,5-d]pyrimidin-7-yl)-3-(3-chlorophenyl)propanoic acid
@<TRIPOS>ATOM
      1 C1         -3.2763    8.3860    2.6376 C.ar      1 <0>        -0.1190
      2 C2         -3.0916    7.6192    1.5020 C.ar      1 <0>        -0.1185
      3 C3         -1.8786    6.9953    1.2785 C.ar      1 <0>        -0.0002
      4 C4         -0.8460    7.1462    2.1851 C.ar      1 <0>        -0.0687
      5 C5         -1.0286    7.9176    3.3188 C.ar      1 <0>        -0.0346
      6 C6         -2.2448    8.5377    3.5446 C.ar      1 <0>        -0.1376
      7 Cl1         0.2679    8.1081    4.4575 Cl        1 <0>        -0.0995
      8 C7         -1.6798    6.1554    0.0432 C.3       1 <0>         0.0454
      9 H1         -0.6609    5.7408    0.0510 H         1 <0>         0.0889
     10 C8         -1.8914    7.0203   -1.2011 C.3       1 <0>        -0.1403
     11 C9         -0.8223    8.0806   -1.2635 C.2       1 <0>         0.4622
     12 O1          0.0222    8.1386   -0.4014 O.co2     1 <0>        -0.6311
     13 O2         -0.8083    8.9606   -2.2770 O.co2     1 <0>        -0.7912
     14 C10        -2.6724    5.0215    0.0415 C.2       1 <0>        -0.1767
     15 C11        -4.0153    5.1426    0.0478 C.2       1 <0>         0.0191
     16 N1         -4.5829    3.9052    0.0438 N.pl3     1 <0>        -0.5550
     17 H2         -5.6781    3.8024    0.0479 H         1 <0>         0.4220
     18 C12        -3.5807    2.9582    0.0347 C.ar      1 <0>        -0.1669
     19 C13        -2.3607    3.6443    0.0331 C.ar      1 <0>         0.1691
     20 N2         -1.2066    2.9482    0.0292 N.ar      1 <0>        -0.6501
     21 C14        -1.2100    1.6365    0.0167 C.ar      1 <0>         0.5807
     22 N3         -2.3706    0.9195    0.0183 N.ar      1 <0>        -0.7166
     23 C15        -3.5649    1.5510    0.0269 C.ar      1 <0>         0.5409
     24 O3         -4.6062    0.9156    0.0276 O.3       1 <0>        -0.6452
     25 N4         -0.0111    0.9658    0.0074 N.pl3     1 <0>        -0.8626
     26 H3         -4.2257    8.8699    2.8137 H         1 <0>         0.1187
     27 H4         -3.8966    7.5046    0.7911 H         1 <0>         0.1206
     28 H5          0.1029    6.6618    2.0085 H         1 <0>         0.1296
     29 H6         -2.3878    9.1403    4.4293 H         1 <0>         0.1177
     30 H7         -1.8349    6.3892   -2.1003 H         1 <0>         0.0663
     31 H8         -2.8804    7.4992   -1.1509 H         1 <0>         0.0578
     32 H9         -4.5569    6.0769    0.0552 H         1 <0>         0.1526
     33 H10         0.0038   -0.1340   -0.0031 H         1 <0>         0.4104
     34 H11         0.9340    1.5286    0.0105 H         1 <0>         0.4118
@<TRIPOS>BOND
     1    1    6 ar
     2    1    2 ar
     3    1   26 1
     4    2    3 ar
     5    2   27 1
     6    3    4 ar
     7    3    8 1
     8    4    5 ar
     9    4   28 1
    10    5    6 ar
    11    5    7 1
    12    6   29 1
    13    8    9 1
    14    8   10 1
    15    8   14 1
    16   10   11 1
    17   10   30 1
    18   10   31 1
    19   11   12 2
    20   11   13 1
    21   14   19 1
    22   14   15 2
    23   15   16 1
    24   15   32 1
    25   16   17 1
    26   16   18 1
    27   18   23 ar
    28   18   19 ar
    29   19   20 ar
    30   20   21 ar
    31   21   22 ar
    32   21   25 1
    33   22   23 ar
    34   23   24 1
    35   25   33 1
    36   25   34 1
@<TRIPOS>MOLECULE
ZINC05420970
   29    31     0     0     0
SMALL
USER_CHARGES
2-amino-7-(3-pyridylmethyl)-3,5-dihydropyrrolo[2,3-e]pyrimidin-4-one
@<TRIPOS>ATOM
      1 C1         -0.0837    3.7947    0.0223 C.ar      1 <0>        -0.1737
      2 C2          1.1498    3.1612    0.0076 C.ar      1 <0>        -0.0618
      3 C3          1.1797    1.7752    0.0003 C.ar      1 <0>        -0.1209
      4 C4         -0.0126    1.0758    0.0080 C.ar      1 <0>         0.0983
      5 N1         -1.1675    1.7118    0.0169 N.ar      1 <0>        -0.4867
      6 C5         -1.2339    3.0290    0.0292 C.ar      1 <0>         0.0877
      7 C6          2.4953    1.0405   -0.0162 C.3       1 <0>         0.0024
      8 C7          2.9203    0.8032   -1.4424 C.2       1 <0>        -0.1755
      9 C8          2.6925   -0.3136   -2.1628 C.2       1 <0>         0.0720
     10 N2          3.2208   -0.1660   -3.4087 N.pl3     1 <0>        -0.5363
     11 H1          3.1328   -0.9799   -4.1434 H         1 <0>         0.4518
     12 C9          3.8059    1.0795   -3.4971 C.2       1 <0>        -0.1349
     13 C10         3.6220    1.7134   -2.2627 C.2       1 <0>         0.1714
     14 N3          4.1100    2.9555   -2.0742 N.2       1 <0>        -0.5668
     15 C11         4.7453    3.5837   -3.0348 C.2       1 <0>         0.6242
     16 N4          4.9462    3.0138   -4.2578 N.am      1 <0>        -0.6682
     17 C12         4.4899    1.7687   -4.5158 C.2       1 <0>         0.5820
     18 O1          4.6670    1.2532   -5.6071 O.2       1 <0>        -0.5491
     19 N5          5.2220    4.8510   -2.8024 N.pl3     1 <0>        -0.8555
     20 H2         -0.1446    4.8730    0.0280 H         1 <0>         0.1314
     21 H3          2.0654    3.7339    0.0016 H         1 <0>         0.1366
     22 H4          0.0021   -0.0041    0.0020 H         1 <0>         0.1513
     23 H5         -2.1984    3.5147    0.0407 H         1 <0>         0.1518
     24 H6          3.2583    1.6431    0.4983 H         1 <0>         0.0854
     25 H7          2.3825    0.0748    0.4983 H         1 <0>         0.0816
     26 H8          2.1713   -1.1898   -1.8065 H         1 <0>         0.1796
     27 H9          5.7569    5.3917   -3.5971 H         1 <0>         0.4320
     28 H10         5.0688    5.3250   -1.8217 H         1 <0>         0.4506
     29 H11         5.4828    3.5685   -5.0416 H         1 <0>         0.4393
@<TRIPOS>BOND
     1    1    6 ar
     2    1    2 ar
     3    1   20 1
     4    2    3 ar
     5    2   21 1
     6    3    4 ar
     7    3    7 1
     8    4    5 ar
     9    4   22 1
    10    5    6 ar
    11    6   23 1
    12    7    8 1
    13    7   24 1
    14    7   25 1
    15    8   13 1
    16    8    9 2
    17    9   10 1
    18    9   26 1
    19   10   11 1
    20   10   12 1
    21   12   17 1
    22   12   13 2
    23   13   14 1
    24   14   15 2
    25   15   16 1
    26   15   19 1
    27   16   17 am
    28   16   29 1
    29   17   18 2
    30   19   27 1
    31   19   28 1
@<TRIPOS>MOLECULE
ZINC05420970
   28    30     0     0     0
SMALL
USER_CHARGES
2-amino-7-(3-pyridylmethyl)-3,5-dihydropyrrolo[2,3-e]pyrimidin-4-one
@<TRIPOS>ATOM
      1 C1         -0.0837    3.7947    0.0223 C.ar      1 <0>        -0.1747
      2 C2          1.1498    3.1612    0.0076 C.ar      1 <0>        -0.0590
      3 C3          1.1797    1.7752    0.0003 C.ar      1 <0>        -0.1038
      4 C4         -0.0126    1.0758    0.0080 C.ar      1 <0>         0.0917
      5 N1         -1.1675    1.7118    0.0169 N.ar      1 <0>        -0.4916
      6 C5         -1.2339    3.0290    0.0292 C.ar      1 <0>         0.0757
      7 C6          2.4953    1.0405   -0.0162 C.3       1 <0>         0.0121
      8 C7          2.9203    0.8032   -1.4424 C.2       1 <0>        -0.2037
      9 C8          2.6925   -0.3136   -2.1628 C.2       1 <0>         0.0251
     10 N2          3.2208   -0.1660   -3.4087 N.pl3     1 <0>        -0.5492
     11 H1          3.1328   -0.9799   -4.1434 H         1 <0>         0.4279
     12 C9          3.8059    1.0795   -3.4971 C.ar      1 <0>        -0.1682
     13 C10         3.6220    1.7134   -2.2627 C.ar      1 <0>         0.1722
     14 N3          4.1100    2.9555   -2.0742 N.ar      1 <0>        -0.6597
     15 C11         4.7453    3.5837   -3.0348 C.ar      1 <0>         0.5872
     16 N4          4.9462    3.0138   -4.2578 N.ar      1 <0>        -0.7124
     17 C12         4.4899    1.7687   -4.5158 C.ar      1 <0>         0.5403
     18 O1          4.6670    1.2532   -5.6071 O.3       1 <0>        -0.6337
     19 N5          5.2220    4.8510   -2.8024 N.pl3     1 <0>        -0.8612
     20 H2         -0.1446    4.8730    0.0280 H         1 <0>         0.1275
     21 H3          2.0654    3.7339    0.0016 H         1 <0>         0.1390
     22 H4          0.0021   -0.0041    0.0020 H         1 <0>         0.1485
     23 H5         -2.1984    3.5147    0.0407 H         1 <0>         0.1465
     24 H6          3.2583    1.6431    0.4983 H         1 <0>         0.0767
     25 H7          2.3825    0.0748    0.4983 H         1 <0>         0.0667
     26 H8          2.1713   -1.1898   -1.8065 H         1 <0>         0.1539
     27 H9          5.7569    5.3917   -3.5971 H         1 <0>         0.4156
     28 H10         5.0688    5.3250   -1.8217 H         1 <0>         0.4106
@<TRIPOS>BOND
     1    1    6 ar
     2    1    2 ar
     3    1   20 1
     4    2    3 ar
     5    2   21 1
     6    3    4 ar
     7    3    7 1
     8    4    5 ar
     9    4   22 1
    10    5    6 ar
    11    6   23 1
    12    7    8 1
    13    7   24 1
    14    7   25 1
    15    8   13 1
    16    8    9 2
    17    9   10 1
    18    9   26 1
    19   10   11 1
    20   10   12 1
    21   12   17 ar
    22   12   13 ar
    23   13   14 ar
    24   14   15 ar
    25   15   16 ar
    26   15   19 1
    27   16   17 ar
    28   17   18 1
    29   19   27 1
    30   19   28 1
@<TRIPOS>MOLECULE
ZINC27758564
   25    27     0     0     0
SMALL
USER_CHARGES
2-amino-8-(3-pyridyl)-7H-purin-6-ol
@<TRIPOS>ATOM
      1 C1          0.9950    5.5499    0.0215 C.ar      1 <0>        -0.1672
      2 C2          0.5955    4.2248    0.0187 C.ar      1 <0>        -0.0652
      3 C3          1.5837    3.2341    0.0039 C.ar      1 <0>        -0.0695
      4 C4          2.9248    3.6198   -0.0016 C.ar      1 <0>         0.1483
      5 N1          3.2549    4.8946   -0.0042 N.ar      1 <0>        -0.4777
      6 C5          2.3450    5.8500    0.0097 C.ar      1 <0>         0.1102
      7 C6          1.2132    1.8023    0.0002 C.2       1 <0>         0.2635
      8 N2          2.0971    0.7616   -0.0139 N.2       1 <0>        -0.3936
      9 H1          0.8787   -3.7107   -0.0234 H         1 <0>         0.4546
     10 C7          1.3509   -0.4014   -0.0130 C.2       1 <0>        -0.1164
     11 C8          0.0021   -0.0041    0.0030 C.2       1 <0>         0.2985
     12 N3         -0.0161    1.3394    0.0100 N.pl3     1 <0>        -0.5244
     13 N4         -0.9452   -0.9488    0.0080 N.2       1 <0>        -0.5811
     14 C9         -0.6155   -2.2282   -0.0013 C.2       1 <0>         0.6525
     15 N5          0.6475   -2.6353   -0.0160 N.am      1 <0>        -0.6151
     16 C10         1.6493   -1.7628   -0.0218 C.2       1 <0>         0.5410
     17 O1          2.9360   -2.1881   -0.0362 O.2       1 <0>        -0.5752
     18 N6         -1.6242   -3.1785    0.0043 N.pl3     1 <0>        -0.8487
     19 H2          0.2602    6.3414    0.0331 H         1 <0>         0.1434
     20 H3         -0.4521    3.9621    0.0273 H         1 <0>         0.1330
     21 H4          3.6985    2.8664   -0.0081 H         1 <0>         0.1725
     22 H5          2.6596    6.8831    0.0122 H         1 <0>         0.1623
     23 H6         -0.9760    1.8764    0.0222 H         1 <0>         0.4583
     24 H7         -2.6777   -2.8623    0.0164 H         1 <0>         0.4555
     25 H8         -1.3713   -4.2490   -0.0033 H         1 <0>         0.4407
@<TRIPOS>BOND
     1    1    6 ar
     2    1    2 ar
     3    1   19 1
     4    2    3 ar
     5    2   20 1
     6    3    4 ar
     7    3    7 1
     8    4    5 ar
     9    4   21 1
    10    5    6 ar
    11    6   22 1
    12    7   12 1
    13    7    8 2
    14    8   10 1
    15    9   15 1
    16   10   11 2
    17   10   16 1
    18   11   12 1
    19   11   13 1
    20   12   23 1
    21   13   14 2
    22   14   15 1
    23   14   18 1
    24   15   16 am
    25   16   17 2
    26   18   25 1
    27   18   24 1
@<TRIPOS>MOLECULE
ZINC13440025
   35    37     0     0     0
SMALL
USER_CHARGES
2,8-diamino-9-[(2R,3R,4S,5R)-3,4-dihydroxy-5-(hydroxymethyl)tetrahydrofuran-2-yl]-1H-purin-6-one
@<TRIPOS>ATOM
      1 C1          2.9483    2.4376   -1.6360 C.3       1 <0>         0.0819
      2 C2          1.7778    1.4885   -1.3714 C.3       1 <0>         0.0466
      3 H1          2.0672    0.4604   -1.5889 H         1 <0>         0.1009
      4 C3          0.5519    1.8931   -2.2198 C.3       1 <0>         0.0460
      5 H2          0.6013    2.9498   -2.4828 H         1 <0>         0.0879
      6 C4         -0.6531    1.6221   -1.2915 C.3       1 <0>         0.0768
      7 H3         -1.1994    2.5448   -1.0955 H         1 <0>         0.0874
      8 C5         -0.0127    1.0858    0.0080 C.3       1 <0>         0.3051
      9 H4          0.0021   -0.0041    0.0020 H         1 <0>         0.1297
     10 O1          1.3342    1.6070   -0.0021 O.3       1 <0>        -0.3479
     11 N1         -0.7415    1.5786    1.1795 N.pl3     1 <0>        -0.4673
     12 C6         -1.5853    0.8469    1.9773 C.2       1 <0>         0.2838
     13 C7         -2.0460    1.7218    2.9655 C.2       1 <0>        -0.0884
     14 C8         -2.9408    1.2295    3.9418 C.2       1 <0>         0.5867
     15 O2         -3.3719    1.9594    4.8187 O.2       1 <0>        -0.5076
     16 N2         -3.3076   -0.0696    3.8801 N.am      1 <0>        -0.6370
     17 H5         -3.9398   -0.4410    4.5601 H         1 <0>         0.4317
     18 C9         -2.8200   -0.8761    2.8954 C.2       1 <0>         0.5908
     19 N3         -1.9870   -0.4297    1.9822 N.2       1 <0>        -0.5496
     20 N4         -3.2098   -2.1923    2.8568 N.pl3     1 <0>        -0.7462
     21 N5         -1.4809    2.9352    2.7289 N.2       1 <0>        -0.4743
     22 C10        -0.7099    2.8539    1.6747 C.2       1 <0>         0.5197
     23 N6          0.0248    3.8975    1.1424 N.pl3     1 <0>        -0.8244
     24 O3         -1.5171    0.6397   -1.8663 O.3       1 <0>        -0.5286
     25 O4          0.4707    1.0885   -3.3979 O.3       1 <0>        -0.5382
     26 O5          4.0828    2.0185   -0.8750 O.3       1 <0>        -0.5616
     27 H6          3.1965    2.4213   -2.6973 H         1 <0>         0.0682
     28 H7          2.6686    3.4498   -1.3439 H         1 <0>         0.0590
     29 H8         -2.9405   -2.6447    3.7070 H         1 <0>         0.3720
     30 H9         -2.8710   -2.7782    2.1620 H         1 <0>         0.3949
     31 H10         0.5734    3.7526    0.3556 H         1 <0>         0.4086
     32 H11        -0.0085    4.7744    1.5556 H         1 <0>         0.4250
     33 H12        -1.9461    0.9239   -2.6850 H         1 <0>         0.3930
     34 H13         1.2322    1.1763   -3.9874 H         1 <0>         0.3884
     35 H14         4.8640    2.5759   -0.9940 H         1 <0>         0.3871
@<TRIPOS>BOND
     1    1    2 1
     2    1   26 1
     3    1   27 1
     4    1   28 1
     5    2    3 1
     6    2   10 1
     7    2    4 1
     8    4    5 1
     9    4    6 1
    10    4   25 1
    11    6    7 1
    12    6    8 1
    13    6   24 1
    14    8    9 1
    15    8   10 1
    16    8   11 1
    17   11   22 1
    18   11   12 1
    19   12   19 1
    20   12   13 2
    21   13   14 1
    22   13   21 1
    23   14   15 2
    24   14   16 am
    25   16   17 1
    26   16   18 1
    27   18   19 2
    28   18   20 1
    29   20   29 1
    30   20   30 1
    31   21   22 2
    32   22   23 1
    33   23   31 1
    34   23   32 1
    35   24   33 1
    36   25   34 1
    37   26   35 1
@<TRIPOS>MOLECULE
ZINC05117007
   20    21     0     0     0
SMALL
USER_CHARGES

@<TRIPOS>ATOM
      1 C1         -0.0163    1.3541    0.0095 C.2       1 <0>        -0.3166
      2 C2          1.2049    2.0651    0.0016 C.2       1 <0>         0.2337
      3 C3          2.4060    1.3425   -0.0137 C.2       1 <0>        -0.1135
      4 C4          2.3679   -0.0541   -0.0204 C.2       1 <0>         0.5902
      5 O1          3.4082   -0.6939   -0.0334 O.2       1 <0>        -0.5075
      6 N1          1.1824   -0.6946   -0.0122 N.am      1 <0>        -0.6201
      7 H1          1.1658   -1.6645   -0.0166 H         1 <0>         0.4343
      8 C5          0.0021   -0.0041    0.0020 C.2       1 <0>         0.5057
      9 N2         -1.1922   -0.6998    0.0097 N.pl3     1 <0>        -0.8302
     10 N3          3.4243    2.2877   -0.0188 N.pl3     1 <0>        -0.5144
     11 H2          4.3777    2.1091   -0.0290 H         1 <0>         0.4643
     12 C6          2.8293    3.5122   -0.0068 C.cat     1 <0>         0.6314
     13 N4          1.5229    3.3706    0.0052 N.pl3     1 <0>        -0.5312
     14 N5          3.4958    4.7170   -0.0067 N.pl3     1 <0>        -0.7937
     15 H3         -0.9562    1.8860    0.0258 H         1 <0>         0.1687
     16 H4         -2.0341   -0.2182    0.0203 H         1 <0>         0.4331
     17 H5         -1.1884   -1.6698    0.0044 H         1 <0>         0.4181
     18 H6          4.4656    4.7348   -0.0161 H         1 <0>         0.4438
     19 H7          2.9955    5.5480    0.0027 H         1 <0>         0.4430
     20 H8          0.8835    4.0999    0.0146 H         1 <0>         0.4609
@<TRIPOS>BOND
     1    1    8 2
     2    1    2 1
     3    1   15 1
     4    2   13 1
     5    2    3 2
     6    3    4 1
     7    3   10 1
     8    4    5 2
     9    4    6 am
    10    6    7 1
    11    6    8 1
    12    8    9 1
    13    9   16 1
    14    9   17 1
    15   10   11 1
    16   10   12 1
    17   12   13 2
    18   12   14 1
    19   13   20 1
    20   14   18 1
    21   14   19 1
@<TRIPOS>MOLECULE
ZINC05117007
   20    21     0     0     0
SMALL
USER_CHARGES
3,8-diamino-4,7,9-triazabicyclo[4.3.0]nona-2,7,10-trien-5-one
@<TRIPOS>ATOM
      1 C1          1.1593    2.0637    0.0021 C.2       1 <0>        -0.3193
      2 C2          1.1423    3.4659    0.0093 C.2       1 <0>         0.2540
      3 C3         -0.0875    4.1357    0.0242 C.2       1 <0>        -0.1380
      4 C4         -1.2768    3.3798    0.0308 C.2       1 <0>         0.5927
      5 O1         -2.3596    3.9428    0.0433 O.2       1 <0>        -0.5085
      6 N1         -1.2154    2.0339    0.0189 N.am      1 <0>        -0.6246
      7 H1         -2.0638    1.5046    0.0168 H         1 <0>         0.4411
      8 C5         -0.0167    1.3777    0.0096 C.2       1 <0>         0.5113
      9 N2          0.0021   -0.0041    0.0020 N.pl3     1 <0>        -0.8285
     10 C6          1.4773    5.6507    0.0184 C.cat     1 <0>         0.6255
     11 N3          2.1131    4.4388    0.0059 N.pl3     1 <0>        -0.5685
     12 H2          3.1017    4.2888   -0.0039 H         1 <0>         0.4693
     13 N4          2.1086    6.8807    0.0194 N.pl3     1 <0>        -0.7993
     14 H3          2.0990    1.5315   -0.0098 H         1 <0>         0.1677
     15 H4          0.8486   -0.4776   -0.0086 H         1 <0>         0.4333
     16 H5         -0.8313   -0.5005    0.0073 H         1 <0>         0.4183
     17 H6          3.0774    6.9287    0.0109 H         1 <0>         0.4414
     18 H7          1.5828    7.6958    0.0287 H         1 <0>         0.4420
     19 N5          0.1819    5.4686    0.0291 N.pl3     1 <0>        -0.4875
     20 H8         -0.5220    6.2160    0.0396 H         1 <0>         0.4775
@<TRIPOS>BOND
     1    1    8 2
     2    1    2 1
     3    1   14 1
     4    2   11 1
     5    2    3 2
     6    3    4 1
     7    3   19 1
     8    4    5 2
     9    4    6 am
    10    6    7 1
    11    6    8 1
    12    8    9 1
    13    9   15 1
    14    9   16 1
    15   10   11 1
    16   10   13 1
    17   10   19 2
    18   11   12 1
    19   13   17 1
    20   13   18 1
    21   19   20 1
@<TRIPOS>MOLECULE
ZINC05117007
   19    20     0     0     0
SMALL
USER_CHARGES

@<TRIPOS>ATOM
      1 C1         -0.0164    1.3572    0.0095 C.2       1 <0>        -0.2930
      2 C2          1.1940    2.0656    0.0018 C.2       1 <0>         0.1423
      3 C3          2.4019    1.3572   -0.0136 C.2       1 <0>        -0.0844
      4 C4          2.3673   -0.0516   -0.0208 C.2       1 <0>         0.5874
      5 N1          1.1824   -0.6928   -0.0130 N.am      1 <0>        -0.6312
      6 C5          0.0021   -0.0041    0.0020 C.2       1 <0>         0.4466
      7 N2         -1.1915   -0.7004    0.0101 N.pl3     1 <0>        -0.8576
      8 O1          3.4080   -0.6891   -0.0346 O.2       1 <0>        -0.5248
      9 N3          3.4055    2.2752   -0.0182 N.2       1 <0>        -0.4791
     10 C6          2.8931    3.4791   -0.0069 C.2       1 <0>         0.4919
     11 N4          1.5270    3.3990    0.0057 N.pl3     1 <0>        -0.5956
     12 H1          0.9079    4.1457    0.0152 H         1 <0>         0.4208
     13 N5          3.6216    4.6542   -0.0068 N.pl3     1 <0>        -0.8368
     14 H2         -0.9568    1.8881    0.0258 H         1 <0>         0.1400
     15 H3         -2.0337   -0.2192    0.0211 H         1 <0>         0.4207
     16 H4         -1.1872   -1.6704    0.0049 H         1 <0>         0.4049
     17 H5          4.5911    4.6239   -0.0161 H         1 <0>         0.4241
     18 H6          3.1632    5.5090    0.0025 H         1 <0>         0.4080
     19 H7          1.1668   -1.6627   -0.0183 H         1 <0>         0.4160
@<TRIPOS>BOND
     1    1    6 2
     2    1    2 1
     3    1   14 1
     4    2   11 1
     5    2    3 2
     6    3    4 1
     7    3    9 1
     8    4    5 am
     9    4    8 2
    10    5    6 1
    11    5   19 1
    12    6    7 1
    13    7   15 1
    14    7   16 1
    15    9   10 2
    16   10   11 1
    17   10   13 1
    18   11   12 1
    19   13   17 1
    20   13   18 1
@<TRIPOS>MOLECULE
ZINC13798500
   35    37     0     0     0
SMALL
USER_CHARGES

@<TRIPOS>ATOM
      1 C1         -0.0167    1.3777    0.0096 C.ar      1 <0>        -0.1072
      2 C2          1.1710    2.0855    0.0021 C.ar      1 <0>        -0.1113
      3 C3          2.3777    1.4116   -0.0130 C.ar      1 <0>        -0.0400
      4 C4          2.3977    0.0294   -0.0210 C.ar      1 <0>        -0.1088
      5 C5          1.2098   -0.6793   -0.0135 C.ar      1 <0>        -0.0319
      6 C6          0.0021   -0.0041    0.0020 C.ar      1 <0>        -0.1278
      7 Cl1         1.2341   -2.4151   -0.0242 Cl        1 <0>        -0.0840
      8 C7          3.6718    2.1839   -0.0212 C.3       1 <0>         0.0419
      9 H1          3.4573    3.2525   -0.0135 H         1 <0>         0.0979
     10 C8          4.4912    1.8192    1.2183 C.3       1 <0>        -0.1728
     11 C9          5.7270    2.6798    1.2746 C.2       1 <0>         0.4894
     12 O1          5.9333    3.5080    0.4040 O.co2     1 <0>        -0.6720
     13 O2          6.5206    2.5478    2.1908 O.co2     1 <0>        -0.7152
     14 C10         4.4554    1.8378   -1.2611 C.2       1 <0>        -0.1066
     15 C11         4.8901    0.6095   -1.6078 C.2       1 <0>         0.0576
     16 N1          5.5608    0.6821   -2.7903 N.pl3     1 <0>        -0.5309
     17 H2          5.9711   -0.0645   -3.2540 H         1 <0>         0.4179
     18 C12         5.5601    1.9923   -3.2202 C.2       1 <0>        -0.1495
     19 C13         4.8590    2.7416   -2.2682 C.2       1 <0>         0.2032
     20 N2          4.7033    4.0680   -2.4494 N.2       1 <0>        -0.5164
     21 C14         5.1966    4.6668   -3.5072 C.2       1 <0>         0.5964
     22 N3          5.8843    3.9828   -4.4666 N.am      1 <0>        -0.6521
     23 C15         6.0862    2.6524   -4.3463 C.2       1 <0>         0.5833
     24 O3          6.6992    2.0349   -5.2012 O.2       1 <0>        -0.5630
     25 N4          5.0152    6.0207   -3.6532 N.pl3     1 <0>        -0.8346
     26 H3         -0.9592    1.9048    0.0259 H         1 <0>         0.1272
     27 H4          1.1559    3.1654    0.0076 H         1 <0>         0.1295
     28 H5          3.3407   -0.4970   -0.0336 H         1 <0>         0.1300
     29 H6         -0.9257   -0.5568    0.0079 H         1 <0>         0.1260
     30 H7          3.8910    1.9863    2.1127 H         1 <0>         0.0583
     31 H8          4.7813    0.7698    1.1663 H         1 <0>         0.0543
     32 H9          4.7312   -0.2926   -1.0357 H         1 <0>         0.1717
     33 H10         4.5281    6.5202   -2.9794 H         1 <0>         0.4251
     34 H11         5.3742    6.4771   -4.4302 H         1 <0>         0.4053
     35 H12         6.2356    4.4558   -5.2371 H         1 <0>         0.4089
@<TRIPOS>BOND
     1    1    6 ar
     2    1    2 ar
     3    1   26 1
     4    2    3 ar
     5    2   27 1
     6    3    4 ar
     7    3    8 1
     8    4    5 ar
     9    4   28 1
    10    5    6 ar
    11    5    7 1
    12    6   29 1
    13    8    9 1
    14    8   10 1
    15    8   14 1
    16   10   11 1
    17   10   30 1
    18   10   31 1
    19   11   12 2
    20   11   13 1
    21   14   19 1
    22   14   15 2
    23   15   16 1
    24   15   32 1
    25   16   17 1
    26   16   18 1
    27   18   23 1
    28   18   19 2
    29   19   20 1
    30   20   21 2
    31   21   22 1
    32   21   25 1
    33   22   23 am
    34   22   35 1
    35   23   24 2
    36   25   33 1
    37   25   34 1
@<TRIPOS>MOLECULE
ZINC13514984
   18    19     0     0     0
SMALL
USER_CHARGES

@<TRIPOS>ATOM
      1 C1         -0.0164    1.3551    0.0095 C.2       1 <0>        -0.1160
      2 C2         -1.3560    1.7543    0.0177 C.2       1 <0>         0.2980
      3 N1         -2.1006    0.6013    0.0148 N.pl3     1 <0>        -0.5807
      4 H1         -3.0689    0.5438    0.0183 H         1 <0>         0.4252
      5 C3         -1.2273   -0.4522    0.0051 C.2       1 <0>         0.5025
      6 N2          0.0021   -0.0041    0.0020 N.2       1 <0>        -0.4735
      7 N3         -1.5890   -1.7869   -0.0001 N.pl3     1 <0>        -0.8323
      8 N4         -1.6595    3.0578    0.0257 N.2       1 <0>        -0.5771
      9 C4         -0.7178    3.9744    0.0261 C.2       1 <0>         0.6477
     10 N5          0.6052    3.6466    0.0179 N.am      1 <0>        -0.6536
     11 H2          1.2761    4.3471    0.0185 H         1 <0>         0.4194
     12 C5          0.9865    2.3502    0.0053 C.2       1 <0>         0.5899
     13 O1          2.1677    2.0466   -0.0077 O.2       1 <0>        -0.5106
     14 N6         -1.0767    5.2999    0.0346 N.pl3     1 <0>        -0.8206
     15 H3         -2.5266   -2.0354    0.0031 H         1 <0>         0.4099
     16 H4         -0.9050   -2.4747   -0.0070 H         1 <0>         0.4262
     17 H5         -2.0143    5.5484    0.0401 H         1 <0>         0.4286
     18 H6         -0.3927    5.9876    0.0349 H         1 <0>         0.4171
@<TRIPOS>BOND
     1    1    6 1
     2    1   12 1
     3    1    2 2
     4    2    3 1
     5    2    8 1
     6    3    4 1
     7    3    5 1
     8    5    6 2
     9    5    7 1
    10    7   15 1
    11    7   16 1
    12    8    9 2
    13    9   10 1
    14    9   14 1
    15   10   11 1
    16   10   12 am
    17   12   13 2
    18   14   17 1
    19   14   18 1
@<TRIPOS>MOLECULE
ZINC13514984
   18    19     0     0     0
SMALL
USER_CHARGES

@<TRIPOS>ATOM
      1 C1         -0.0169    1.3964    0.0097 C.2       1 <0>        -0.2071
      2 C2         -1.2487    2.0609    0.0182 C.2       1 <0>         0.3751
      3 N1         -2.3857    1.3381    0.0191 N.2       1 <0>        -0.5555
      4 C3         -2.3522    0.0261    0.0121 C.2       1 <0>         0.6432
      5 N2         -1.1769   -0.6648    0.0037 N.am      1 <0>        -0.6526
      6 C4          0.0021   -0.0041    0.0020 C.2       1 <0>         0.5896
      7 O1          1.0592   -0.6138   -0.0109 O.2       1 <0>        -0.5447
      8 N3         -3.5352   -0.6709    0.0137 N.pl3     1 <0>        -0.8211
      9 N4         -0.9896    3.3782    0.0236 N.2       1 <0>        -0.5317
     10 C5          0.3097    3.5800    0.0191 C.2       1 <0>         0.5608
     11 N5          0.9587    2.3840    0.0057 N.pl3     1 <0>        -0.5678
     12 H1          1.9190    2.2476   -0.0037 H         1 <0>         0.4261
     13 N6          0.9204    4.8135    0.0219 N.pl3     1 <0>        -0.8220
     14 H2         -4.3795   -0.1934    0.0200 H         1 <0>         0.4302
     15 H3         -3.5266   -1.6408    0.0086 H         1 <0>         0.4154
     16 H4          0.3828    5.6208    0.0280 H         1 <0>         0.4288
     17 H5          1.8884    4.8754    0.0178 H         1 <0>         0.4144
     18 H6         -1.1870   -1.6348   -0.0014 H         1 <0>         0.4189
@<TRIPOS>BOND
     1    1    6 1
     2    1   11 1
     3    1    2 2
     4    2    3 1
     5    2    9 1
     6    3    4 2
     7    4    5 1
     8    4    8 1
     9    5    6 am
    10    5   18 1
    11    6    7 2
    12    8   14 1
    13    8   15 1
    14    9   10 2
    15   10   11 1
    16   10   13 1
    17   11   12 1
    18   13   16 1
    19   13   17 1
@<TRIPOS>MOLECULE
ZINC16958226
   31    33     0     0     0
SMALL
USER_CHARGES
2,8-diamino-9-benzyl-3H-purin-6-one
@<TRIPOS>ATOM
      1 C1          3.5026   -1.3571   -4.0676 C.ar      1 <0>        -0.1095
      2 C2          4.5401   -0.7108   -3.4218 C.ar      1 <0>        -0.1220
      3 C3          4.3847   -0.2890   -2.1146 C.ar      1 <0>        -0.0992
      4 C4          3.1917   -0.5136   -1.4532 C.ar      1 <0>        -0.1181
      5 C5          2.1562   -1.1645   -2.0971 C.ar      1 <0>        -0.0884
      6 C6          2.3098   -1.5816   -3.4060 C.ar      1 <0>        -0.1223
      7 C7          3.0225   -0.0541   -0.0279 C.3       1 <0>         0.1518
      8 N1          2.4899    1.3106   -0.0148 N.pl3     1 <0>        -0.4683
      9 C8          1.1706    1.6622   -0.0003 C.2       1 <0>         0.2850
     10 C9          1.1315    3.0494    0.0076 C.2       1 <0>        -0.1222
     11 C10        -0.1791    3.7037    0.0234 C.2       1 <0>         0.5869
     12 O1         -0.2678    4.9219    0.0305 O.2       1 <0>        -0.5152
     13 N2         -1.2804    2.9364    0.0297 N.am      1 <0>        -0.6482
     14 C11        -1.1995    1.6233    0.0163 C.2       1 <0>         0.6386
     15 N3         -0.0111    0.9658    0.0072 N.2       1 <0>        -0.5838
     16 H1         -2.2650    3.4266    0.0465 H         1 <0>         0.4427
     17 N4         -2.3577    0.8917    0.0113 N.pl3     1 <0>        -0.8490
     18 N5          2.4138    3.4942   -0.0022 N.2       1 <0>        -0.4868
     19 C12         3.2237    2.4651   -0.0155 C.2       1 <0>         0.5058
     20 N6          4.6053    2.5346   -0.0283 N.pl3     1 <0>        -0.8585
     21 H2          3.6243   -1.6870   -5.0888 H         1 <0>         0.1238
     22 H3          5.4721   -0.5357   -3.9385 H         1 <0>         0.1248
     23 H4          5.1953    0.2156   -1.6100 H         1 <0>         0.1191
     24 H5          1.2259   -1.3439   -1.5789 H         1 <0>         0.1281
     25 H6          1.4994   -2.0869   -3.9105 H         1 <0>         0.1242
     26 H7          2.3240   -0.7254    0.4932 H         1 <0>         0.1071
     27 H8          3.9973   -0.0722    0.4814 H         1 <0>         0.0969
     28 H9         -2.3139   -0.2074    0.0001 H         1 <0>         0.4514
     29 H10        -3.3315    1.4033    0.0185 H         1 <0>         0.4365
     30 H11         5.1068    3.5136   -0.0278 H         1 <0>         0.4477
     31 H12         5.2024    1.6108   -0.0390 H         1 <0>         0.4213
@<TRIPOS>BOND
     1    1    6 ar
     2    1    2 ar
     3    1   21 1
     4    2    3 ar
     5    2   22 1
     6    3    4 ar
     7    3   23 1
     8    4    5 ar
     9    4    7 1
    10    5    6 ar
    11    5   24 1
    12    6   25 1
    13    7   26 1
    14    7   27 1
    15    7    8 1
    16    8    9 1
    17    8   19 1
    18    9   15 1
    19    9   10 2
    20   10   18 1
    21   10   11 1
    22   11   13 am
    23   11   12 2
    24   13   16 1
    25   13   14 1
    26   14   17 1
    27   14   15 2
    28   17   29 1
    29   17   28 1
    30   18   19 2
    31   19   20 1
    32   20   30 1
    33   20   31 1
