@<TRIPOS>MOLECULE
ZINC36175852
   23    25     0     0     0
SMALL
USER_CHARGES

@<TRIPOS>ATOM
      1 C1         -0.0187    1.5258    0.0104 C.3       1 <0>        -0.1274
      2 C2          0.0021   -0.0041    0.0020 C.3       1 <0>        -0.1474
      3 C3          0.6616   -0.6174   -1.2679 C.3       1 <0>         0.0837
      4 H1          0.0370   -0.6220   -2.1612 H         1 <0>         0.1456
      5 C4          2.0311    0.1107   -1.4165 C.3       1 <0>        -0.1495
      6 C5          2.8732   -0.5054   -0.2704 C.3       1 <0>        -0.1424
      7 C6          1.8778   -1.5067    0.3885 C.3       1 <0>         0.0803
      8 H2          2.3375   -2.3114    0.9623 H         1 <0>         0.1470
      9 C7          0.8402   -0.6387    1.1595 C.3       1 <0>        -0.1749
     10 H3          1.3180    0.0895    1.8150 H         1 <0>         0.1515
     11 C8         -0.1786   -1.5331    1.8435 C.2       1 <0>         0.5119
     12 O1         -0.1118   -1.9725    2.9670 O.2       1 <0>        -0.4015
     13 O2         -1.1726   -1.7421    0.9566 O.3       1 <0>        -0.3269
     14 C9         -1.3626   -0.6376    0.2067 C.2       1 <0>         0.5119
     15 O3         -2.4168   -0.2300   -0.2201 O.2       1 <0>        -0.3990
     16 O4          1.0698   -1.9346   -0.7742 O.3       1 <0>        -0.3598
     17 H4          1.0036    1.9028    0.0397 H         1 <0>         0.0852
     18 H5         -0.5136    1.8874   -0.8909 H         1 <0>         0.0826
     19 H6         -0.5608    1.8770    0.8884 H         1 <0>         0.0713
     20 H7          2.4806   -0.1062   -2.3856 H         1 <0>         0.0881
     21 H8          1.9145    1.1852   -1.2755 H         1 <0>         0.0927
     22 H9          3.7419   -1.0299   -0.6682 H         1 <0>         0.0895
     23 H10         3.1767    0.2622    0.4415 H         1 <0>         0.0875
@<TRIPOS>BOND
     1    1    2 1
     2    1   17 1
     3    1   18 1
     4    1   19 1
     5    2    9 1
     6    2   14 1
     7    2    3 1
     8    3    4 1
     9    3   16 1
    10    3    5 1
    11    5    6 1
    12    5   20 1
    13    5   21 1
    14    6    7 1
    15    6   22 1
    16    6   23 1
    17    7    8 1
    18    7    9 1
    19    7   16 1
    20    9   10 1
    21    9   11 1
    22   11   12 2
    23   11   13 1
    24   13   14 1
    25   14   15 2
@<TRIPOS>MOLECULE
ZINC08195636
   20    22     0     0     0
SMALL
USER_CHARGES

@<TRIPOS>ATOM
      1 C1         -0.0191    1.5538    0.0106 C.3       1 <0>        -0.1466
      2 C2          1.4878    1.9169   -0.0019 C.3       1 <0>        -0.1455
      3 C3          2.1788    0.5205   -0.0170 C.3       1 <0>         0.0789
      4 H1          3.2003    0.5102   -0.3973 H         1 <0>         0.1474
      5 C4          1.9986   -0.0464    1.4218 C.3       1 <0>        -0.1771
      6 H2          2.3091    0.6414    2.2083 H         1 <0>         0.1534
      7 C5          0.4785   -0.4114    1.4546 C.3       1 <0>        -0.1764
      8 H3         -0.0748    0.0565    2.2689 H         1 <0>         0.1533
      9 C6          0.0021   -0.0041    0.0020 C.3       1 <0>         0.0821
     10 H4         -0.9130   -0.4806   -0.3497 H         1 <0>         0.1502
     11 O1          1.2111   -0.2706   -0.7807 O.3       1 <0>        -0.3561
     12 C7          0.5116   -1.9277    1.5266 C.2       1 <0>         0.5079
     13 O2         -0.3829   -2.6507    1.8966 O.2       1 <0>        -0.4050
     14 O3          1.7308   -2.3126    1.0980 O.3       1 <0>        -0.3364
     15 C8          2.6822   -1.4009    1.4856 C.2       1 <0>         0.5138
     16 O4          3.8238   -1.6161    1.8174 O.2       1 <0>        -0.3952
     17 H5         -0.4992    1.9286    0.9145 H         1 <0>         0.0875
     18 H6         -0.5163    1.9382   -0.8799 H         1 <0>         0.0884
     19 H7          1.7412    2.4829   -0.8982 H         1 <0>         0.0885
     20 H8          1.7586    2.4721    0.8962 H         1 <0>         0.0871
@<TRIPOS>BOND
     1    1    9 1
     2    1    2 1
     3    1   17 1
     4    1   18 1
     5    2    3 1
     6    2   19 1
     7    2   20 1
     8    3    4 1
     9    3   11 1
    10    3    5 1
    11    5    6 1
    12    5   15 1
    13    5    7 1
    14    7    8 1
    15    7    9 1
    16    7   12 1
    17    9   10 1
    18    9   11 1
    19   12   13 2
    20   12   14 1
    21   14   15 1
    22   15   16 2
@<TRIPOS>MOLECULE
ZINC14952759
   56    58     0     0     0
SMALL
USER_CHARGES

@<TRIPOS>ATOM
      1 C1         -0.4758    1.4574   -1.6124 C.3       1 <0>         0.0993
      2 N1         -0.4488   -0.0074   -1.6164 N.am      1 <0>        -0.7322
      3 C2          0.5695   -0.6641   -1.0263 C.2       1 <0>         0.5424
      4 O1          1.4634   -0.0426   -0.4920 O.2       1 <0>        -0.5311
      5 C3          0.5974   -2.1709   -1.0303 C.3       1 <0>         0.1258
      6 H1         -0.4170   -2.5586   -0.9369 H         1 <0>         0.0965
      7 C4          1.4525   -2.6752    0.1310 C.3       1 <0>        -0.0719
      8 C5          1.7567   -4.1422   -0.0245 C.ar      1 <0>        -0.1031
      9 C6          2.1395   -4.8437    1.1135 C.ar      1 <0>        -0.0942
     10 C7          2.4424   -6.1858    1.0435 C.ar      1 <0>        -0.1531
     11 C8          2.3662   -6.8471   -0.1761 C.ar      1 <0>         0.1949
     12 C9          1.9808   -6.1485   -1.3098 C.ar      1 <0>        -0.1443
     13 C10         1.6719   -4.7984   -1.2326 C.ar      1 <0>        -0.0848
     14 C11         1.2346   -4.1048   -2.4985 C.3       1 <0>         0.1524
     15 N2          1.2021   -2.6545   -2.2825 N.am      1 <0>        -0.6044
     16 C12         1.7067   -1.7989   -3.1935 C.2       1 <0>         0.5157
     17 O2          1.7576   -0.6123   -2.9479 O.2       1 <0>        -0.5114
     18 C13         2.2076   -2.3166   -4.5172 C.3       1 <0>        -0.1339
     19 C14         2.7238   -1.1482   -5.3594 C.3       1 <0>        -0.0554
     20 C15         3.2247   -1.6659   -6.6831 C.ar      1 <0>        -0.0731
     21 C16         4.5457   -2.0526   -6.8184 C.ar      1 <0>        -0.1469
     22 C17         5.0095   -2.5278   -8.0312 C.ar      1 <0>        -0.0955
     23 C18         4.1541   -2.6181   -9.1120 C.ar      1 <0>        -0.1631
     24 C19         2.8269   -2.2311   -8.9795 C.ar      1 <0>         0.1920
     25 C20         2.3629   -1.7590   -7.7579 C.ar      1 <0>        -0.1469
     26 N3          1.9592   -2.3211  -10.0703 N.pl3     1 <0>        -1.0870
     27 S1          1.9521   -3.6830  -11.0124 S.o2      1 <0>         2.7741
     28 O3          1.0440   -3.4262  -12.1194 O.2       1 <0>        -1.0817
     29 O4          3.3184   -3.8892  -11.4672 O.2       1 <0>        -1.0777
     30 O5          1.4886   -4.7758  -10.1716 O.3       1 <0>        -1.0754
     31 N4          2.6762   -8.2064   -0.2594 N.pl3     1 <0>        -1.0858
     32 S2          2.0863   -9.2612    0.8727 S.o2      1 <0>         2.7750
     33 O6          2.6750  -10.5603    0.5870 O.2       1 <0>        -1.0795
     34 O7          2.4930   -8.7547    2.1743 O.2       1 <0>        -1.0784
     35 O8          0.6394   -9.2755    0.7232 O.3       1 <0>        -1.0775
     36 H2         -0.4910    1.8177   -0.5838 H         1 <0>         0.0516
     37 H3          0.4115    1.8385   -2.1179 H         1 <0>         0.0603
     38 H4         -1.3681    1.8057   -2.1326 H         1 <0>         0.0663
     39 H5         -1.1637   -0.5045   -2.0437 H         1 <0>         0.3954
     40 H6          2.3878   -2.1160    0.1567 H         1 <0>         0.0918
     41 H7          0.9156   -2.5176    1.0664 H         1 <0>         0.0828
     42 H8          2.2003   -4.3310    2.0620 H         1 <0>         0.1221
     43 H9          2.7376   -6.7220    1.9333 H         1 <0>         0.1589
     44 H10         1.9211   -6.6588   -2.2598 H         1 <0>         0.1266
     45 H11         1.9359   -4.3368   -3.3000 H         1 <0>         0.1019
     46 H12         0.2393   -4.4515   -2.7768 H         1 <0>         0.0871
     47 H13         3.0165   -3.0270   -4.3469 H         1 <0>         0.0992
     48 H14         1.3931   -2.8129   -5.0449 H         1 <0>         0.1007
     49 H15         1.9148   -0.4378   -5.5297 H         1 <0>         0.0754
     50 H16         3.5382   -0.6519   -4.8317 H         1 <0>         0.0769
     51 H17         5.2165   -1.9830   -5.9749 H         1 <0>         0.1161
     52 H18         6.0417   -2.8282   -8.1336 H         1 <0>         0.1207
     53 H19         4.5171   -2.9890  -10.0591 H         1 <0>         0.1564
     54 H20         1.3304   -1.4610   -7.6504 H         1 <0>         0.1195
     55 H21         1.3609   -1.5859  -10.2761 H         1 <0>         0.4038
     56 H22         3.2371   -8.5326   -0.9805 H         1 <0>         0.4065
@<TRIPOS>BOND
     1    1    2 1
     2    1   36 1
     3    1   37 1
     4    1   38 1
     5    2    3 am
     6    2   39 1
     7    3    4 2
     8    3    5 1
     9    5    6 1
    10    5   15 1
    11    5    7 1
    12    7    8 1
    13    7   40 1
    14    7   41 1
    15    8   13 ar
    16    8    9 ar
    17    9   10 ar
    18    9   42 1
    19   10   11 ar
    20   10   43 1
    21   11   12 ar
    22   11   31 1
    23   12   13 ar
    24   12   44 1
    25   13   14 1
    26   14   15 1
    27   14   45 1
    28   14   46 1
    29   15   16 am
    30   16   17 2
    31   16   18 1
    32   18   19 1
    33   18   47 1
    34   18   48 1
    35   19   20 1
    36   19   49 1
    37   19   50 1
    38   20   25 ar
    39   20   21 ar
    40   21   22 ar
    41   21   51 1
    42   22   23 ar
    43   22   52 1
    44   23   24 ar
    45   23   53 1
    46   24   25 ar
    47   24   26 1
    48   25   54 1
    49   26   27 1
    50   26   55 1
    51   27   28 2
    52   27   29 2
    53   27   30 1
    54   31   32 1
    55   31   56 1
    56   32   33 2
    57   32   34 2
    58   32   35 1
@<TRIPOS>MOLECULE
ZINC03871852
   27    28     0     0     0
SMALL
USER_CHARGES

@<TRIPOS>ATOM
      1 C1         -0.2602    1.8411    0.0693 C.3       1 <0>        -0.1004
      2 C2          0.1551    0.3720   -0.0315 C.3       1 <0>        -0.1347
      3 C3         -1.0853   -0.5623    0.0966 C.3       1 <0>         0.0748
      4 H1         -1.9849   -0.2172   -0.4130 H         1 <0>         0.0982
      5 C4         -0.5811   -1.9760   -0.3221 C.3       1 <0>        -0.1686
      6 C5          0.2937   -2.3997    0.8852 C.3       1 <0>        -0.1503
      7 C6          0.1788   -1.1746    1.8412 C.3       1 <0>         0.0892
      8 H2          0.3947   -1.3784    2.8900 H         1 <0>         0.0992
      9 C7          1.0211   -0.0386    1.1867 C.3       1 <0>        -0.1350
     10 C8          1.2115    1.1433    2.1395 C.3       1 <0>        -0.1094
     11 C9          2.3522   -0.5829    0.7363 C.2       1 <0>         0.5384
     12 O1          3.0210    0.0354   -0.0742 O.co2     1 <0>        -0.6696
     13 O2          2.7604   -1.6417    1.1824 O.co2     1 <0>        -0.7212
     14 O3         -1.1920   -0.6978    1.5517 O.3       1 <0>        -0.4130
     15 C10         0.8914    0.1147   -1.3209 C.2       1 <0>         0.5303
     16 O4          1.4959   -0.9322   -1.4793 O.co2     1 <0>        -0.6507
     17 O5          0.8825    0.9534   -2.2058 O.co2     1 <0>        -0.7269
     18 H3          0.6301    2.4694    0.0957 H         1 <0>         0.0458
     19 H4         -0.8671    2.1073   -0.7961 H         1 <0>         0.0389
     20 H5         -0.8395    1.9933    0.9800 H         1 <0>         0.0275
     21 H6         -1.4183   -2.6618   -0.4520 H         1 <0>         0.0255
     22 H7          0.0173   -1.9189   -1.2314 H         1 <0>         0.1262
     23 H8         -0.1077   -3.2967    1.3570 H         1 <0>         0.0248
     24 H9          1.3280   -2.5538    0.5776 H         1 <0>         0.1405
     25 H10         0.2391    1.4819    2.4972 H         1 <0>         0.0382
     26 H11         1.8222    0.8322    2.9870 H         1 <0>         0.0323
     27 H12         1.7087    1.9580    1.6130 H         1 <0>         0.0500
@<TRIPOS>BOND
     1    1    2 1
     2    1   18 1
     3    1   19 1
     4    1   20 1
     5    2    9 1
     6    2    3 1
     7    2   15 1
     8    3    4 1
     9    3   14 1
    10    3    5 1
    11    5    6 1
    12    5   21 1
    13    5   22 1
    14    6    7 1
    15    6   23 1
    16    6   24 1
    17    7    8 1
    18    7    9 1
    19    7   14 1
    20    9   10 1
    21    9   11 1
    22   10   25 1
    23   10   26 1
    24   10   27 1
    25   11   12 2
    26   11   13 1
    27   15   16 2
    28   15   17 1
@<TRIPOS>MOLECULE
ZINC17611186
   26    28     0     0     0
SMALL
USER_CHARGES

@<TRIPOS>ATOM
      1 C1          0.0599    1.5249   -0.0459 C.3       1 <0>        -0.1274
      2 C2          0.0459   -0.0049   -0.0290 C.3       1 <0>        -0.1448
      3 C3          0.7228   -0.6541   -1.2717 C.3       1 <0>         0.0842
      4 H1          0.1207   -0.6597   -2.1803 H         1 <0>         0.1451
      5 C4          2.1118    0.0404   -1.3974 C.3       1 <0>        -0.1485
      6 C5          2.9107   -0.5750   -0.2204 C.3       1 <0>        -0.1473
      7 C6          1.8766   -1.5426    0.4292 C.3       1 <0>         0.0839
      8 H2          2.3034   -2.3476    1.0274 H         1 <0>         0.1454
      9 C7          0.8402   -0.6387    1.1595 C.3       1 <0>        -0.1447
     10 C8         -0.2155   -1.4984    1.8319 C.2       1 <0>         0.5144
     11 O1         -0.1865   -1.9208    2.9635 O.2       1 <0>        -0.3989
     12 O2         -1.1916   -1.7000    0.9236 O.3       1 <0>        -0.3265
     13 C9         -1.3376   -0.6042    0.1514 C.2       1 <0>         0.5119
     14 O3         -2.3712   -0.1805   -0.3089 O.2       1 <0>        -0.3994
     15 C10         1.5108    0.3834    2.0797 C.3       1 <0>        -0.1285
     16 O4          1.0883   -1.9717   -0.7465 O.3       1 <0>        -0.3597
     17 H3          1.0898    1.8793   -0.0021 H         1 <0>         0.0862
     18 H4         -0.4087    1.8824   -0.9628 H         1 <0>         0.0818
     19 H5         -0.4913    1.9028    0.8152 H         1 <0>         0.0714
     20 H6          2.5802   -0.2027   -2.3511 H         1 <0>         0.0880
     21 H7          2.0163    1.1195   -1.2768 H         1 <0>         0.0921
     22 H8          3.7769   -1.1254   -0.5876 H         1 <0>         0.0887
     23 H9          3.2138    0.1974    0.4864 H         1 <0>         0.0929
     24 H10         0.7464    0.9514    2.6099 H         1 <0>         0.0711
     25 H11         2.1428   -0.1359    2.8001 H         1 <0>         0.0817
     26 H12         2.1209    1.0628    1.4845 H         1 <0>         0.0869
@<TRIPOS>BOND
     1    1    2 1
     2    1   17 1
     3    1   18 1
     4    1   19 1
     5    2    9 1
     6    2   13 1
     7    2    3 1
     8    3    4 1
     9    3   16 1
    10    3    5 1
    11    5    6 1
    12    5   20 1
    13    5   21 1
    14    6    7 1
    15    6   22 1
    16    6   23 1
    17    7    8 1
    18    7    9 1
    19    7   16 1
    20    9   10 1
    21    9   15 1
    22   10   11 2
    23   10   12 1
    24   12   13 1
    25   13   14 2
    26   15   24 1
    27   15   25 1
    28   15   26 1
