@<TRIPOS>MOLECULE
ZINC13985145
   60    62     0     0     0
SMALL
USER_CHARGES
2-[4-[[cyclohexyl-[2-[(2,4-dichlorophenyl)amino]-2-oxo-ethyl]amino]methyl]-2-methyl-phenoxy]acetic acid
@<TRIPOS>ATOM
      1 C1         -2.5469    4.1745   -1.2654 C.3       1 <0>        -0.1133
      2 C2         -1.2878    3.3603   -1.1148 C.ar      1 <0>        -0.1174
      3 C3         -0.0916    3.9852   -0.8186 C.ar      1 <0>        -0.0517
      4 C4          1.0638    3.2389   -0.6806 C.ar      1 <0>        -0.2175
      5 C5          1.0257    1.8655   -0.8382 C.ar      1 <0>        -0.0586
      6 C6         -0.1677    1.2361   -1.1339 C.ar      1 <0>        -0.2133
      7 C7         -1.3277    1.9835   -1.2786 C.ar      1 <0>         0.1781
      8 O1         -2.5020    1.3671   -1.5751 O.3       1 <0>        -0.2709
      9 C8         -2.4694   -0.0538   -1.7241 C.3       1 <0>         0.0127
     10 C9         -3.8524   -0.5567   -2.0489 C.2       1 <0>         0.4670
     11 O2         -4.7716    0.2218   -2.1432 O.co2     1 <0>        -0.6087
     12 C10         2.3673    3.9231   -0.3585 C.3       1 <0>         0.0549
     13 C11         4.1981    5.1670   -1.3402 C.3       1 <0>        -0.0339
     14 C12         3.7108    6.5579   -1.0258 C.2       1 <0>         0.5043
     15 O3          2.5207    6.7867   -0.9757 O.2       1 <0>        -0.4977
     16 N1          4.5973    7.5477   -0.8004 N.am      1 <0>        -0.6438
     17 C13         4.1486    8.8617   -0.6192 C.ar      1 <0>         0.1464
     18 C14         2.8857    9.2325   -1.0612 C.ar      1 <0>        -0.1091
     19 C15         2.4454   10.5292   -0.8814 C.ar      1 <0>        -0.0799
     20 C16         3.2615   11.4592   -0.2613 C.ar      1 <0>        -0.0332
     21 C17         4.5207   11.0933    0.1800 C.ar      1 <0>        -0.0785
     22 C18         4.9642    9.7954    0.0082 C.ar      1 <0>        -0.0523
     23 Cl1         6.5412    9.3345    0.5688 Cl        1 <0>        -0.0449
     24 Cl2         2.7043   13.0880   -0.0372 Cl        1 <0>        -0.0421
     25 C19         3.4561    3.0992   -2.3581 C.3       1 <0>         0.0201
     26 C20         4.5998    2.3996   -1.6211 C.3       1 <0>        -0.1369
     27 C21         5.0254    1.1556   -2.4037 C.3       1 <0>        -0.1185
     28 C22         5.4951    1.5676   -3.8003 C.3       1 <0>        -0.1285
     29 C23         4.3514    2.2673   -4.5373 C.3       1 <0>        -0.1179
     30 C24         3.9258    3.5112   -3.7547 C.3       1 <0>        -0.1403
     31 H1         -2.6594    4.4807   -2.3054 H         1 <0>         0.0728
     32 H2         -3.4062    3.5731   -0.9688 H         1 <0>         0.0835
     33 H3         -2.4859    5.0587   -0.6309 H         1 <0>         0.0655
     34 H4         -0.0592    5.0576   -0.6950 H         1 <0>         0.1351
     35 H5          1.9296    1.2846   -0.7296 H         1 <0>         0.1260
     36 H6         -0.1970    0.1635   -1.2569 H         1 <0>         0.1407
     37 H7         -1.7874   -0.3188   -2.5320 H         1 <0>         0.0711
     38 H8         -2.1263   -0.5087   -0.7949 H         1 <0>         0.0721
     39 H9          2.1713    4.8204    0.2285 H         1 <0>         0.1343
     40 H10         3.0015    3.2459    0.2136 H         1 <0>         0.1315
     41 H11         4.7602    4.7784   -0.4910 H         1 <0>         0.1651
     42 H12         4.8423    5.1976   -2.2189 H         1 <0>         0.1623
     43 H13         5.5462    7.3498   -0.7637 H         1 <0>         0.4221
     44 H14         2.2480    8.5075   -1.5449 H         1 <0>         0.1719
     45 H15         1.4629   10.8177   -1.2248 H         1 <0>         0.1503
     46 H16         5.1558   11.8210    0.6633 H         1 <0>         0.1541
     47 H17         2.6097    2.4179   -2.4457 H         1 <0>         0.1491
     48 H18         5.4461    3.0809   -1.5335 H         1 <0>         0.0836
     49 H19         4.2652    2.1060   -0.6261 H         1 <0>         0.0874
     50 H20         4.1791    0.4743   -2.4913 H         1 <0>         0.0770
     51 H21         5.8402    0.6572   -1.8786 H         1 <0>         0.0839
     52 H22         5.7983    0.6814   -4.3578 H         1 <0>         0.0786
     53 H23         6.3415    2.2489   -3.7126 H         1 <0>         0.0677
     54 H24         3.5051    1.5860   -4.6249 H         1 <0>         0.0778
     55 H25         4.6860    2.5608   -5.5322 H         1 <0>         0.0836
     56 H26         3.1110    4.0096   -4.2798 H         1 <0>         0.0877
     57 H27         4.7721    4.1925   -3.6671 H         1 <0>         0.0810
     58 O4         -4.0630   -1.8694   -2.2336 O.co2     1 <0>        -0.7450
     59 N2          3.0288    4.3082   -1.6230 N.4       1 <0>        -0.3791
     60 H28         2.3623    4.8324   -2.2019 H         1 <0>         0.4337
@<TRIPOS>BOND
     1    1    2 1
     2    1   31 1
     3    1   32 1
     4    1   33 1
     5    2    7 ar
     6    2    3 ar
     7    3    4 ar
     8    3   34 1
     9    4    5 ar
    10    4   12 1
    11    5    6 ar
    12    5   35 1
    13    6    7 ar
    14    6   36 1
    15    7    8 1
    16    8    9 1
    17    9   10 1
    18    9   37 1
    19    9   38 1
    20   10   11 2
    21   10   58 1
    22   12   39 1
    23   12   40 1
    24   12   59 1
    25   13   14 1
    26   13   41 1
    27   13   42 1
    28   13   59 1
    29   14   15 2
    30   14   16 am
    31   16   17 1
    32   16   43 1
    33   17   22 ar
    34   17   18 ar
    35   18   19 ar
    36   18   44 1
    37   19   20 ar
    38   19   45 1
    39   20   21 ar
    40   20   24 1
    41   21   22 ar
    42   21   46 1
    43   22   23 1
    44   25   30 1
    45   25   26 1
    46   25   47 1
    47   25   59 1
    48   26   27 1
    49   26   48 1
    50   26   49 1
    51   27   28 1
    52   27   50 1
    53   27   51 1
    54   28   29 1
    55   28   52 1
    56   28   53 1
    57   29   30 1
    58   29   54 1
    59   29   55 1
    60   30   56 1
    61   30   57 1
    62   59   60 1
@<TRIPOS>MOLECULE
ZINC06845832
   49    48     0     0     0
SMALL
USER_CHARGES

@<TRIPOS>ATOM
      1 C1          0.2811    2.7987  -17.4538 C.3       1 <0>        -0.1538
      2 C2         -0.5026    3.1860  -16.1981 C.3       1 <0>        -0.1262
      3 C3          0.2374    2.6791  -14.9586 C.3       1 <0>        -0.1212
      4 C4         -0.5462    3.0664  -13.7029 C.3       1 <0>        -0.1211
      5 C5          0.1937    2.5596  -12.4633 C.3       1 <0>        -0.1206
      6 C6         -0.5899    2.9468  -11.2076 C.3       1 <0>        -0.1205
      7 C7          0.1501    2.4400   -9.9681 C.3       1 <0>        -0.1203
      8 C8         -0.6336    2.8273   -8.7124 C.3       1 <0>        -0.1204
      9 C9          0.1064    2.3204   -7.4729 C.3       1 <0>        -0.1201
     10 C10        -0.6772    2.7077   -6.2172 C.3       1 <0>        -0.1202
     11 C11         0.0627    2.2009   -4.9776 C.3       1 <0>        -0.1188
     12 C12        -0.7209    2.5881   -3.7219 C.3       1 <0>        -0.1173
     13 C13         0.0191    2.0813   -2.4824 C.3       1 <0>        -0.1251
     14 C14        -0.7646    2.4686   -1.2267 C.3       1 <0>        -0.1007
     15 C15        -0.0246    1.9617    0.0128 C.3       1 <0>        -0.0704
     16 H1          0.9980    2.3390    0.0051 H         1 <0>         0.0978
     17 C16        -0.7300    2.4477    1.2527 C.2       1 <0>         0.4707
     18 O1         -1.9337    2.3770    1.3299 O.co2     1 <0>        -0.6175
     19 Br1         0.0021   -0.0041    0.0020 Br        1 <0>        -0.1781
     20 H2          1.2740    3.2466  -17.4150 H         1 <0>         0.0531
     21 H3          0.3736    1.7138  -17.5042 H         1 <0>         0.0531
     22 H4         -0.2461    3.1598  -18.3369 H         1 <0>         0.0526
     23 H5         -1.4955    2.7380  -16.2369 H         1 <0>         0.0602
     24 H6         -0.5951    4.2709  -16.1477 H         1 <0>         0.0602
     25 H7          1.2304    3.1270  -14.9197 H         1 <0>         0.0604
     26 H8          0.3299    1.5942  -15.0089 H         1 <0>         0.0604
     27 H9         -1.5392    2.6185  -13.7417 H         1 <0>         0.0603
     28 H10        -0.6388    4.1513  -13.6525 H         1 <0>         0.0603
     29 H11         1.1867    3.0075  -12.4245 H         1 <0>         0.0601
     30 H12         0.2863    1.4747  -12.5137 H         1 <0>         0.0602
     31 H13        -1.5829    2.4989  -11.2465 H         1 <0>         0.0602
     32 H14        -0.6824    4.0317  -11.1573 H         1 <0>         0.0601
     33 H15         1.1430    2.8879   -9.9293 H         1 <0>         0.0599
     34 H16         0.2426    1.3551  -10.0185 H         1 <0>         0.0600
     35 H17        -1.6265    2.3793   -8.7512 H         1 <0>         0.0601
     36 H18        -0.7261    3.9122   -8.6620 H         1 <0>         0.0599
     37 H19         1.0994    2.7683   -7.4340 H         1 <0>         0.0596
     38 H20         0.1989    1.2355   -7.5232 H         1 <0>         0.0599
     39 H21        -1.6702    2.2598   -6.2560 H         1 <0>         0.0601
     40 H22        -0.7698    3.7926   -6.1668 H         1 <0>         0.0597
     41 H23         1.0557    2.6488   -4.9388 H         1 <0>         0.0592
     42 H24         0.1553    1.1160   -5.0280 H         1 <0>         0.0602
     43 H25        -1.7139    2.1402   -3.7608 H         1 <0>         0.0613
     44 H26        -0.8134    3.6730   -3.6716 H         1 <0>         0.0593
     45 H27         1.0120    2.5292   -2.4436 H         1 <0>         0.0585
     46 H28         0.1116    0.9964   -2.5328 H         1 <0>         0.0694
     47 H29        -1.7575    2.0206   -1.2655 H         1 <0>         0.0771
     48 H30        -0.8571    3.5535   -1.1763 H         1 <0>         0.0711
     49 O2         -0.0210    2.9592    2.2713 O.co2     1 <0>        -0.7526
@<TRIPOS>BOND
     1    1    2 1
     2    1   20 1
     3    1   21 1
     4    1   22 1
     5    2    3 1
     6    2   23 1
     7    2   24 1
     8    3    4 1
     9    3   25 1
    10    3   26 1
    11    4    5 1
    12    4   27 1
    13    4   28 1
    14    5    6 1
    15    5   29 1
    16    5   30 1
    17    6    7 1
    18    6   31 1
    19    6   32 1
    20    7    8 1
    21    7   33 1
    22    7   34 1
    23    8    9 1
    24    8   35 1
    25    8   36 1
    26    9   10 1
    27    9   37 1
    28    9   38 1
    29   10   11 1
    30   10   39 1
    31   10   40 1
    32   11   12 1
    33   11   41 1
    34   11   42 1
    35   12   13 1
    36   12   43 1
    37   12   44 1
    38   13   14 1
    39   13   45 1
    40   13   46 1
    41   14   15 1
    42   14   47 1
    43   14   48 1
    44   15   16 1
    45   15   17 1
    46   15   19 1
    47   17   18 2
    48   17   49 1
@<TRIPOS>MOLECULE
ZINC14278029
   49    48     0     0     0
SMALL
USER_CHARGES
(2R)-2-bromohexadecanoic acid
@<TRIPOS>ATOM
      1 C1        -16.9835    3.2394   -7.6713 C.3       1 <0>        -0.1538
      2 C2        -15.6951    2.4180   -7.5917 C.3       1 <0>        -0.1262
      3 C3        -14.7472    3.0537   -6.5727 C.3       1 <0>        -0.1212
      4 C4        -13.4588    2.2324   -6.4931 C.3       1 <0>        -0.1211
      5 C5        -12.5109    2.8680   -5.4741 C.3       1 <0>        -0.1205
      6 C6        -11.2225    2.0467   -5.3945 C.3       1 <0>        -0.1205
      7 C7        -10.2747    2.6824   -4.3755 C.3       1 <0>        -0.1203
      8 C8         -8.9863    1.8610   -4.2959 C.3       1 <0>        -0.1204
      9 C9         -8.0384    2.4967   -3.2769 C.3       1 <0>        -0.1201
     10 C10        -6.7500    1.6754   -3.1973 C.3       1 <0>        -0.1202
     11 C11        -5.8021    2.3111   -2.1783 C.3       1 <0>        -0.1188
     12 C12        -4.5137    1.4897   -2.0987 C.3       1 <0>        -0.1173
     13 C13        -3.5658    2.1254   -1.0797 C.3       1 <0>        -0.1251
     14 C14        -2.2774    1.3041   -1.0001 C.3       1 <0>        -0.1007
     15 C15        -1.3295    1.9397    0.0189 C.3       1 <0>        -0.0704
     16 H1         -1.1632    2.9849   -0.2422 H         1 <0>         0.0978
     17 C16        -0.0143    1.2041    0.0087 C.2       1 <0>         0.4708
     18 O1          0.0021   -0.0041    0.0020 O.co2     1 <0>        -0.6176
     19 Br1        -2.1271    1.8312    1.8125 Br        1 <0>        -0.1782
     20 H2        -17.4627    3.2594   -6.6925 H         1 <0>         0.0531
     21 H3        -16.7469    4.2573   -7.9809 H         1 <0>         0.0531
     22 H4        -17.6588    2.7865   -8.3973 H         1 <0>         0.0526
     23 H5        -15.2159    2.3980   -8.5705 H         1 <0>         0.0601
     24 H6        -15.9317    1.4001   -7.2821 H         1 <0>         0.0602
     25 H7        -15.2264    3.0737   -5.5939 H         1 <0>         0.0604
     26 H8        -14.5106    4.0717   -6.8823 H         1 <0>         0.0604
     27 H9        -12.9796    2.2123   -7.4719 H         1 <0>         0.0603
     28 H10       -13.6954    1.2144   -6.1835 H         1 <0>         0.0604
     29 H11       -12.9901    2.8881   -4.4953 H         1 <0>         0.0602
     30 H12       -12.2743    3.8860   -5.7837 H         1 <0>         0.0601
     31 H13       -10.7434    2.0267   -6.3733 H         1 <0>         0.0601
     32 H14       -11.4591    1.0287   -5.0849 H         1 <0>         0.0602
     33 H15       -10.7539    2.7024   -3.3967 H         1 <0>         0.0600
     34 H16       -10.0381    3.7004   -4.6851 H         1 <0>         0.0599
     35 H17        -8.5071    1.8410   -5.2747 H         1 <0>         0.0599
     36 H18        -9.2229    0.8431   -3.9863 H         1 <0>         0.0601
     37 H19        -8.5176    2.5167   -2.2981 H         1 <0>         0.0598
     38 H20        -7.8018    3.5147   -3.5865 H         1 <0>         0.0596
     39 H21        -6.2708    1.6554   -4.1761 H         1 <0>         0.0597
     40 H22        -6.9866    0.6574   -2.8877 H         1 <0>         0.0601
     41 H23        -6.2813    2.3311   -1.1995 H         1 <0>         0.0602
     42 H24        -5.5655    3.3290   -2.4879 H         1 <0>         0.0592
     43 H25        -4.0345    1.4697   -3.0775 H         1 <0>         0.0593
     44 H26        -4.7503    0.4718   -1.7891 H         1 <0>         0.0613
     45 H27        -4.0450    2.1454   -0.1009 H         1 <0>         0.0694
     46 H28        -3.3292    3.1434   -1.3893 H         1 <0>         0.0585
     47 H29        -1.7982    1.2841   -1.9789 H         1 <0>         0.0711
     48 H30        -2.5140    0.2861   -0.6905 H         1 <0>         0.0771
     49 O2          1.1389    1.8910    0.0013 O.co2     1 <0>        -0.7526
@<TRIPOS>BOND
     1    1    2 1
     2    1   20 1
     3    1   21 1
     4    1   22 1
     5    2    3 1
     6    2   23 1
     7    2   24 1
     8    3    4 1
     9    3   25 1
    10    3   26 1
    11    4    5 1
    12    4   27 1
    13    4   28 1
    14    5    6 1
    15    5   29 1
    16    5   30 1
    17    6    7 1
    18    6   31 1
    19    6   32 1
    20    7    8 1
    21    7   33 1
    22    7   34 1
    23    8    9 1
    24    8   35 1
    25    8   36 1
    26    9   10 1
    27    9   37 1
    28    9   38 1
    29   10   11 1
    30   10   39 1
    31   10   40 1
    32   11   12 1
    33   11   41 1
    34   11   42 1
    35   12   13 1
    36   12   43 1
    37   12   44 1
    38   13   14 1
    39   13   45 1
    40   13   46 1
    41   14   15 1
    42   14   47 1
    43   14   48 1
    44   15   16 1
    45   15   17 1
    46   15   19 1
    47   17   18 2
    48   17   49 1
@<TRIPOS>MOLECULE
ZINC00968328
   45    47     0     0     0
SMALL
USER_CHARGES

@<TRIPOS>ATOM
      1 C1         -0.0178    1.4608    0.0101 C.3       1 <0>         0.0553
      2 N1          0.0021   -0.0041    0.0020 N.pl3     1 <0>        -0.5905
      3 C2          0.0241   -0.7433    1.2666 C.3       1 <0>         0.1145
      4 C3         -1.4105   -1.0203    1.7205 C.3       1 <0>         0.0303
      5 O1         -2.0465   -1.8923    0.7840 O.3       1 <0>        -0.3206
      6 C4         -3.3348   -2.2400    1.0412 C.ar      1 <0>         0.1254
      7 C5         -3.9756   -1.7474    2.1688 C.ar      1 <0>        -0.2022
      8 C6         -5.2854   -2.1021    2.4278 C.ar      1 <0>        -0.0584
      9 C7         -5.9575   -2.9475    1.5646 C.ar      1 <0>        -0.1223
     10 C8         -5.3210   -3.4402    0.4404 C.ar      1 <0>        -0.0671
     11 C9         -4.0133   -3.0837    0.1736 C.ar      1 <0>        -0.1480
     12 C10        -7.3862   -3.3331    1.8499 C.3       1 <0>        -0.0555
     13 C11        -8.3282   -2.3252    1.1885 C.3       1 <0>        -0.0698
     14 H1         -8.1156   -2.2277    0.1239 H         1 <0>         0.1599
     15 C12        -9.7865   -2.6882    1.4311 C.2       1 <0>         0.5294
     16 O2        -10.2728   -3.7226    1.0268 O.2       1 <0>        -0.4537
     17 N2        -10.4863   -1.7976    2.1136 N.am      1 <0>        -0.6890
     18 C13        -9.9701   -0.6427    2.5734 C.2       1 <0>         0.5656
     19 O3        -10.5320    0.2306    3.2056 O.2       1 <0>        -0.4105
     20 S1         -8.2649   -0.6922    2.0368 S.3       1 <0>        -0.1557
     21 C14         0.0000   -0.6925   -1.2055 C.ar      1 <0>         0.4451
     22 C15         0.0132   -2.0839   -1.2060 C.ar      1 <0>        -0.1767
     23 C16         0.0110   -2.7560   -2.4146 C.ar      1 <0>         0.0305
     24 C17        -0.0044   -2.0117   -3.5870 C.ar      1 <0>        -0.1669
     25 C18        -0.0170   -0.6335   -3.5127 C.ar      1 <0>         0.1392
     26 N3         -0.0200   -0.0186   -2.3450 N.ar      1 <0>        -0.5042
     27 H2          1.0048    1.8381    0.0023 H         1 <0>         0.0864
     28 H3         -0.5450    1.8219   -0.8730 H         1 <0>         0.0733
     29 H4         -0.5280    1.8123    0.9069 H         1 <0>         0.1059
     30 H5          0.5496   -1.6879    1.1262 H         1 <0>         0.1083
     31 H6          0.5371   -0.1514    2.0246 H         1 <0>         0.1286
     32 H7         -1.3961   -1.4911    2.7035 H         1 <0>         0.0921
     33 H8         -1.9619   -0.0816    1.7754 H         1 <0>         0.0744
     34 H9         -3.4507   -1.0876    2.8437 H         1 <0>         0.1290
     35 H10        -5.7846   -1.7188    3.3055 H         1 <0>         0.1345
     36 H11        -5.8481   -4.1007   -0.2321 H         1 <0>         0.1360
     37 H12        -3.5179   -3.4652   -0.7070 H         1 <0>         0.1294
     38 H13        -7.5805   -4.3285    1.4504 H         1 <0>         0.1089
     39 H14        -7.5539   -3.3347    2.9269 H         1 <0>         0.0935
     40 H15       -11.4209   -1.9864    2.2920 H         1 <0>         0.4214
     41 H16         0.0254   -2.6314   -0.2752 H         1 <0>         0.1792
     42 H17         0.0214   -3.8355   -2.4461 H         1 <0>         0.1727
     43 H18        -0.0062   -2.5062   -4.5471 H         1 <0>         0.1794
     44 H19        -0.0287   -0.0508   -4.4219 H         1 <0>         0.2048
     45 H20        -0.0329    0.9510   -2.3209 H         1 <0>         0.4381
@<TRIPOS>BOND
     1    1    2 1
     2    1   27 1
     3    1   28 1
     4    1   29 1
     5    2    3 1
     6    2   21 1
     7    3    4 1
     8    3   30 1
     9    3   31 1
    10    4    5 1
    11    4   32 1
    12    4   33 1
    13    5    6 1
    14    6   11 ar
    15    6    7 ar
    16    7    8 ar
    17    7   34 1
    18    8    9 ar
    19    8   35 1
    20    9   10 ar
    21    9   12 1
    22   10   11 ar
    23   10   36 1
    24   11   37 1
    25   12   13 1
    26   12   38 1
    27   12   39 1
    28   13   14 1
    29   13   20 1
    30   13   15 1
    31   15   16 2
    32   15   17 am
    33   17   18 am
    34   17   40 1
    35   18   19 2
    36   18   20 1
    37   21   26 ar
    38   21   22 ar
    39   22   23 ar
    40   22   41 1
    41   23   24 ar
    42   23   42 1
    43   24   25 ar
    44   24   43 1
    45   25   26 ar
    46   25   44 1
    47   26   45 1
@<TRIPOS>MOLECULE
ZINC00968328
   44    46     0     0     0
SMALL
USER_CHARGES

@<TRIPOS>ATOM
      1 C1         -0.0178    1.4608    0.0101 C.3       1 <0>         0.0943
      2 N1          0.0021   -0.0041    0.0020 N.pl3     1 <0>        -0.6139
      3 C2          0.0241   -0.7433    1.2666 C.3       1 <0>         0.1321
      4 C3         -1.4105   -1.0203    1.7205 C.3       1 <0>         0.0409
      5 O1         -2.0465   -1.8923    0.7840 O.3       1 <0>        -0.2838
      6 C4         -3.3348   -2.2400    1.0412 C.ar      1 <0>         0.1410
      7 C5         -3.9756   -1.7474    2.1688 C.ar      1 <0>        -0.2122
      8 C6         -5.2854   -2.1021    2.4278 C.ar      1 <0>        -0.0601
      9 C7         -5.9575   -2.9475    1.5646 C.ar      1 <0>        -0.1420
     10 C8         -5.3210   -3.4402    0.4404 C.ar      1 <0>        -0.0675
     11 C9         -4.0133   -3.0837    0.1736 C.ar      1 <0>        -0.1507
     12 C10        -7.3862   -3.3331    1.8499 C.3       1 <0>        -0.0487
     13 C11        -8.3282   -2.3252    1.1885 C.3       1 <0>        -0.0704
     14 H1         -8.1156   -2.2277    0.1239 H         1 <0>         0.1610
     15 C12        -9.7865   -2.6882    1.4311 C.2       1 <0>         0.5301
     16 O2        -10.2728   -3.7226    1.0268 O.2       1 <0>        -0.4577
     17 N2        -10.4863   -1.7976    2.1136 N.am      1 <0>        -0.6898
     18 C13        -9.9701   -0.6427    2.5734 C.2       1 <0>         0.5614
     19 O3        -10.5320    0.2306    3.2056 O.2       1 <0>        -0.4177
     20 S1         -8.2649   -0.6922    2.0368 S.3       1 <0>        -0.1442
     21 C14         0.0000   -0.6925   -1.2055 C.ar      1 <0>         0.4042
     22 C15         0.0901    0.0128   -2.4015 C.ar      1 <0>        -0.2403
     23 C16         0.0870   -0.6849   -3.5956 C.ar      1 <0>        -0.0375
     24 C17        -0.0066   -2.0699   -3.5538 C.ar      1 <0>        -0.2346
     25 C18        -0.0930   -2.7051   -2.3314 C.ar      1 <0>         0.1463
     26 N3         -0.0823   -2.0140   -1.2072 N.ar      1 <0>        -0.5187
     27 H2          1.0048    1.8381    0.0023 H         1 <0>         0.0542
     28 H3         -0.5450    1.8219   -0.8730 H         1 <0>         0.0704
     29 H4         -0.5280    1.8123    0.9069 H         1 <0>         0.0700
     30 H5          0.5496   -1.6879    1.1262 H         1 <0>         0.0964
     31 H6          0.5371   -0.1514    2.0246 H         1 <0>         0.0938
     32 H7         -1.3961   -1.4911    2.7035 H         1 <0>         0.0688
     33 H8         -1.9619   -0.0816    1.7754 H         1 <0>         0.0592
     34 H9         -3.4507   -1.0876    2.8437 H         1 <0>         0.1266
     35 H10        -5.7846   -1.7188    3.3055 H         1 <0>         0.1282
     36 H11        -5.8481   -4.1007   -0.2321 H         1 <0>         0.1303
     37 H12        -3.5179   -3.4652   -0.7070 H         1 <0>         0.1299
     38 H13        -7.5805   -4.3285    1.4504 H         1 <0>         0.1051
     39 H14        -7.5539   -3.3347    2.9269 H         1 <0>         0.0892
     40 H15       -11.4209   -1.9864    2.2920 H         1 <0>         0.4182
     41 H16         0.1612    1.0904   -2.3974 H         1 <0>         0.1284
     42 H17         0.1553   -0.1643   -4.5394 H         1 <0>         0.1296
     43 H18        -0.0120   -2.6441   -4.4685 H         1 <0>         0.1285
     44 H19        -0.1662   -3.7820   -2.2944 H         1 <0>         0.1519
@<TRIPOS>BOND
     1    1    2 1
     2    1   27 1
     3    1   28 1
     4    1   29 1
     5    2    3 1
     6    2   21 1
     7    3    4 1
     8    3   30 1
     9    3   31 1
    10    4    5 1
    11    4   32 1
    12    4   33 1
    13    5    6 1
    14    6   11 ar
    15    6    7 ar
    16    7    8 ar
    17    7   34 1
    18    8    9 ar
    19    8   35 1
    20    9   10 ar
    21    9   12 1
    22   10   11 ar
    23   10   36 1
    24   11   37 1
    25   12   13 1
    26   12   38 1
    27   12   39 1
    28   13   14 1
    29   13   20 1
    30   13   15 1
    31   15   16 2
    32   15   17 am
    33   17   18 am
    34   17   40 1
    35   18   19 2
    36   18   20 1
    37   21   26 ar
    38   21   22 ar
    39   22   23 ar
    40   22   41 1
    41   23   24 ar
    42   23   42 1
    43   24   25 ar
    44   24   43 1
    45   25   26 ar
    46   25   44 1
@<TRIPOS>MOLECULE
ZINC00968330
   45    47     0     0     0
SMALL
USER_CHARGES

@<TRIPOS>ATOM
      1 C1         -0.0178    1.4608    0.0101 C.3       1 <0>         0.0556
      2 N1          0.0021   -0.0041    0.0020 N.pl3     1 <0>        -0.5910
      3 C2          0.0241   -0.7433    1.2666 C.3       1 <0>         0.1145
      4 C3         -1.4105   -1.0203    1.7205 C.3       1 <0>         0.0306
      5 O1         -2.0465   -1.8923    0.7840 O.3       1 <0>        -0.3203
      6 C4         -3.3348   -2.2400    1.0412 C.ar      1 <0>         0.1254
      7 C5         -3.9756   -1.7474    2.1688 C.ar      1 <0>        -0.2040
      8 C6         -5.2854   -2.1021    2.4278 C.ar      1 <0>        -0.0654
      9 C7         -5.9575   -2.9475    1.5646 C.ar      1 <0>        -0.1221
     10 C8         -5.3210   -3.4402    0.4404 C.ar      1 <0>        -0.0603
     11 C9         -4.0133   -3.0837    0.1736 C.ar      1 <0>        -0.1461
     12 C10        -7.3862   -3.3331    1.8499 C.3       1 <0>        -0.0555
     13 C11        -8.3282   -2.3252    1.1885 C.3       1 <0>        -0.0697
     14 H1         -8.0909   -1.3060    1.4933 H         1 <0>         0.1596
     15 C12        -9.7859   -2.6623    1.4695 C.2       1 <0>         0.5292
     16 O2        -10.2448   -2.6686    2.5917 O.2       1 <0>        -0.4534
     17 N2        -10.5170   -2.9474    0.4052 N.am      1 <0>        -0.6890
     18 C13       -10.0318   -2.9469   -0.8502 C.2       1 <0>         0.5657
     19 O3        -10.6238   -3.1938   -1.8830 O.2       1 <0>        -0.4109
     20 S1         -8.3132   -2.4970   -0.6448 S.3       1 <0>        -0.1554
     21 C14         0.0000   -0.6925   -1.2055 C.ar      1 <0>         0.4449
     22 C15         0.0132   -2.0839   -1.2060 C.ar      1 <0>        -0.1767
     23 C16         0.0110   -2.7560   -2.4146 C.ar      1 <0>         0.0308
     24 C17        -0.0044   -2.0117   -3.5870 C.ar      1 <0>        -0.1664
     25 C18        -0.0170   -0.6335   -3.5127 C.ar      1 <0>         0.1393
     26 N3         -0.0200   -0.0186   -2.3450 N.ar      1 <0>        -0.5040
     27 H2          1.0048    1.8381    0.0023 H         1 <0>         0.0863
     28 H3         -0.5450    1.8219   -0.8730 H         1 <0>         0.0733
     29 H4         -0.5280    1.8123    0.9069 H         1 <0>         0.1054
     30 H5          0.5496   -1.6879    1.1262 H         1 <0>         0.1083
     31 H6          0.5371   -0.1514    2.0246 H         1 <0>         0.1284
     32 H7         -1.3961   -1.4911    2.7035 H         1 <0>         0.0918
     33 H8         -1.9619   -0.0816    1.7754 H         1 <0>         0.0738
     34 H9         -3.4507   -1.0876    2.8437 H         1 <0>         0.1287
     35 H10        -5.7846   -1.7188    3.3055 H         1 <0>         0.1320
     36 H11        -5.8481   -4.1007   -0.2321 H         1 <0>         0.1384
     37 H12        -3.5179   -3.4652   -0.7070 H         1 <0>         0.1298
     38 H13        -7.5805   -4.3285    1.4504 H         1 <0>         0.0942
     39 H14        -7.5539   -3.3347    2.9269 H         1 <0>         0.1083
     40 H15       -11.4523   -3.1688    0.5362 H         1 <0>         0.4215
     41 H16         0.0254   -2.6314   -0.2752 H         1 <0>         0.1791
     42 H17         0.0214   -3.8355   -2.4461 H         1 <0>         0.1728
     43 H18        -0.0062   -2.5062   -4.5471 H         1 <0>         0.1796
     44 H19        -0.0287   -0.0508   -4.4219 H         1 <0>         0.2049
     45 H20        -0.0329    0.9510   -2.3209 H         1 <0>         0.4380
@<TRIPOS>BOND
     1    1    2 1
     2    1   27 1
     3    1   28 1
     4    1   29 1
     5    2    3 1
     6    2   21 1
     7    3    4 1
     8    3   30 1
     9    3   31 1
    10    4    5 1
    11    4   32 1
    12    4   33 1
    13    5    6 1
    14    6   11 ar
    15    6    7 ar
    16    7    8 ar
    17    7   34 1
    18    8    9 ar
    19    8   35 1
    20    9   10 ar
    21    9   12 1
    22   10   11 ar
    23   10   36 1
    24   11   37 1
    25   12   13 1
    26   12   38 1
    27   12   39 1
    28   13   14 1
    29   13   20 1
    30   13   15 1
    31   15   16 2
    32   15   17 am
    33   17   18 am
    34   17   40 1
    35   18   19 2
    36   18   20 1
    37   21   26 ar
    38   21   22 ar
    39   22   23 ar
    40   22   41 1
    41   23   24 ar
    42   23   42 1
    43   24   25 ar
    44   24   43 1
    45   25   26 ar
    46   25   44 1
    47   26   45 1
@<TRIPOS>MOLECULE
ZINC00968330
   44    46     0     0     0
SMALL
USER_CHARGES

@<TRIPOS>ATOM
      1 C1         -0.0178    1.4608    0.0101 C.3       1 <0>         0.0945
      2 N1          0.0021   -0.0041    0.0020 N.pl3     1 <0>        -0.6142
      3 C2          0.0241   -0.7433    1.2666 C.3       1 <0>         0.1321
      4 C3         -1.4105   -1.0203    1.7205 C.3       1 <0>         0.0411
      5 O1         -2.0465   -1.8923    0.7840 O.3       1 <0>        -0.2835
      6 C4         -3.3348   -2.2400    1.0412 C.ar      1 <0>         0.1409
      7 C5         -3.9756   -1.7474    2.1688 C.ar      1 <0>        -0.2139
      8 C6         -5.2854   -2.1021    2.4278 C.ar      1 <0>        -0.0668
      9 C7         -5.9575   -2.9475    1.5646 C.ar      1 <0>        -0.1417
     10 C8         -5.3210   -3.4402    0.4404 C.ar      1 <0>        -0.0611
     11 C9         -4.0133   -3.0837    0.1736 C.ar      1 <0>        -0.1489
     12 C10        -7.3862   -3.3331    1.8499 C.3       1 <0>        -0.0487
     13 C11        -8.3282   -2.3252    1.1885 C.3       1 <0>        -0.0711
     14 H1         -8.0909   -1.3060    1.4933 H         1 <0>         0.1601
     15 C12        -9.7859   -2.6623    1.4695 C.2       1 <0>         0.5303
     16 O2        -10.2448   -2.6686    2.5917 O.2       1 <0>        -0.4587
     17 N2        -10.5170   -2.9474    0.4052 N.am      1 <0>        -0.6898
     18 C13       -10.0318   -2.9469   -0.8502 C.2       1 <0>         0.5609
     19 O3        -10.6238   -3.1938   -1.8830 O.2       1 <0>        -0.4172
     20 S1         -8.3132   -2.4970   -0.6448 S.3       1 <0>        -0.1415
     21 C14         0.0000   -0.6925   -1.2055 C.ar      1 <0>         0.4038
     22 C15         0.0901    0.0128   -2.4015 C.ar      1 <0>        -0.2402
     23 C16         0.0870   -0.6849   -3.5956 C.ar      1 <0>        -0.0374
     24 C17        -0.0066   -2.0699   -3.5538 C.ar      1 <0>        -0.2340
     25 C18        -0.0930   -2.7051   -2.3314 C.ar      1 <0>         0.1464
     26 N3         -0.0823   -2.0140   -1.2072 N.ar      1 <0>        -0.5186
     27 H2          1.0048    1.8381    0.0023 H         1 <0>         0.0541
     28 H3         -0.5450    1.8219   -0.8730 H         1 <0>         0.0704
     29 H4         -0.5280    1.8123    0.9069 H         1 <0>         0.0696
     30 H5          0.5496   -1.6879    1.1262 H         1 <0>         0.0964
     31 H6          0.5371   -0.1514    2.0246 H         1 <0>         0.0936
     32 H7         -1.3961   -1.4911    2.7035 H         1 <0>         0.0686
     33 H8         -1.9619   -0.0816    1.7754 H         1 <0>         0.0586
     34 H9         -3.4507   -1.0876    2.8437 H         1 <0>         0.1263
     35 H10        -5.7846   -1.7188    3.3055 H         1 <0>         0.1256
     36 H11        -5.8481   -4.1007   -0.2321 H         1 <0>         0.1327
     37 H12        -3.5179   -3.4652   -0.7070 H         1 <0>         0.1303
     38 H13        -7.5805   -4.3285    1.4504 H         1 <0>         0.0900
     39 H14        -7.5539   -3.3347    2.9269 H         1 <0>         0.1041
     40 H15       -11.4523   -3.1688    0.5362 H         1 <0>         0.4181
     41 H16         0.1612    1.0904   -2.3974 H         1 <0>         0.1282
     42 H17         0.1553   -0.1643   -4.5394 H         1 <0>         0.1296
     43 H18        -0.0120   -2.6441   -4.4685 H         1 <0>         0.1287
     44 H19        -0.1662   -3.7820   -2.2944 H         1 <0>         0.1520
@<TRIPOS>BOND
     1    1    2 1
     2    1   27 1
     3    1   28 1
     4    1   29 1
     5    2    3 1
     6    2   21 1
     7    3    4 1
     8    3   30 1
     9    3   31 1
    10    4    5 1
    11    4   32 1
    12    4   33 1
    13    5    6 1
    14    6   11 ar
    15    6    7 ar
    16    7    8 ar
    17    7   34 1
    18    8    9 ar
    19    8   35 1
    20    9   10 ar
    21    9   12 1
    22   10   11 ar
    23   10   36 1
    24   11   37 1
    25   12   13 1
    26   12   38 1
    27   12   39 1
    28   13   14 1
    29   13   20 1
    30   13   15 1
    31   15   16 2
    32   15   17 am
    33   17   18 am
    34   17   40 1
    35   18   19 2
    36   18   20 1
    37   21   26 ar
    38   21   22 ar
    39   22   23 ar
    40   22   41 1
    41   23   24 ar
    42   23   42 1
    43   24   25 ar
    44   24   43 1
    45   25   26 ar
    46   25   44 1
@<TRIPOS>MOLECULE
ZINC12358521
   58    59     0     0     0
SMALL
USER_CHARGES
(5Z)-5-[(3aS,4R,5R,6aS)-5-hydroxy-4-[(E,3S)-3-hydroxyoct-1-enyl]-3,3a,4,5,6,6a-hexahydro-1H-pentalen-2-ylidene]pentanoic acid
@<TRIPOS>ATOM
      1 C1         -0.0604    1.1126   -4.9886 C.3       1 <0>        -0.1536
      2 C2         -0.7766    1.6061   -3.7298 C.3       1 <0>        -0.1257
      3 C3         -0.0366    1.0992   -2.4903 C.3       1 <0>        -0.1208
      4 C4         -0.7527    1.5927   -1.2315 C.3       1 <0>        -0.1172
      5 C5         -0.0127    1.0858    0.0080 C.3       1 <0>        -0.1447
      6 C6         -0.7288    1.5792    1.2668 C.3       1 <0>         0.1360
      7 H1         -1.7755    1.2768    1.2315 H         1 <0>         0.1068
      8 C7         -0.0738    0.9805    2.4848 C.2       1 <0>        -0.1928
      9 C8          0.3670    1.7596    3.4412 C.2       1 <0>        -0.1361
     10 C9          1.0221    1.1608    4.6591 C.3       1 <0>        -0.0513
     11 H2          1.0556    0.0749    4.5715 H         1 <0>         0.0893
     12 C10         2.4456    1.7238    4.8268 C.3       1 <0>         0.1093
     13 H3          2.5036    2.7345    4.4229 H         1 <0>         0.0600
     14 C11         2.6866    1.7407    6.3486 C.3       1 <0>        -0.1526
     15 C12         1.3055    1.9325    6.9934 C.3       1 <0>        -0.0849
     16 H4          1.1740    2.9593    7.3347 H         1 <0>         0.0790
     17 C13         0.2543    1.5663    5.9265 C.3       1 <0>        -0.0758
     18 H5         -0.4095    2.4076    5.7274 H         1 <0>         0.0827
     19 C14        -0.5139    0.3514    6.4708 C.3       1 <0>        -0.0841
     20 C15        -0.2479    0.3206    7.9629 C.2       1 <0>        -0.1466
     21 C16        -1.0424   -0.1320    8.9010 C.2       1 <0>        -0.1276
     22 C17        -2.3892   -0.7021    8.5375 C.3       1 <0>        -0.0931
     23 C18        -2.5143   -2.1172    9.1056 C.3       1 <0>        -0.0919
     24 C19        -3.8817   -2.6959    8.7366 C.3       1 <0>        -0.1581
     25 C20        -4.0048   -4.0898    9.2961 C.2       1 <0>         0.4574
     26 O1         -3.0925   -4.5709    9.9255 O.co2     1 <0>        -0.6422
     27 C21         1.1312    0.9245    8.1405 C.3       1 <0>        -0.0824
     28 O2          3.3956    0.8738    4.1809 O.3       1 <0>        -0.5623
     29 O3         -0.6468    3.0043    1.3339 O.3       1 <0>        -0.5583
     30 H6         -0.0456    0.0228   -4.9946 H         1 <0>         0.0533
     31 H7         -0.5876    1.4737   -5.8717 H         1 <0>         0.0525
     32 H8          0.9622    1.4899   -4.9964 H         1 <0>         0.0525
     33 H9         -1.7991    1.2288   -3.7221 H         1 <0>         0.0609
     34 H10        -0.7913    2.6960   -3.7239 H         1 <0>         0.0602
     35 H11         0.9860    1.4765   -2.4981 H         1 <0>         0.0593
     36 H12        -0.0218    0.0093   -2.4963 H         1 <0>         0.0605
     37 H13        -1.7753    1.2154   -1.2238 H         1 <0>         0.0616
     38 H14        -0.7675    2.6825   -1.2255 H         1 <0>         0.0673
     39 H15         0.0021   -0.0041    0.0020 H         1 <0>         0.0729
     40 H16         1.0099    1.4631    0.0003 H         1 <0>         0.0651
     41 H17         0.0323   -0.0910    2.5691 H         1 <0>         0.1160
     42 H18         0.2610    2.8311    3.3568 H         1 <0>         0.1157
     43 H19         3.3441    2.5679    6.6160 H         1 <0>         0.0656
     44 H20         3.1233    0.7952    6.6703 H         1 <0>         0.0787
     45 H21        -1.5812    0.4672    6.2823 H         1 <0>         0.0712
     46 H22        -0.1472   -0.5636    6.0054 H         1 <0>         0.0756
     47 H23        -0.7322   -0.0966    9.9349 H         1 <0>         0.1110
     48 H24        -3.1749   -0.0723    8.9548 H         1 <0>         0.0667
     49 H25        -2.4886   -0.7360    7.4526 H         1 <0>         0.0638
     50 H26        -1.7285   -2.7469    8.6883 H         1 <0>         0.0595
     51 H27        -2.4149   -2.0833   10.1905 H         1 <0>         0.0600
     52 H28        -4.6674   -2.0661    9.1539 H         1 <0>         0.0621
     53 H29        -3.9810   -2.7298    7.6516 H         1 <0>         0.0615
     54 H30         1.8924    0.1470    8.0756 H         1 <0>         0.0749
     55 H31         1.1976    1.4346    9.1015 H         1 <0>         0.0650
     56 H32         4.3101    1.1793    4.2539 H         1 <0>         0.3757
     57 H33         0.2576    3.3450    1.3680 H         1 <0>         0.3719
     58 O4         -5.1280   -4.7968    9.0953 O.co2     1 <0>        -0.7795
@<TRIPOS>BOND
     1    1    2 1
     2    1   30 1
     3    1   31 1
     4    1   32 1
     5    2    3 1
     6    2   33 1
     7    2   34 1
     8    3    4 1
     9    3   35 1
    10    3   36 1
    11    4    5 1
    12    4   37 1
    13    4   38 1
    14    5    6 1
    15    5   39 1
    16    5   40 1
    17    6    7 1
    18    6    8 1
    19    6   29 1
    20    8    9 2
    21    8   41 1
    22    9   10 1
    23    9   42 1
    24   10   11 1
    25   10   17 1
    26   10   12 1
    27   12   13 1
    28   12   14 1
    29   12   28 1
    30   14   15 1
    31   14   43 1
    32   14   44 1
    33   15   16 1
    34   15   27 1
    35   15   17 1
    36   17   18 1
    37   17   19 1
    38   19   20 1
    39   19   45 1
    40   19   46 1
    41   20   21 2
    42   20   27 1
    43   21   22 1
    44   21   47 1
    45   22   23 1
    46   22   48 1
    47   22   49 1
    48   23   24 1
    49   23   50 1
    50   23   51 1
    51   24   25 1
    52   24   52 1
    53   24   53 1
    54   25   26 2
    55   25   58 1
    56   27   54 1
    57   27   55 1
    58   28   56 1
    59   29   57 1
@<TRIPOS>MOLECULE
ZINC03995991
   80    82     0     0     0
SMALL
USER_CHARGES

@<TRIPOS>ATOM
      1 C1         -1.4579   -0.0905   -0.4585 C.3       1 <0>        -0.1062
      2 C2          0.0278    0.2268   -0.2766 C.3       1 <0>        -0.1195
      3 C3          0.2789    1.6996   -0.6061 C.3       1 <0>        -0.1362
      4 C4          0.4281   -0.0439    1.1509 C.2       1 <0>         0.5009
      5 O1          1.2954   -0.8651    1.3955 O.co2     1 <0>        -0.6638
      6 O2         -0.1153    0.5584    2.0611 O.co2     1 <0>        -0.6827
      7 S1          1.0097   -0.8175   -1.3883 S.3       1 <0>        -0.1197
      8 C5          2.6709   -0.3090   -1.0943 C.ar      1 <0>        -0.0457
      9 C6          2.9554    0.5797   -0.0644 C.ar      1 <0>        -0.0923
     10 C7          4.2584    0.9759    0.1631 C.ar      1 <0>        -0.1041
     11 C8          5.2798    0.4896   -0.6325 C.ar      1 <0>        -0.1080
     12 C9          5.0004   -0.3946   -1.6586 C.ar      1 <0>        -0.1099
     13 C10         3.7005   -0.8001   -1.8881 C.ar      1 <0>        -0.1130
     14 C11         6.7006    0.9245   -0.3811 C.3       1 <0>        -0.0873
     15 C12         7.3601   -0.0361    0.6106 C.3       1 <0>         0.1138
     16 N1          8.7413    0.3867    0.8550 N.am      1 <0>        -0.6265
     17 C13         9.0392    1.3236    1.9412 C.3       1 <0>         0.1331
     18 C14         9.3215    0.5420    3.2258 C.3       1 <0>        -0.1347
     19 C15         9.6327    1.5205    4.3601 C.3       1 <0>        -0.1163
     20 C16         9.9150    0.7389    5.6448 C.3       1 <0>        -0.1138
     21 C17        10.2262    1.7173    6.7791 C.3       1 <0>        -0.0869
     22 C18        11.5241    2.4646    6.4664 C.3       1 <0>        -0.1156
     23 C19        11.8353    3.4431    7.6007 C.3       1 <0>        -0.1205
     24 C20        11.9948    2.6702    8.9115 C.3       1 <0>        -0.1196
     25 C21        10.6969    1.9230    9.2242 C.3       1 <0>        -0.1201
     26 C22        10.3857    0.9445    8.0899 C.3       1 <0>        -0.1153
     27 C23         9.7379   -0.0863    0.0807 C.2       1 <0>         0.7084
     28 O3         10.8842    0.2646    0.2836 O.2       1 <0>        -0.5929
     29 N2          9.4638   -0.9482   -0.9185 N.am      1 <0>        -0.7440
     30 C24        10.5470   -1.4623   -1.7602 C.3       1 <0>         0.1646
     31 C25        10.8294   -0.4704   -2.8904 C.3       1 <0>        -0.1295
     32 C26        11.9607   -1.0073   -3.7694 C.3       1 <0>        -0.1162
     33 C27        11.5482   -2.3550   -4.3648 C.3       1 <0>        -0.1219
     34 C28        11.2659   -3.3469   -3.2347 C.3       1 <0>        -0.1145
     35 C29        10.1345   -2.8100   -2.3556 C.3       1 <0>        -0.1283
     36 H1         -1.7252    0.0124   -1.5102 H         1 <0>         0.0499
     37 H2         -1.6539   -1.1117   -0.1320 H         1 <0>         0.0554
     38 H3         -2.0528    0.6020    0.1370 H         1 <0>         0.0726
     39 H4         -0.2072    2.3271    0.1409 H         1 <0>         0.0689
     40 H5          1.3512    1.8951   -0.6027 H         1 <0>         0.0597
     41 H6         -0.1285    1.9260   -1.5915 H         1 <0>         0.0521
     42 H7          2.1583    0.9602    0.5570 H         1 <0>         0.1409
     43 H8          4.4802    1.6668    0.9630 H         1 <0>         0.1152
     44 H9          5.8004   -0.7721   -2.2782 H         1 <0>         0.1146
     45 H10         3.4837   -1.4946   -2.6862 H         1 <0>         0.1184
     46 H11         7.2550    0.9150   -1.3195 H         1 <0>         0.0686
     47 H12         6.7041    1.9328    0.0328 H         1 <0>         0.0729
     48 H13         6.8057   -0.0266    1.5490 H         1 <0>         0.0867
     49 H14         7.3566   -1.0445    0.1967 H         1 <0>         0.0741
     50 H15         9.9138    1.9185    1.6781 H         1 <0>         0.0819
     51 H16         8.1851    1.9826    2.0971 H         1 <0>         0.0757
     52 H17         8.4469   -0.0529    3.4888 H         1 <0>         0.0626
     53 H18        10.1757   -0.1170    3.0699 H         1 <0>         0.0647
     54 H19        10.5073    2.1154    4.0971 H         1 <0>         0.0648
     55 H20         8.7786    2.1794    4.5160 H         1 <0>         0.0624
     56 H21         9.0404    0.1440    5.9078 H         1 <0>         0.0620
     57 H22        10.7692    0.0799    5.4888 H         1 <0>         0.0601
     58 H23         9.4095    2.4327    6.8762 H         1 <0>         0.0694
     59 H24        12.3408    1.7493    6.3693 H         1 <0>         0.0598
     60 H25        11.4105    3.0152    5.5326 H         1 <0>         0.0645
     61 H26        12.7600    3.9754    7.3779 H         1 <0>         0.0587
     62 H27        11.0186    4.1584    7.6978 H         1 <0>         0.0604
     63 H28        12.8116    1.9549    8.8144 H         1 <0>         0.0595
     64 H29        12.2165    3.3673    9.7196 H         1 <0>         0.0578
     65 H30        10.8105    1.3724   10.1580 H         1 <0>         0.0588
     66 H31         9.8802    2.6383    9.3213 H         1 <0>         0.0608
     67 H32         9.4610    0.4121    8.3127 H         1 <0>         0.0611
     68 H33        11.2024    0.2292    7.9928 H         1 <0>         0.0599
     69 H34         8.5493   -1.2281   -1.0804 H         1 <0>         0.3968
     70 H35        11.4458   -1.5914   -1.1571 H         1 <0>         0.0858
     71 H36         9.9307   -0.3413   -3.4935 H         1 <0>         0.0624
     72 H37        11.1233    0.4897   -2.4662 H         1 <0>         0.0672
     73 H38        12.1619   -0.3007   -4.5745 H         1 <0>         0.0627
     74 H39        12.8595   -1.1364   -3.1663 H         1 <0>         0.0631
     75 H40        10.6495   -2.2259   -4.9679 H         1 <0>         0.0628
     76 H41        12.3542   -2.7375   -4.9911 H         1 <0>         0.0618
     77 H42        10.9720   -4.3070   -3.6589 H         1 <0>         0.0662
     78 H43        12.1646   -3.4760   -2.6315 H         1 <0>         0.0641
     79 H44         9.9334   -3.5166   -1.5505 H         1 <0>         0.0685
     80 H45         9.2358   -2.6809   -2.9588 H         1 <0>         0.0684
@<TRIPOS>BOND
     1    1    2 1
     2    1   36 1
     3    1   37 1
     4    1   38 1
     5    2    3 1
     6    2    4 1
     7    2    7 1
     8    3   39 1
     9    3   40 1
    10    3   41 1
    11    4    5 2
    12    4    6 1
    13    7    8 1
    14    8   13 ar
    15    8    9 ar
    16    9   10 ar
    17    9   42 1
    18   10   11 ar
    19   10   43 1
    20   11   12 ar
    21   11   14 1
    22   12   13 ar
    23   12   44 1
    24   13   45 1
    25   14   15 1
    26   14   46 1
    27   14   47 1
    28   15   16 1
    29   15   48 1
    30   15   49 1
    31   16   17 1
    32   16   27 am
    33   17   18 1
    34   17   50 1
    35   17   51 1
    36   18   19 1
    37   18   52 1
    38   18   53 1
    39   19   20 1
    40   19   54 1
    41   19   55 1
    42   20   21 1
    43   20   56 1
    44   20   57 1
    45   21   26 1
    46   21   22 1
    47   21   58 1
    48   22   23 1
    49   22   59 1
    50   22   60 1
    51   23   24 1
    52   23   61 1
    53   23   62 1
    54   24   25 1
    55   24   63 1
    56   24   64 1
    57   25   26 1
    58   25   65 1
    59   25   66 1
    60   26   67 1
    61   26   68 1
    62   27   28 2
    63   27   29 am
    64   29   30 1
    65   29   69 1
    66   30   35 1
    67   30   31 1
    68   30   70 1
    69   31   32 1
    70   31   71 1
    71   31   72 1
    72   32   33 1
    73   32   73 1
    74   32   74 1
    75   33   34 1
    76   33   75 1
    77   33   76 1
    78   34   35 1
    79   34   77 1
    80   34   78 1
    81   35   79 1
    82   35   80 1
@<TRIPOS>MOLECULE
ZINC16052349
   53    55     0     0     0
SMALL
USER_CHARGES
2-methyl-2-[4-[[[4-methyl-2-[4-(trifluoromethyl)phenyl]thiazole-5-carbonyl]amino]methyl]phenoxy]propanoic acid
@<TRIPOS>ATOM
      1 C1          1.3869    8.1350    3.4861 C.3       1 <0>        -0.0895
      2 C2          1.3452    6.8789    4.3176 C.2       1 <0>         0.1450
      3 C3          1.3321    5.6240    3.7220 C.2       1 <0>        -0.2586
      4 S1          1.2760    4.5750    5.1679 S.3       1 <0>         0.1405
      5 C4          1.2842    5.8352    6.3626 C.2       1 <0>         0.1146
      6 N1          1.3206    6.9340    5.6215 N.2       1 <0>        -0.5012
      7 C5          1.2527    5.7135    7.8352 C.ar      1 <0>         0.0159
      8 C6          1.2097    4.4532    8.4338 C.ar      1 <0>        -0.0930
      9 C7          1.1863    4.3467    9.8090 C.ar      1 <0>        -0.0650
     10 C8          1.1939    5.4857   10.5945 C.ar      1 <0>        -0.1682
     11 C9          1.2307    6.7381   10.0075 C.ar      1 <0>        -0.0703
     12 C10         1.2602    6.8586    8.6335 C.ar      1 <0>        -0.0704
     13 C11         1.1614    5.3617   12.0960 C.3       1 <0>         0.5086
     14 F1         -0.1672    5.3497   12.5343 F         1 <0>        -0.1744
     15 F2          1.7896    4.1719   12.4794 F         1 <0>        -0.1741
     16 F3          1.8314    6.4483   12.6683 F         1 <0>        -0.1754
     17 C12         1.3522    5.2611    2.3019 C.2       1 <0>         0.6073
     18 O1          1.3855    6.1315    1.4518 O.2       1 <0>        -0.5224
     19 N2          1.3338    3.9637    1.9375 N.am      1 <0>        -0.7133
     20 C13         1.3539    3.6010    0.5183 C.3       1 <0>         0.1755
     21 C14         1.3272    2.1004    0.3828 C.ar      1 <0>        -0.1745
     22 C15         0.1173    1.4365    0.2979 C.ar      1 <0>        -0.0702
     23 C16         0.0901    0.0609    0.1737 C.ar      1 <0>        -0.1717
     24 C17         1.2782   -0.6544    0.1342 C.ar      1 <0>         0.1781
     25 C18         2.4908    0.0140    0.2196 C.ar      1 <0>        -0.1685
     26 C19         2.5126    1.3897    0.3437 C.ar      1 <0>        -0.0699
     27 O2          1.2541   -2.0078    0.0126 O.3       1 <0>        -0.3016
     28 C20         2.5117   -2.6673   -0.1469 C.3       1 <0>         0.0567
     29 C21         2.2821   -4.1716   -0.3064 C.3       1 <0>        -0.1164
     30 C22         3.2181   -2.1245   -1.3908 C.3       1 <0>        -0.1767
     31 C23         3.3683   -2.4158    1.0672 C.2       1 <0>         0.4491
     32 O3          2.9453   -1.7410    1.9758 O.co2     1 <0>        -0.6148
     33 H1          0.3698    8.4583    3.2650 H         1 <0>         0.0812
     34 H2          1.9056    8.9190    4.0379 H         1 <0>         0.0749
     35 H3          1.9157    7.9362    2.5539 H         1 <0>         0.0977
     36 H4          1.1989    3.5635    7.8217 H         1 <0>         0.1430
     37 H5          1.1572    3.3721   10.2735 H         1 <0>         0.1474
     38 H6          1.2368    7.6232   10.6263 H         1 <0>         0.1451
     39 H7          1.2886    7.8368    8.1765 H         1 <0>         0.1497
     40 H8          1.3073    3.2700    2.6150 H         1 <0>         0.4032
     41 H9          2.2607    3.9914    0.0563 H         1 <0>         0.0763
     42 H10         0.4814    4.0262    0.0222 H         1 <0>         0.0764
     43 H11        -0.8071    1.9942    0.3241 H         1 <0>         0.1211
     44 H12        -0.8551   -0.4572    0.1071 H         1 <0>         0.1243
     45 H13         3.4170   -0.5407    0.1895 H         1 <0>         0.1432
     46 H14         3.4564    1.9106    0.4098 H         1 <0>         0.1178
     47 H15         1.7356   -4.3597   -1.2305 H         1 <0>         0.0538
     48 H16         3.2434   -4.6841   -0.3419 H         1 <0>         0.0834
     49 H17         1.7037   -4.5425    0.5398 H         1 <0>         0.0580
     50 H18         3.2643   -1.0368   -1.3368 H         1 <0>         0.0700
     51 H19         4.2290   -2.5291   -1.4402 H         1 <0>         0.0801
     52 H20         2.6642   -2.4209   -2.2816 H         1 <0>         0.0544
     53 O4          4.6013   -2.9415    1.1391 O.co2     1 <0>        -0.7518
@<TRIPOS>BOND
     1    1    2 1
     2    1   33 1
     3    1   34 1
     4    1   35 1
     5    2    6 1
     6    2    3 2
     7    3    4 1
     8    3   17 1
     9    4    5 1
    10    5    6 2
    11    5    7 1
    12    7   12 ar
    13    7    8 ar
    14    8    9 ar
    15    8   36 1
    16    9   10 ar
    17    9   37 1
    18   10   11 ar
    19   10   13 1
    20   11   12 ar
    21   11   38 1
    22   12   39 1
    23   13   14 1
    24   13   15 1
    25   13   16 1
    26   17   18 2
    27   17   19 am
    28   19   20 1
    29   19   40 1
    30   20   21 1
    31   20   41 1
    32   20   42 1
    33   21   26 ar
    34   21   22 ar
    35   22   23 ar
    36   22   43 1
    37   23   24 ar
    38   23   44 1
    39   24   25 ar
    40   24   27 1
    41   25   26 ar
    42   25   45 1
    43   26   46 1
    44   27   28 1
    45   28   29 1
    46   28   30 1
    47   28   31 1
    48   29   47 1
    49   29   48 1
    50   29   49 1
    51   30   50 1
    52   30   51 1
    53   30   52 1
    54   31   32 2
    55   31   53 1
@<TRIPOS>MOLECULE
ZINC03949282
   46    48     0     0     0
SMALL
USER_CHARGES
2-[4-[3,3-bis(4-bromophenyl)prop-2-enylsulfanyl]-2-chloro-phenoxy]acetic acid
@<TRIPOS>ATOM
      1 C1          1.6120    3.9556   -1.0826 C.ar      1 <0>        -0.0922
      2 C2          1.5852    5.3352   -1.0725 C.ar      1 <0>        -0.0863
      3 C3          1.0791    6.0120    0.0238 C.ar      1 <0>        -0.0860
      4 C4          0.5921    5.3097    1.1127 C.ar      1 <0>        -0.0881
      5 C5          0.6085    3.9300    1.1103 C.ar      1 <0>        -0.1053
      6 C6          1.1171    3.2434    0.0088 C.ar      1 <0>        -0.0314
      7 C7          1.1372    1.7607    0.0007 C.2       1 <0>        -0.0430
      8 C8         -0.0126    1.0758    0.0080 C.2       1 <0>        -0.0951
      9 C9         -1.3278    1.8115    0.0182 C.3       1 <0>        -0.0915
     10 S1         -2.2157    1.4843   -1.5294 S.3       1 <0>        -0.1046
     11 C10        -3.7110    2.4017   -1.3651 C.ar      1 <0>        -0.1292
     12 C11        -3.9511    3.1388   -0.2121 C.ar      1 <0>        -0.0825
     13 C12        -5.1205    3.8626   -0.0865 C.ar      1 <0>        -0.1869
     14 C13        -6.0612    3.8443   -1.1055 C.ar      1 <0>         0.1517
     15 C14        -5.8254    3.1038   -2.2556 C.ar      1 <0>        -0.0598
     16 C15        -4.6530    2.3838   -2.3857 C.ar      1 <0>        -0.0502
     17 Cl1        -7.0031    3.0826   -3.5308 Cl        1 <0>        -0.0472
     18 O1         -7.2153    4.5528   -0.9779 O.3       1 <0>        -0.2698
     19 C16        -7.3922    5.2923    0.2320 C.3       1 <0>         0.0143
     20 C17        -8.7178    6.0082    0.1939 C.2       1 <0>         0.4697
     21 O2         -9.4372    5.8966   -0.7704 O.co2     1 <0>        -0.6084
     22 C18         2.4313    1.0368   -0.0156 C.ar      1 <0>        -0.0277
     23 C19         3.3034    1.1388    1.0671 C.ar      1 <0>        -0.0945
     24 C20         4.5036    0.4582    1.0496 C.ar      1 <0>        -0.0895
     25 C21         4.8475   -0.3153   -0.0457 C.ar      1 <0>        -0.0883
     26 C22         3.9878   -0.4151   -1.1260 C.ar      1 <0>        -0.0889
     27 C23         2.7825    0.2565   -1.1160 C.ar      1 <0>        -0.0976
     28 Br1         6.4971   -1.2395   -0.0658 Br        1 <0>        -0.0513
     29 Br2         1.0522    7.9028    0.0337 Br        1 <0>        -0.0471
     30 H1          2.0115    3.4285   -1.9364 H         1 <0>         0.1331
     31 H2          1.9639    5.8879   -1.9195 H         1 <0>         0.1352
     32 H3          0.1983    5.8426    1.9656 H         1 <0>         0.1364
     33 H4          0.2277    3.3829    1.9600 H         1 <0>         0.1340
     34 H5          0.0021   -0.0041    0.0020 H         1 <0>         0.1337
     35 H6         -1.9286    1.4699    0.8610 H         1 <0>         0.1014
     36 H7         -1.1446    2.8818    0.1127 H         1 <0>         0.1012
     37 H8         -3.2212    3.1496    0.5837 H         1 <0>         0.1256
     38 H9         -5.3050    4.4391    0.8079 H         1 <0>         0.1422
     39 H10        -4.4695    1.8073   -3.2803 H         1 <0>         0.1403
     40 H11        -7.3723    4.6095    1.0814 H         1 <0>         0.0688
     41 H12        -6.5883    6.0214    0.3330 H         1 <0>         0.0690
     42 H13         3.0382    1.7459    1.9200 H         1 <0>         0.1332
     43 H14         5.1779    0.5327    1.8899 H         1 <0>         0.1346
     44 H15         4.2608   -1.0199   -1.9781 H         1 <0>         0.1356
     45 H16         2.1122    0.1774   -1.9591 H         1 <0>         0.1363
     46 O3         -9.0993    6.7699    1.2312 O.co2     1 <0>        -0.7538
@<TRIPOS>BOND
     1    1    6 ar
     2    1    2 ar
     3    1   30 1
     4    2    3 ar
     5    2   31 1
     6    3    4 ar
     7    3   29 1
     8    4    5 ar
     9    4   32 1
    10    5    6 ar
    11    5   33 1
    12    6    7 1
    13    7    8 2
    14    7   22 1
    15    8    9 1
    16    8   34 1
    17    9   10 1
    18    9   35 1
    19    9   36 1
    20   10   11 1
    21   11   16 ar
    22   11   12 ar
    23   12   13 ar
    24   12   37 1
    25   13   14 ar
    26   13   38 1
    27   14   15 ar
    28   14   18 1
    29   15   16 ar
    30   15   17 1
    31   16   39 1
    32   18   19 1
    33   19   20 1
    34   19   40 1
    35   19   41 1
    36   20   21 2
    37   20   46 1
    38   22   27 ar
    39   22   23 ar
    40   23   24 ar
    41   23   42 1
    42   24   25 ar
    43   24   43 1
    44   25   26 ar
    45   25   28 1
    46   26   27 ar
    47   26   44 1
    48   27   45 1
@<TRIPOS>MOLECULE
ZINC14115100
   67    68     0     0     0
SMALL
USER_CHARGES
2-[4-[2-[(2,4-difluorophenyl)carbamoyl-heptyl-amino]ethyl]phenyl]sulfanyl-2-methyl-propanoic acid
@<TRIPOS>ATOM
      1 C1         -3.2763    9.6479   -4.4636 C.3       1 <0>        -0.1540
      2 C2         -3.2631    8.1180   -4.4701 C.3       1 <0>        -0.1263
      3 C3         -3.3770    7.6010   -3.0346 C.3       1 <0>        -0.1208
      4 C4         -3.3638    6.0710   -3.0410 C.3       1 <0>        -0.1200
      5 C5         -3.4776    5.5540   -1.6055 C.3       1 <0>        -0.1184
      6 C6         -3.4644    4.0241   -1.6120 C.3       1 <0>        -0.1408
      7 C7         -3.5783    3.5070   -0.1765 C.3       1 <0>         0.1039
      8 N1         -3.5657    2.0421   -0.1826 N.am      1 <0>        -0.6181
      9 C8         -4.8238    1.2992   -0.2897 C.3       1 <0>         0.1373
     10 C9         -5.3800    1.0335    1.1106 C.3       1 <0>        -0.0930
     11 C10        -6.6741    0.2693    1.0004 C.ar      1 <0>        -0.0744
     12 C11        -7.8732    0.9525    0.9109 C.ar      1 <0>        -0.1263
     13 C12        -9.0606    0.2557    0.8041 C.ar      1 <0>        -0.0745
     14 C13        -9.0505   -1.1340    0.7981 C.ar      1 <0>        -0.1107
     15 C14        -7.8441   -1.8173    0.8939 C.ar      1 <0>        -0.0724
     16 C15        -6.6603   -1.1137    0.9947 C.ar      1 <0>        -0.1215
     17 S1        -10.5636   -2.0276    0.6686 S.3       1 <0>        -0.1222
     18 C16       -11.1603   -2.1302    2.3786 C.3       1 <0>        -0.0783
     19 C17       -10.1880   -2.9709    3.2085 C.3       1 <0>        -0.1213
     20 C18       -11.2525   -0.7229    2.9719 C.3       1 <0>        -0.1228
     21 C19       -12.5230   -2.7734    2.3974 C.2       1 <0>         0.4904
     22 O1        -13.0387   -3.1265    1.3633 O.co2     1 <0>        -0.6162
     23 C20        -2.3966    1.3779   -0.0897 C.2       1 <0>         0.7080
     24 O2         -2.3861    0.1620   -0.0948 O.2       1 <0>        -0.5628
     25 N2         -1.2392    2.0614    0.0088 N.am      1 <0>        -0.6805
     26 C21        -0.0164    1.3761   -0.0139 C.ar      1 <0>         0.1349
     27 C22         0.0735    0.1352   -0.6286 C.ar      1 <0>        -0.0774
     28 C23         1.2807   -0.5362   -0.6551 C.ar      1 <0>        -0.1359
     29 C24         2.4016    0.0276   -0.0694 C.ar      1 <0>         0.1054
     30 C25         2.3157    1.2653    0.5452 C.ar      1 <0>        -0.1674
     31 C26         1.1094    1.9412    0.5742 C.ar      1 <0>         0.0905
     32 F1          1.0253    3.1494    1.1731 F         1 <0>        -0.1311
     33 F2          3.5807   -0.6311   -0.0974 F         1 <0>        -0.1323
     34 H1         -4.2085   10.0014   -4.0230 H         1 <0>         0.0537
     35 H2         -2.4346   10.0161   -3.8770 H         1 <0>         0.0529
     36 H3         -3.1952   10.0163   -5.4863 H         1 <0>         0.0529
     37 H4         -2.3309    7.7645   -4.9107 H         1 <0>         0.0599
     38 H5         -4.1048    7.7499   -5.0567 H         1 <0>         0.0609
     39 H6         -4.3092    7.9544   -2.5939 H         1 <0>         0.0619
     40 H7         -2.5353    7.9691   -2.4480 H         1 <0>         0.0606
     41 H8         -2.4316    5.7176   -3.4816 H         1 <0>         0.0608
     42 H9         -4.2055    5.7029   -3.6276 H         1 <0>         0.0628
     43 H10        -4.4098    5.9075   -1.1649 H         1 <0>         0.0666
     44 H11        -2.6359    5.9221   -1.0189 H         1 <0>         0.0632
     45 H12        -2.5322    3.6706   -2.0526 H         1 <0>         0.0646
     46 H13        -4.3062    3.6559   -2.1986 H         1 <0>         0.0727
     47 H14        -4.5105    3.8605    0.2642 H         1 <0>         0.0902
     48 H15        -2.7366    3.8752    0.4101 H         1 <0>         0.0718
     49 H16        -5.5438    1.8845   -0.8617 H         1 <0>         0.0837
     50 H17        -4.6435    0.3504   -0.7952 H         1 <0>         0.0912
     51 H18        -4.6599    0.4482    1.6825 H         1 <0>         0.0767
     52 H19        -5.5602    1.9823    1.6160 H         1 <0>         0.0716
     53 H20        -7.8806    2.0325    0.9200 H         1 <0>         0.1202
     54 H21        -9.9962    0.7899    0.7297 H         1 <0>         0.1282
     55 H22        -7.8326   -2.8972    0.8899 H         1 <0>         0.1287
     56 H23        -5.7223   -1.6440    1.0689 H         1 <0>         0.1231
     57 H24        -9.2266   -2.4607    3.2687 H         1 <0>         0.0432
     58 H25       -10.5906   -3.1069    4.2122 H         1 <0>         0.0696
     59 H26       -10.0541   -3.9438    2.7358 H         1 <0>         0.0576
     60 H27       -12.0092   -0.1510    2.4349 H         1 <0>         0.0571
     61 H28       -11.5267   -0.7897    4.0247 H         1 <0>         0.0676
     62 H29       -10.2871   -0.2254    2.8788 H         1 <0>         0.0458
     63 H30        -1.2523    3.0274    0.0955 H         1 <0>         0.4108
     64 H31        -0.7998   -0.3054   -1.0864 H         1 <0>         0.1692
     65 H32         1.3502   -1.5020   -1.1336 H         1 <0>         0.1472
     66 H33         3.1911    1.7034    1.0014 H         1 <0>         0.1517
     67 O3        -13.1638   -2.9542    3.5629 O.co2     1 <0>        -0.7496
@<TRIPOS>BOND
     1    1    2 1
     2    1   34 1
     3    1   35 1
     4    1   36 1
     5    2    3 1
     6    2   37 1
     7    2   38 1
     8    3    4 1
     9    3   39 1
    10    3   40 1
    11    4    5 1
    12    4   41 1
    13    4   42 1
    14    5    6 1
    15    5   43 1
    16    5   44 1
    17    6    7 1
    18    6   45 1
    19    6   46 1
    20    7    8 1
    21    7   47 1
    22    7   48 1
    23    8    9 1
    24    8   23 am
    25    9   10 1
    26    9   49 1
    27    9   50 1
    28   10   11 1
    29   10   51 1
    30   10   52 1
    31   11   16 ar
    32   11   12 ar
    33   12   13 ar
    34   12   53 1
    35   13   14 ar
    36   13   54 1
    37   14   15 ar
    38   14   17 1
    39   15   16 ar
    40   15   55 1
    41   16   56 1
    42   17   18 1
    43   18   19 1
    44   18   20 1
    45   18   21 1
    46   19   57 1
    47   19   58 1
    48   19   59 1
    49   20   60 1
    50   20   61 1
    51   20   62 1
    52   21   22 2
    53   21   67 1
    54   23   24 2
    55   23   25 am
    56   25   26 1
    57   25   63 1
    58   26   31 ar
    59   26   27 ar
    60   27   28 ar
    61   27   64 1
    62   28   29 ar
    63   28   65 1
    64   29   30 ar
    65   29   33 1
    66   30   31 ar
    67   30   66 1
    68   31   32 1
@<TRIPOS>MOLECULE
ZINC00001963
   34    35     0     0     0
SMALL
USER_CHARGES

@<TRIPOS>ATOM
      1 C1          1.1628    1.2415   -0.1816 C.3       1 <0>        -0.1125
      2 C2          0.5396   -0.1274   -0.0881 C.ar      1 <0>        -0.0708
      3 C3         -0.0758   -0.6832   -1.1950 C.ar      1 <0>        -0.1399
      4 C4         -0.6489   -1.9389   -1.1136 C.ar      1 <0>        -0.0956
      5 C5         -0.6081   -2.6426    0.0743 C.ar      1 <0>        -0.1245
      6 C6          0.0094   -2.0875    1.1876 C.ar      1 <0>         0.1624
      7 C7          0.5885   -0.8277    1.1009 C.ar      1 <0>        -0.1269
      8 C8          1.2642   -0.2236    2.3049 C.3       1 <0>        -0.1134
      9 N1          0.0525   -2.7970    2.3913 N.pl3     1 <0>        -0.6432
     10 C9         -0.0333   -4.1809    2.3838 C.ar      1 <0>         0.4504
     11 C10        -0.1233   -4.8911    3.5821 C.ar      1 <0>        -0.2937
     12 C11        -0.2076   -6.2706    3.5268 C.ar      1 <0>         0.2686
     13 N2         -0.2005   -6.8736    2.3458 N.ar      1 <0>        -0.5558
     14 C12        -0.1140   -6.1729    1.2242 C.ar      1 <0>         0.3382
     15 N3         -0.0367   -4.8500    1.2351 N.ar      1 <0>        -0.5436
     16 S1         -0.1079   -7.0210   -0.3202 S.3       1 <0>         0.0845
     17 C13        -0.2344   -8.7712    0.1397 C.3       1 <0>        -0.1742
     18 C14        -0.2397   -9.6189   -1.1062 C.2       1 <0>         0.5136
     19 O1         -0.1649   -9.0913   -2.2028 O.co2     1 <0>        -0.6747
     20 O2         -0.3186  -10.8323   -1.0176 O.co2     1 <0>        -0.6767
     21 Cl1        -0.3208   -7.2023    4.9872 Cl        1 <0>        -0.0203
     22 H1          2.2036    1.1465   -0.4911 H         1 <0>         0.0688
     23 H2          0.6192    1.8390   -0.9134 H         1 <0>         0.0653
     24 H3          1.1164    1.7291    0.7921 H         1 <0>         0.0654
     25 H4         -0.1091   -0.1351   -2.1250 H         1 <0>         0.1195
     26 H5         -1.1293   -2.3698   -1.9796 H         1 <0>         0.1264
     27 H6         -1.0562   -3.6232    0.1373 H         1 <0>         0.1517
     28 H7          0.5364    0.3468    2.8820 H         1 <0>         0.0672
     29 H8          1.6782   -1.0180    2.9259 H         1 <0>         0.0600
     30 H9          2.0668    0.4373    1.9776 H         1 <0>         0.0719
     31 H10         0.1425   -2.3212    3.2317 H         1 <0>         0.4195
     32 H11        -0.1267   -4.3752    4.5310 H         1 <0>         0.1489
     33 H12         0.6171   -9.0457    0.7624 H         1 <0>         0.0917
     34 H13        -1.1582   -8.9351    0.6946 H         1 <0>         0.0918
@<TRIPOS>BOND
     1    1    2 1
     2    1   22 1
     3    1   23 1
     4    1   24 1
     5    2    7 ar
     6    2    3 ar
     7    3    4 ar
     8    3   25 1
     9    4    5 ar
    10    4   26 1
    11    5    6 ar
    12    5   27 1
    13    6    7 ar
    14    6    9 1
    15    7    8 1
    16    8   28 1
    17    8   29 1
    18    8   30 1
    19    9   10 1
    20    9   31 1
    21   10   15 ar
    22   10   11 ar
    23   11   12 ar
    24   11   32 1
    25   12   13 ar
    26   12   21 1
    27   13   14 ar
    28   14   15 ar
    29   14   16 1
    30   16   17 1
    31   17   18 1
    32   17   33 1
    33   17   34 1
    34   18   19 2
    35   18   20 1
@<TRIPOS>MOLECULE
ZINC37866948
   54    57     0     0     0
SMALL
USER_CHARGES

@<TRIPOS>ATOM
      1 C1         -0.0167    1.3796    0.0096 C.ar      1 <0>        -0.0948
      2 C2          1.1682    2.0943    0.0022 C.ar      1 <0>        -0.1233
      3 C3          2.3774    1.4310   -0.0134 C.ar      1 <0>        -0.0779
      4 C4          2.4040    0.0343   -0.0212 C.ar      1 <0>        -0.0507
      5 C5          1.2039   -0.6807   -0.0131 C.ar      1 <0>        -0.0764
      6 C6          0.0021   -0.0041    0.0020 C.ar      1 <0>        -0.1165
      7 C7          3.6938   -0.6825   -0.0384 C.2       1 <0>         0.1600
      8 C8          3.8643   -2.0608   -0.0531 C.2       1 <0>        -0.2835
      9 C9          5.3136   -2.3008   -0.0669 C.2       1 <0>         0.2004
     10 N1          5.8985   -1.1301   -0.0601 N.2       1 <0>        -0.2965
     11 O1          4.9113   -0.1195   -0.0484 O.3       1 <0>        -0.0702
     12 C10         5.9875   -3.6222   -0.0843 C.ar      1 <0>        -0.0525
     13 C11         5.4281   -4.7017    0.5971 C.ar      1 <0>        -0.1083
     14 C12         6.0591   -5.9287    0.5771 C.ar      1 <0>        -0.1186
     15 C13         7.2450   -6.0884   -0.1172 C.ar      1 <0>        -0.0909
     16 C14         7.8049   -5.0205   -0.7948 C.ar      1 <0>        -0.0184
     17 C15         7.1792   -3.7902   -0.7867 C.ar      1 <0>        -0.0692
     18 C16         9.0972   -5.2022   -1.5484 C.3       1 <0>        -0.1613
     19 C17         8.7981   -5.6196   -2.9652 C.2       1 <0>         0.4965
     20 O2          7.6426   -5.7569   -3.3292 O.co2     1 <0>        -0.6850
     21 O3          9.7115   -5.8200   -3.7474 O.co2     1 <0>        -0.6998
     22 C18         2.8040   -3.0785   -0.0542 C.2       1 <0>         0.6025
     23 O4          2.3568   -3.4899   -1.1081 O.2       1 <0>        -0.5095
     24 N2          2.3271   -3.5561    1.1124 N.am      1 <0>        -0.7256
     25 C19         1.2702   -4.5705    1.1114 C.3       1 <0>         0.1211
     26 C20         0.9137   -4.9372    2.5534 C.3       1 <0>         0.0417
     27 O5          0.3461   -3.8005    3.2075 O.3       1 <0>        -0.2953
     28 C21        -0.0283   -3.9581    4.5048 C.ar      1 <0>         0.1484
     29 C22         0.1525   -5.1797    5.1363 C.ar      1 <0>        -0.1863
     30 C23        -0.2285   -5.3381    6.4547 C.ar      1 <0>        -0.0628
     31 C24        -0.7904   -4.2792    7.1460 C.ar      1 <0>        -0.0641
     32 C25        -0.9719   -3.0595    6.5187 C.ar      1 <0>        -0.0643
     33 C26        -0.5867   -2.8951    5.2011 C.ar      1 <0>        -0.0603
     34 Cl1        -0.8079   -1.3626    4.4160 Cl        1 <0>        -0.0391
     35 Cl2        -1.2687   -4.4816    8.8025 Cl        1 <0>        -0.0589
     36 H1         -0.9606    1.9041    0.0260 H         1 <0>         0.1284
     37 H2          1.1461    3.1740    0.0082 H         1 <0>         0.1317
     38 H3          3.3014    1.9900   -0.0200 H         1 <0>         0.1356
     39 H4          1.2171   -1.7606   -0.0194 H         1 <0>         0.1322
     40 H5         -0.9265   -0.5555    0.0083 H         1 <0>         0.1312
     41 H6          4.5027   -4.5780    1.1400 H         1 <0>         0.1163
     42 H7          5.6266   -6.7659    1.1047 H         1 <0>         0.1231
     43 H8          7.7357   -7.0504   -0.1299 H         1 <0>         0.1225
     44 H9          7.6147   -2.9582   -1.3202 H         1 <0>         0.1232
     45 H10         9.6489   -4.2621   -1.5554 H         1 <0>         0.0721
     46 H11         9.6965   -5.9716   -1.0618 H         1 <0>         0.0733
     47 H12         2.6837   -3.2281    1.9528 H         1 <0>         0.4062
     48 H13         0.3877   -4.1753    0.6082 H         1 <0>         0.0847
     49 H14         1.6202   -5.4593    0.5864 H         1 <0>         0.1006
     50 H15         0.1920   -5.7540    2.5528 H         1 <0>         0.0880
     51 H16         1.8145   -5.2485    3.0824 H         1 <0>         0.0786
     52 H17         0.5906   -6.0068    4.5974 H         1 <0>         0.1485
     53 H18        -0.0881   -6.2895    6.9463 H         1 <0>         0.1433
     54 H19        -1.4109   -2.2344    7.0597 H         1 <0>         0.1497
@<TRIPOS>BOND
     1    1    6 ar
     2    1    2 ar
     3    1   36 1
     4    2    3 ar
     5    2   37 1
     6    3    4 ar
     7    3   38 1
     8    4    5 ar
     9    4    7 1
    10    5    6 ar
    11    5   39 1
    12    6   40 1
    13    7   11 1
    14    7    8 2
    15    8    9 1
    16    8   22 1
    17    9   10 2
    18    9   12 1
    19   10   11 1
    20   12   17 ar
    21   12   13 ar
    22   13   14 ar
    23   13   41 1
    24   14   15 ar
    25   14   42 1
    26   15   16 ar
    27   15   43 1
    28   16   17 ar
    29   16   18 1
    30   17   44 1
    31   18   19 1
    32   18   45 1
    33   18   46 1
    34   19   20 2
    35   19   21 1
    36   22   23 2
    37   22   24 am
    38   24   25 1
    39   24   47 1
    40   25   26 1
    41   25   48 1
    42   25   49 1
    43   26   27 1
    44   26   50 1
    45   26   51 1
    46   27   28 1
    47   28   33 ar
    48   28   29 ar
    49   29   30 ar
    50   29   52 1
    51   30   31 ar
    52   30   53 1
    53   31   32 ar
    54   31   35 1
    55   32   33 ar
    56   32   54 1
    57   33   34 1
@<TRIPOS>MOLECULE
ZINC08022594
   47    49     0     0     0
SMALL
USER_CHARGES

@<TRIPOS>ATOM
      1 C1         -0.0184    1.5028    0.0103 C.3       1 <0>        -0.1057
      2 C2          0.0021   -0.0041    0.0020 C.ar      1 <0>        -0.1055
      3 C3          0.0057   -0.6878   -1.1980 C.ar      1 <0>        -0.0578
      4 C4          0.0246   -2.0766   -1.2053 C.ar      1 <0>        -0.1393
      5 C5          0.0397   -2.7765   -0.0051 C.ar      1 <0>        -0.0936
      6 C6          0.0360   -2.0909    1.1933 C.ar      1 <0>        -0.1958
      7 C7          0.0229   -0.7036    1.1994 C.ar      1 <0>         0.1428
      8 O1          0.0254   -0.0293    2.3804 O.3       1 <0>        -0.2743
      9 C8          0.0474   -0.8131    3.5751 C.3       1 <0>        -0.0087
     10 C9          0.0468    0.0992    4.7746 C.2       1 <0>         0.5015
     11 O2          0.0293    1.3085    4.6207 O.co2     1 <0>        -0.6695
     12 O3          0.0640   -0.3721    5.8989 O.co2     1 <0>        -0.6867
     13 S1          0.0286   -2.9502   -2.7355 S.3       1 <0>        -0.1068
     14 C10         0.0549   -4.6962   -2.2439 C.3       1 <0>        -0.0216
     15 C11         0.0604   -5.5647   -3.4755 C.2       1 <0>        -0.1482
     16 C12         1.1098   -6.0555   -4.1871 C.2       1 <0>         0.0771
     17 N1          0.8913   -6.8034   -5.2429 N.2       1 <0>        -0.4749
     18 C13        -0.3404   -7.0952   -5.6368 C.2       1 <0>         0.1220
     19 S2         -1.3116   -6.2421   -4.4014 S.3       1 <0>         0.0640
     20 C14        -0.7899   -7.9110   -6.7852 C.ar      1 <0>         0.0575
     21 C15        -2.1529   -8.0893   -7.0271 C.ar      1 <0>        -0.1078
     22 C16        -2.5672   -8.8514   -8.0998 C.ar      1 <0>        -0.0372
     23 C17        -1.6352   -9.4396   -8.9359 C.ar      1 <0>        -0.2128
     24 C18        -0.2805   -9.2673   -8.7023 C.ar      1 <0>         0.1568
     25 C19         0.1466   -8.5008   -7.6344 C.ar      1 <0>        -0.1127
     26 F1          0.6243   -9.8446   -9.5229 F         1 <0>        -0.1169
     27 C20        -2.0954  -10.2716  -10.1052 C.3       1 <0>         0.5137
     28 F2         -3.4937  -10.3004  -10.1354 F         1 <0>        -0.1713
     29 F3         -1.6147   -9.7117  -11.2938 F         1 <0>        -0.1702
     30 F4         -1.6048  -11.5750   -9.9719 F         1 <0>        -0.1704
     31 C21         2.5216   -5.7406   -3.7642 C.3       1 <0>        -0.0908
     32 H1          1.0042    1.8801    0.0026 H         1 <0>         0.0690
     33 H2         -0.5455    1.8639   -0.8728 H         1 <0>         0.0611
     34 H3         -0.5286    1.8543    0.9071 H         1 <0>         0.0803
     35 H4         -0.0064   -0.1428   -2.1303 H         1 <0>         0.1298
     36 H5          0.0540   -3.8564   -0.0097 H         1 <0>         0.1186
     37 H6          0.0478   -2.6347    2.1263 H         1 <0>         0.1328
     38 H7         -0.8339   -1.4538    3.6055 H         1 <0>         0.0595
     39 H8          0.9458   -1.4302    3.5883 H         1 <0>         0.0598
     40 H9          0.9506   -4.8945   -1.6554 H         1 <0>         0.1159
     41 H10        -0.8291   -4.9187   -1.6464 H         1 <0>         0.1066
     42 H11        -2.8822   -7.6315   -6.3752 H         1 <0>         0.1483
     43 H12        -3.6218   -8.9894   -8.2871 H         1 <0>         0.1590
     44 H13         1.2026   -8.3626   -7.4552 H         1 <0>         0.1622
     45 H14         2.8716   -6.5040   -3.0694 H         1 <0>         0.0782
     46 H15         3.1684   -5.7238   -4.6414 H         1 <0>         0.0797
     47 H16         2.5460   -4.7664   -3.2761 H         1 <0>         0.0824
@<TRIPOS>BOND
     1    1    2 1
     2    1   32 1
     3    1   33 1
     4    1   34 1
     5    2    7 ar
     6    2    3 ar
     7    3    4 ar
     8    3   35 1
     9    4    5 ar
    10    4   13 1
    11    5    6 ar
    12    5   36 1
    13    6    7 ar
    14    6   37 1
    15    7    8 1
    16    8    9 1
    17    9   10 1
    18    9   38 1
    19    9   39 1
    20   10   11 2
    21   10   12 1
    22   13   14 1
    23   14   15 1
    24   14   40 1
    25   14   41 1
    26   15   19 1
    27   15   16 2
    28   16   17 1
    29   16   31 1
    30   17   18 2
    31   18   19 1
    32   18   20 1
    33   20   25 ar
    34   20   21 ar
    35   21   22 ar
    36   21   42 1
    37   22   23 ar
    38   22   43 1
    39   23   24 ar
    40   23   27 1
    41   24   25 ar
    42   24   26 1
    43   25   44 1
    44   27   28 1
    45   27   29 1
    46   27   30 1
    47   31   45 1
    48   31   46 1
    49   31   47 1
@<TRIPOS>MOLECULE
ZINC01549989
   47    49     0     0     0
SMALL
USER_CHARGES

@<TRIPOS>ATOM
      1 C1         -2.5043    0.0232    0.0377 C.3       1 <0>        -0.1059
      2 C2         -1.1897   -0.7133    0.0154 C.ar      1 <0>        -0.1042
      3 C3         -1.1722   -2.0943    0.0029 C.ar      1 <0>        -0.0582
      4 C4          0.0397   -2.7728   -0.0118 C.ar      1 <0>        -0.1370
      5 C5          1.2330   -2.0613   -0.0199 C.ar      1 <0>        -0.0938
      6 C6          1.2131   -0.6808   -0.0132 C.ar      1 <0>        -0.1941
      7 C7          0.0021   -0.0041    0.0020 C.ar      1 <0>         0.1425
      8 O1         -0.0164    1.3558    0.0095 O.3       1 <0>        -0.2805
      9 C8          1.2479    2.0218    0.0010 C.3       1 <0>         0.0163
     10 C9          1.0302    3.5130    0.0111 C.2       1 <0>         0.4694
     11 O2         -0.0924    3.9596    0.0242 O.co2     1 <0>        -0.6124
     12 S1          0.0636   -4.5346   -0.0209 S.3       1 <0>        -0.1072
     13 C10         1.8294   -4.9495   -0.0402 C.3       1 <0>        -0.0196
     14 C11         1.9934   -6.4475   -0.0494 C.2       1 <0>        -0.1541
     15 C12         2.0777   -7.3053   -1.1008 C.2       1 <0>         0.0788
     16 N1          2.2206   -8.5918   -0.8854 N.2       1 <0>        -0.4809
     17 C13         2.2855   -9.0806    0.3451 C.2       1 <0>         0.1336
     18 S2          2.1390   -7.5888    1.3199 S.3       1 <0>         0.0503
     19 C14         2.4434  -10.4815    0.7913 C.ar      1 <0>         0.0239
     20 C15         2.4951  -10.7815    2.1531 C.ar      1 <0>        -0.0953
     21 C16         2.6378  -12.0912    2.5629 C.ar      1 <0>        -0.0656
     22 C17         2.7402  -13.1048    1.6268 C.ar      1 <0>        -0.1707
     23 C18         2.6950  -12.8134    0.2751 C.ar      1 <0>        -0.0684
     24 C19         2.5473  -11.5085   -0.1478 C.ar      1 <0>        -0.0736
     25 C20         2.9023  -14.5324    2.0815 C.3       1 <0>         0.5086
     26 F1          4.2634  -14.8294    2.2096 F         1 <0>        -0.1744
     27 F2          2.2695  -14.7028    3.3176 F         1 <0>        -0.1752
     28 F3          2.3244  -15.3903    1.1396 F         1 <0>        -0.1751
     29 C21         2.0067   -6.7795   -2.5114 C.3       1 <0>        -0.0902
     30 H1         -2.8358    0.2058   -0.9845 H         1 <0>         0.0692
     31 H2         -3.2489   -0.5783    0.5591 H         1 <0>         0.0617
     32 H3         -2.3790    0.9746    0.5545 H         1 <0>         0.0796
     33 H4         -2.1004   -2.6463    0.0091 H         1 <0>         0.1302
     34 H5          2.1759   -2.5879   -0.0317 H         1 <0>         0.1195
     35 H6          2.1406   -0.1275   -0.0194 H         1 <0>         0.1341
     36 H7          1.8173    1.7318    0.8840 H         1 <0>         0.0668
     37 H8          1.8003    1.7414   -0.8958 H         1 <0>         0.0670
     38 H9          2.2919   -4.5279   -0.9326 H         1 <0>         0.1149
     39 H10         2.3093   -4.5368    0.8472 H         1 <0>         0.1057
     40 H11         2.4194   -9.9907    2.8848 H         1 <0>         0.1405
     41 H12         2.6742  -12.3252    3.6166 H         1 <0>         0.1456
     42 H13         2.7751  -13.6092   -0.4506 H         1 <0>         0.1451
     43 H14         2.5125  -11.2823   -1.2033 H         1 <0>         0.1494
     44 H15         3.0110   -6.5406   -2.8611 H         1 <0>         0.0775
     45 H16         1.5669   -7.5372   -3.1598 H         1 <0>         0.0790
     46 H17         1.3908   -5.8805   -2.5334 H         1 <0>         0.0816
     47 O3          2.0835    4.3451    0.0055 O.co2     1 <0>        -0.7545
@<TRIPOS>BOND
     1    1    2 1
     2    1   30 1
     3    1   31 1
     4    1   32 1
     5    2    7 ar
     6    2    3 ar
     7    3    4 ar
     8    3   33 1
     9    4    5 ar
    10    4   12 1
    11    5    6 ar
    12    5   34 1
    13    6    7 ar
    14    6   35 1
    15    7    8 1
    16    8    9 1
    17    9   10 1
    18    9   36 1
    19    9   37 1
    20   10   11 2
    21   10   47 1
    22   12   13 1
    23   13   14 1
    24   13   38 1
    25   13   39 1
    26   14   18 1
    27   14   15 2
    28   15   16 1
    29   15   29 1
    30   16   17 2
    31   17   18 1
    32   17   19 1
    33   19   24 ar
    34   19   20 ar
    35   20   21 ar
    36   20   40 1
    37   21   22 ar
    38   21   41 1
    39   22   23 ar
    40   22   25 1
    41   23   24 ar
    42   23   42 1
    43   24   43 1
    44   25   26 1
    45   25   27 1
    46   25   28 1
    47   29   44 1
    48   29   45 1
    49   29   46 1
@<TRIPOS>MOLECULE
ZINC00595076
   56    58     0     0     0
SMALL
USER_CHARGES
2-methyl-2-[4-[3-[5-oxo-1-(p-tolylmethyl)-4H-1,2,4-triazol-3-yl]propyl]phenoxy]-propanoic acid
@<TRIPOS>ATOM
      1 C1         -8.4684    0.2808   -3.4230 C.3       1 <0>        -0.1160
      2 C2         -7.3016    1.2256   -3.2928 C.ar      1 <0>        -0.0780
      3 C3         -7.0032    1.7905   -2.0670 C.ar      1 <0>        -0.1257
      4 C4         -5.9326    2.6568   -1.9475 C.ar      1 <0>        -0.0837
      5 C5         -5.1603    2.9579   -3.0537 C.ar      1 <0>        -0.1257
      6 C6         -5.4619    2.3971   -4.2806 C.ar      1 <0>        -0.0903
      7 C7         -6.5301    1.5277   -4.3993 C.ar      1 <0>        -0.1285
      8 C8         -3.9932    3.9023   -2.9233 C.3       1 <0>         0.2009
      9 N1         -2.7851    3.1428   -2.5917 N.am      1 <0>        -0.4458
     10 C9         -1.9103    2.6083   -3.4692 C.2       1 <0>         0.6477
     11 O1         -1.9794    2.6685   -4.6839 O.2       1 <0>        -0.5606
     12 N2         -0.9454    1.9960   -2.7540 N.am      1 <0>        -0.6602
     13 H1         -0.1813    1.5231   -3.1193 H         1 <0>         0.4359
     14 C10        -1.2295    2.1555   -1.4196 C.2       1 <0>         0.2765
     15 N3         -2.3263    2.8323   -1.3041 N.2       1 <0>        -0.2618
     16 C11        -0.4027    1.6237   -0.2774 C.3       1 <0>        -0.0437
     17 C12        -1.0560    2.0139    1.0500 C.3       1 <0>        -0.1074
     18 C13        -0.2167    1.4741    2.2097 C.3       1 <0>        -0.0655
     19 C14        -0.8602    1.8584    3.5171 C.ar      1 <0>        -0.1390
     20 C15        -0.5161    3.0478    4.1323 C.ar      1 <0>        -0.0875
     21 C16        -1.1087    3.4051    5.3280 C.ar      1 <0>        -0.1639
     22 C17        -2.0415    2.5638    5.9171 C.ar      1 <0>         0.1623
     23 C18        -2.3808    1.3683    5.3006 C.ar      1 <0>        -0.1683
     24 C19        -1.7895    1.0182    4.1021 C.ar      1 <0>        -0.0889
     25 O2         -2.6221    2.9106    7.0958 O.3       1 <0>        -0.3049
     26 C20        -2.1357    4.0921    7.7358 C.3       1 <0>         0.0579
     27 C21        -2.8766    4.2975    9.0585 C.3       1 <0>        -0.1160
     28 C22        -0.6374    3.9446    8.0081 C.3       1 <0>        -0.1759
     29 C23        -2.3688    5.2810    6.8396 C.2       1 <0>         0.4486
     30 O3         -2.8972    5.1319    5.7633 O.co2     1 <0>        -0.6128
     31 H2         -9.3676    0.8456   -3.6692 H         1 <0>         0.0712
     32 H3         -8.2649   -0.4411   -4.2139 H         1 <0>         0.0653
     33 H4         -8.6168   -0.2455   -2.4801 H         1 <0>         0.0671
     34 H5         -7.6062    1.5547   -1.2026 H         1 <0>         0.1244
     35 H6         -5.6994    3.0982   -0.9897 H         1 <0>         0.1287
     36 H7         -4.8612    2.6357   -5.1458 H         1 <0>         0.1252
     37 H8         -6.7635    1.0867   -5.3571 H         1 <0>         0.1212
     38 H9         -4.1967    4.6246   -2.1328 H         1 <0>         0.1059
     39 H10        -3.8443    4.4282   -3.8664 H         1 <0>         0.1025
     40 H11        -0.3424    0.5376   -0.3472 H         1 <0>         0.0967
     41 H12         0.6004    2.0472   -0.3269 H         1 <0>         0.0978
     42 H13        -1.1163    3.1000    1.1199 H         1 <0>         0.0771
     43 H14        -2.0592    1.5904    1.0995 H         1 <0>         0.0750
     44 H15        -0.1564    0.3880    2.1398 H         1 <0>         0.0664
     45 H16         0.7865    1.8976    2.1601 H         1 <0>         0.0672
     46 H17         0.2134    3.7003    3.6755 H         1 <0>         0.1139
     47 H18        -0.8429    4.3363    5.8060 H         1 <0>         0.1392
     48 H19        -3.1064    0.7115    5.7573 H         1 <0>         0.1194
     49 H20        -2.0536    0.0878    3.6216 H         1 <0>         0.1168
     50 H21        -2.6393    3.4795    9.7387 H         1 <0>         0.0528
     51 H22        -2.5677    5.2426    9.5051 H         1 <0>         0.0822
     52 H23        -3.9508    4.3167    8.8742 H         1 <0>         0.0574
     53 H24        -0.1260    3.6683    7.0860 H         1 <0>         0.0703
     54 H25        -0.2398    4.8911    8.3744 H         1 <0>         0.0785
     55 H26        -0.4789    3.1695    8.7578 H         1 <0>         0.0529
     56 O4         -1.9893    6.5057    7.2371 O.co2     1 <0>        -0.7551
@<TRIPOS>BOND
     1    1    2 1
     2    1   31 1
     3    1   32 1
     4    1   33 1
     5    2    7 ar
     6    2    3 ar
     7    3    4 ar
     8    3   34 1
     9    4    5 ar
    10    4   35 1
    11    5    6 ar
    12    5    8 1
    13    6    7 ar
    14    6   36 1
    15    7   37 1
    16    8    9 1
    17    8   38 1
    18    8   39 1
    19    9   15 1
    20    9   10 am
    21   10   11 2
    22   10   12 am
    23   12   13 1
    24   12   14 1
    25   14   15 2
    26   14   16 1
    27   16   17 1
    28   16   40 1
    29   16   41 1
    30   17   18 1
    31   17   42 1
    32   17   43 1
    33   18   19 1
    34   18   44 1
    35   18   45 1
    36   19   24 ar
    37   19   20 ar
    38   20   21 ar
    39   20   46 1
    40   21   22 ar
    41   21   47 1
    42   22   23 ar
    43   22   25 1
    44   23   24 ar
    45   23   48 1
    46   24   49 1
    47   25   26 1
    48   26   27 1
    49   26   28 1
    50   26   29 1
    51   27   50 1
    52   27   51 1
    53   27   52 1
    54   28   53 1
    55   28   54 1
    56   28   55 1
    57   29   30 2
    58   29   56 1
@<TRIPOS>MOLECULE
ZINC03819473
   47    48     0     0     0
SMALL
USER_CHARGES
2-ethoxy-3-[4-(5-phenylpent-2-en-4-ynoxy)phenyl]-propanoic acid
@<TRIPOS>ATOM
      1 C1          8.9534  -11.8219    0.1386 C.3       1 <0>        -0.1439
      2 C2         10.0927  -10.9407   -0.3774 C.3       1 <0>         0.0638
      3 O1         10.7011  -10.2575    0.7204 O.3       1 <0>        -0.3680
      4 C3         11.7831   -9.4027    0.3454 C.3       1 <0>         0.0586
      5 H1         11.6145   -9.0241   -0.6627 H         1 <0>         0.0559
      6 C4         11.8686   -8.2292    1.3233 C.3       1 <0>        -0.0612
      7 C5         10.6291   -7.3810    1.1996 C.ar      1 <0>        -0.0963
      8 C6          9.5243   -7.6547    1.9845 C.ar      1 <0>        -0.0620
      9 C7          8.3869   -6.8786    1.8730 C.ar      1 <0>        -0.1504
     10 C8          8.3538   -5.8239    0.9724 C.ar      1 <0>         0.1111
     11 C9          9.4617   -5.5548    0.1819 C.ar      1 <0>        -0.2084
     12 C10        10.5985   -6.3306    0.3010 C.ar      1 <0>        -0.0808
     13 O2          7.2361   -5.0589    0.8609 O.3       1 <0>        -0.3145
     14 C11         7.2734   -3.9900   -0.0868 C.3       1 <0>         0.0882
     15 C12         5.9561   -3.2582   -0.0708 C.2       1 <0>        -0.1090
     16 C13         5.9341   -1.9262   -0.0638 C.2       1 <0>        -0.0491
     17 C14         4.6824   -1.2309   -0.0486 C.1       1 <0>        -0.1163
     18 C15         3.6562   -0.6608   -0.0361 C.1       1 <0>        -0.1291
     19 C16         2.4045    0.0346   -0.0208 C.ar      1 <0>         0.0155
     20 C17         1.2036   -0.6808   -0.0131 C.ar      1 <0>        -0.0954
     21 C18         0.0021   -0.0041    0.0020 C.ar      1 <0>        -0.1189
     22 C19        -0.0167    1.3797    0.0096 C.ar      1 <0>        -0.1117
     23 C20         1.1681    2.0948    0.0022 C.ar      1 <0>        -0.1195
     24 C21         2.3774    1.4322   -0.0130 C.ar      1 <0>        -0.0959
     25 C22        13.0733  -10.1808    0.3805 C.2       1 <0>         0.4447
     26 O3         13.0806  -11.3208    0.7806 O.co2     1 <0>        -0.6223
     27 H2          8.2097  -11.1997    0.6366 H         1 <0>         0.0558
     28 H3          8.4893  -12.3430   -0.6987 H         1 <0>         0.0609
     29 H4          9.3495  -12.5508    0.8457 H         1 <0>         0.0625
     30 H5          9.6966  -10.2117   -1.0844 H         1 <0>         0.0329
     31 H6         10.8364  -11.5628   -0.8753 H         1 <0>         0.0458
     32 H7         12.7463   -7.6260    1.0913 H         1 <0>         0.0912
     33 H8         11.9482   -8.6098    2.3416 H         1 <0>         0.0750
     34 H9          9.5504   -8.4762    2.6852 H         1 <0>         0.1315
     35 H10         7.5242   -7.0926    2.4866 H         1 <0>         0.1259
     36 H11         9.4368   -4.7370   -0.5231 H         1 <0>         0.1229
     37 H12        11.4628   -6.1188   -0.3110 H         1 <0>         0.1257
     38 H13         7.4525   -4.3940   -1.0832 H         1 <0>         0.0790
     39 H14         8.0756   -3.3001    0.1751 H         1 <0>         0.0723
     40 H15         5.0299   -3.8136   -0.0649 H         1 <0>         0.1257
     41 H16         6.8604   -1.3709   -0.0697 H         1 <0>         0.1400
     42 H17         1.2167   -1.7607   -0.0194 H         1 <0>         0.1275
     43 H18        -0.9266   -0.5554    0.0076 H         1 <0>         0.1284
     44 H19        -0.9608    1.9041    0.0169 H         1 <0>         0.1257
     45 H20         1.1455    3.1746    0.0078 H         1 <0>         0.1281
     46 H21         3.3012    1.9916   -0.0193 H         1 <0>         0.1272
     47 O4         14.2143   -9.6072   -0.0328 O.co2     1 <0>        -0.7689
@<TRIPOS>BOND
     1    1    2 1
     2    1   27 1
     3    1   28 1
     4    1   29 1
     5    2    3 1
     6    2   30 1
     7    2   31 1
     8    3    4 1
     9    4    5 1
    10    4    6 1
    11    4   25 1
    12    6    7 1
    13    6   32 1
    14    6   33 1
    15    7   12 ar
    16    7    8 ar
    17    8    9 ar
    18    8   34 1
    19    9   10 ar
    20    9   35 1
    21   10   11 ar
    22   10   13 1
    23   11   12 ar
    24   11   36 1
    25   12   37 1
    26   13   14 1
    27   14   15 1
    28   14   38 1
    29   14   39 1
    30   15   16 2
    31   15   40 1
    32   16   17 1
    33   16   41 1
    34   17   18 3
    35   18   19 1
    36   19   24 ar
    37   19   20 ar
    38   20   21 ar
    39   20   42 1
    40   21   22 ar
    41   21   43 1
    42   22   23 ar
    43   22   44 1
    44   23   24 ar
    45   23   45 1
    46   24   46 1
    47   25   26 2
    48   25   47 1
@<TRIPOS>MOLECULE
ZINC09933928
   65    68     0     0     0
SMALL
USER_CHARGES
methyl 4-[2-[1-(3-methoxyphenyl)-3-[(4-methoxyphenyl)methyl]-2,5-dioxo-imidazolidin-4-yl]acetyl]aminobenzoate
@<TRIPOS>ATOM
      1 C1         10.1165    2.1719   -1.0377 C.3       1 <0>         0.0259
      2 O1          9.9564    2.8244    0.2235 O.3       1 <0>        -0.3162
      3 C2          8.6942    3.1842    0.5761 C.ar      1 <0>         0.1392
      4 C3          8.4661    3.8215    1.7871 C.ar      1 <0>        -0.1543
      5 C4          7.1821    4.1859    2.1435 C.ar      1 <0>        -0.0492
      6 C5          6.1249    3.9164    1.2941 C.ar      1 <0>        -0.1639
      7 C6          6.3489    3.2764    0.0892 C.ar      1 <0>        -0.0595
      8 C7          7.6317    2.9146   -0.2741 C.ar      1 <0>        -0.2128
      9 C8          4.7253    4.3155    1.6851 C.3       1 <0>         0.1957
     10 N1          4.4504    5.6704    1.2005 N.am      1 <0>        -0.6128
     11 C9          3.7858    6.0356   -0.0624 C.3       1 <0>         0.1101
     12 H1          4.3560    5.6687   -0.9159 H         1 <0>         0.1424
     13 C10         3.7765    7.5511   -0.0348 C.2       1 <0>         0.5244
     14 O2          3.3256    8.2961   -0.8784 O.2       1 <0>        -0.4263
     15 N2          4.3746    7.8982    1.1219 N.am      1 <0>        -0.5199
     16 C11         4.7565    6.8238    1.8217 C.2       1 <0>         0.7032
     17 O3          5.3173    6.8831    2.8983 O.2       1 <0>        -0.5162
     18 C12         4.5728    9.2217    1.5399 C.ar      1 <0>         0.1714
     19 C13         4.0376   10.2708    0.8038 C.ar      1 <0>        -0.1755
     20 C14         4.2288   11.5745    1.2182 C.ar      1 <0>        -0.0595
     21 C15         4.9615   11.8391    2.3598 C.ar      1 <0>        -0.2150
     22 C16         5.5029   10.7950    3.0961 C.ar      1 <0>         0.1462
     23 C17         5.3085    9.4850    2.6860 C.ar      1 <0>        -0.1696
     24 O4          6.2228   11.0563    4.2187 O.3       1 <0>        -0.3122
     25 C18         6.3829   12.4291    4.5818 C.3       1 <0>         0.0263
     26 C19         2.3572    5.4890   -0.0965 C.3       1 <0>        -0.1414
     27 C20         1.7525    5.7479   -1.4523 C.2       1 <0>         0.5153
     28 O5          2.4351    6.2081   -2.3429 O.2       1 <0>        -0.4890
     29 N3          0.4531    5.4679   -1.6753 N.am      1 <0>        -0.6720
     30 C21        -0.0825    5.6165   -2.9538 C.ar      1 <0>         0.1813
     31 C22        -1.0559    4.7308   -3.4058 C.ar      1 <0>        -0.1564
     32 C23        -1.5869    4.8745   -4.6675 C.ar      1 <0>        -0.0336
     33 C24        -1.1473    5.9119   -5.4952 C.ar      1 <0>        -0.1444
     34 C25        -0.1692    6.8000   -5.0377 C.ar      1 <0>        -0.0401
     35 C26         0.3574    6.6503   -3.7748 C.ar      1 <0>        -0.1339
     36 C27        -1.7135    6.0688   -6.8477 C.2       1 <0>         0.5097
     37 O6         -2.5632    5.2959   -7.2440 O.2       1 <0>        -0.5071
     38 O7         -1.2886    7.0693   -7.6441 O.3       1 <0>        -0.3551
     39 C28        -1.8899    7.1631   -8.9624 C.3       1 <0>         0.0365
     40 H2          9.5359    1.2495   -1.0459 H         1 <0>         0.0571
     41 H3          9.7662    2.8290   -1.8337 H         1 <0>         0.0566
     42 H4         11.1698    1.9397   -1.1955 H         1 <0>         0.1022
     43 H5          9.2917    4.0329    2.4506 H         1 <0>         0.1331
     44 H6          7.0040    4.6820    3.0861 H         1 <0>         0.1363
     45 H7          5.5208    3.0627   -0.5704 H         1 <0>         0.1248
     46 H8          7.8067    2.4189   -1.2175 H         1 <0>         0.1299
     47 H9          4.6306    4.2917    2.7707 H         1 <0>         0.1031
     48 H10         4.0122    3.6198    1.2429 H         1 <0>         0.0994
     49 H11         3.4684   10.0669   -0.0911 H         1 <0>         0.1524
     50 H12         3.8086   12.3889    0.6466 H         1 <0>         0.1345
     51 H13         5.1131   12.8597    2.6790 H         1 <0>         0.1323
     52 H14         5.7294    8.6711    3.2576 H         1 <0>         0.1700
     53 H15         5.4036   12.8768    4.7511 H         1 <0>         0.0570
     54 H16         6.9760   12.4969    5.4938 H         1 <0>         0.1024
     55 H17         6.8913   12.9608    3.7775 H         1 <0>         0.0570
     56 H18         1.7599    5.9853    0.6685 H         1 <0>         0.1103
     57 H19         2.3740    4.4161    0.0951 H         1 <0>         0.1260
     58 H20        -0.1093    5.1630   -0.9462 H         1 <0>         0.4156
     59 H21        -1.3982    3.9323   -2.7643 H         1 <0>         0.1375
     60 H22        -2.3421    4.1864   -5.0179 H         1 <0>         0.1428
     61 H23         0.1730    7.6024   -5.6745 H         1 <0>         0.1429
     62 H24         1.1127    7.3362   -3.4206 H         1 <0>         0.1518
     63 H25        -1.6954    6.2449   -9.5166 H         1 <0>         0.0646
     64 H26        -2.9658    7.3057   -8.8617 H         1 <0>         0.0646
     65 H27        -1.4598    8.0091   -9.4985 H         1 <0>         0.1042
@<TRIPOS>BOND
     1    1    2 1
     2    1   40 1
     3    1   41 1
     4    1   42 1
     5    2    3 1
     6    3    8 ar
     7    3    4 ar
     8    4    5 ar
     9    4   43 1
    10    5    6 ar
    11    5   44 1
    12    6    7 ar
    13    6    9 1
    14    7    8 ar
    15    7   45 1
    16    8   46 1
    17    9   10 1
    18    9   47 1
    19    9   48 1
    20   10   16 am
    21   10   11 1
    22   11   12 1
    23   11   13 1
    24   11   26 1
    25   13   14 2
    26   13   15 am
    27   15   16 am
    28   15   18 1
    29   16   17 2
    30   18   23 ar
    31   18   19 ar
    32   19   20 ar
    33   19   49 1
    34   20   21 ar
    35   20   50 1
    36   21   22 ar
    37   21   51 1
    38   22   23 ar
    39   22   24 1
    40   23   52 1
    41   24   25 1
    42   25   53 1
    43   25   54 1
    44   25   55 1
    45   26   27 1
    46   26   56 1
    47   26   57 1
    48   27   28 2
    49   27   29 am
    50   29   30 1
    51   29   58 1
    52   30   35 ar
    53   30   31 ar
    54   31   32 ar
    55   31   59 1
    56   32   33 ar
    57   32   60 1
    58   33   34 ar
    59   33   36 1
    60   34   35 ar
    61   34   61 1
    62   35   62 1
    63   36   37 2
    64   36   38 1
    65   38   39 1
    66   39   63 1
    67   39   64 1
    68   39   65 1
@<TRIPOS>MOLECULE
ZINC13261360
   50    53     0     0     0
SMALL
USER_CHARGES

@<TRIPOS>ATOM
      1 C1         -0.0440    1.2703    0.0253 C.ar      1 <0>        -0.1199
      2 C2          1.1385    1.9865    0.0059 C.ar      1 <0>        -0.1204
      3 C3          2.3439    1.3159   -0.0144 C.ar      1 <0>        -0.1124
      4 C4          2.3784   -0.0721   -0.0117 C.ar      1 <0>        -0.0868
      5 C5          1.2020   -0.7866    0.0175 C.ar      1 <0>        -0.0691
      6 C6         -0.0110   -0.1084    0.0301 C.ar      1 <0>        -0.1209
      7 C7          1.1609   -2.2916    0.0528 C.3       1 <0>        -0.0966
      8 C8          2.4791   -2.8837   -0.4433 C.3       1 <0>         0.1201
      9 N1          3.5776   -2.1739    0.2326 N.pl3     1 <0>        -0.9993
     10 C9          3.7288   -0.7424   -0.0493 C.3       1 <0>         0.1548
     11 S1          4.6016   -2.9602    1.2697 S.o2      1 <0>         2.6976
     12 O1          5.1365   -1.9718    2.1394 O.2       1 <0>        -0.9489
     13 O2          3.8984   -4.0976    1.7502 O.2       1 <0>        -0.9523
     14 C10         5.9483   -3.5689    0.3104 C.ar      1 <0>        -0.6924
     15 C11         5.8774   -4.8288   -0.2577 C.ar      1 <0>        -0.0020
     16 C12         6.9303   -5.3144   -1.0123 C.ar      1 <0>        -0.1430
     17 C13         8.0589   -4.5440   -1.2038 C.ar      1 <0>        -0.0194
     18 C14         8.1367   -3.2722   -0.6340 C.ar      1 <0>        -0.1434
     19 C15         7.0685   -2.7864    0.1225 C.ar      1 <0>         0.0367
     20 C16         9.3425   -2.4414   -0.8348 C.2       1 <0>         0.5515
     21 O3          9.4075   -1.3342   -0.3374 O.2       1 <0>        -0.5335
     22 N2         10.3700   -2.9115   -1.5695 N.am      1 <0>        -0.6319
     23 C17        11.4645   -2.0960   -1.8361 C.ar      1 <0>         0.1685
     24 C18        11.9060   -1.1864   -0.8839 C.ar      1 <0>        -0.1398
     25 C19        12.9925   -0.3786   -1.1504 C.ar      1 <0>        -0.1103
     26 C20        13.6516   -0.4666   -2.3668 C.ar      1 <0>        -0.1530
     27 C21        13.2292   -1.3617   -3.3243 C.ar      1 <0>        -0.0696
     28 C22        12.1330   -2.1919   -3.0676 C.ar      1 <0>        -0.1625
     29 C23        11.6796   -3.1549   -4.0834 C.2       1 <0>         0.5266
     30 O4         12.3219   -3.3051   -5.1138 O.co2     1 <0>        -0.6781
     31 O5         10.6603   -3.8056   -3.8976 O.co2     1 <0>        -0.6915
     32 H1         -0.9911    1.7892    0.0413 H         1 <0>         0.1212
     33 H2          1.1186    3.0663    0.0062 H         1 <0>         0.1234
     34 H3          3.2678    1.8748   -0.0330 H         1 <0>         0.1266
     35 H4         -0.9358   -0.6660    0.0441 H         1 <0>         0.1214
     36 H5          0.9825   -2.6214    1.0762 H         1 <0>         0.0840
     37 H6          0.3483   -2.6431   -0.5831 H         1 <0>         0.0886
     38 H7          2.5212   -3.9454   -0.1999 H         1 <0>         0.0983
     39 H8          2.5613   -2.7486   -1.5218 H         1 <0>         0.0802
     40 H9          4.1712   -0.6119   -1.0369 H         1 <0>         0.0866
     41 H10         4.3785   -0.2916    0.7009 H         1 <0>         0.1079
     42 H11         4.9963   -5.4359   -0.1109 H         1 <0>         0.1426
     43 H12         6.8689   -6.2988   -1.4523 H         1 <0>         0.1420
     44 H13         8.8803   -4.9244   -1.7928 H         1 <0>         0.1479
     45 H14         7.1209   -1.8016    0.5629 H         1 <0>         0.1522
     46 H15        10.3462   -3.8186   -1.9122 H         1 <0>         0.4234
     47 H16        11.3980   -1.1111    0.0663 H         1 <0>         0.1334
     48 H17        13.3313    0.3272   -0.4065 H         1 <0>         0.1166
     49 H18        14.5009    0.1706   -2.5647 H         1 <0>         0.1154
     50 H19        13.7462   -1.4258   -4.2703 H         1 <0>         0.1291
@<TRIPOS>BOND
     1    1    6 ar
     2    1    2 ar
     3    1   32 1
     4    2    3 ar
     5    2   33 1
     6    3    4 ar
     7    3   34 1
     8    4   10 1
     9    4    5 ar
    10    5    6 ar
    11    5    7 1
    12    6   35 1
    13    7    8 1
    14    7   36 1
    15    7   37 1
    16    8    9 1
    17    8   38 1
    18    8   39 1
    19    9   10 1
    20    9   11 1
    21   10   40 1
    22   10   41 1
    23   11   12 2
    24   11   13 2
    25   11   14 1
    26   14   19 ar
    27   14   15 ar
    28   15   16 ar
    29   15   42 1
    30   16   17 ar
    31   16   43 1
    32   17   18 ar
    33   17   44 1
    34   18   19 ar
    35   18   20 1
    36   19   45 1
    37   20   21 2
    38   20   22 am
    39   22   23 1
    40   22   46 1
    41   23   28 ar
    42   23   24 ar
    43   24   25 ar
    44   24   47 1
    45   25   26 ar
    46   25   48 1
    47   26   27 ar
    48   26   49 1
    49   27   28 ar
    50   27   50 1
    51   28   29 1
    52   29   30 2
    53   29   31 1
@<TRIPOS>MOLECULE
ZINC43277624
   46    48     0     0     0
SMALL
USER_CHARGES

@<TRIPOS>ATOM
      1 C1         -0.1027    0.7780   -0.2659 C.3       1 <0>         0.0261
      2 O1         -0.0563   -0.6495   -0.2203 O.3       1 <0>        -0.3082
      3 C2          0.8090   -1.2665   -1.0691 C.ar      1 <0>         0.1488
      4 C3          1.5990   -0.5139   -1.9216 C.ar      1 <0>        -0.2395
      5 C4          2.4818   -1.1460   -2.7875 C.ar      1 <0>         0.2123
      6 C5          2.5723   -2.5317   -2.7982 C.ar      1 <0>        -0.1729
      7 C6          1.7841   -3.2840   -1.9482 C.ar      1 <0>        -0.0983
      8 C7          0.9058   -2.6560   -1.0777 C.ar      1 <0>         0.0885
      9 N1          0.1107   -3.4201   -0.2109 N.pl3     1 <0>        -1.0327
     10 S1          0.7108   -4.8151    0.4496 S.o2      1 <0>         2.7041
     11 O2         -0.2582   -5.2719    1.3833 O.2       1 <0>        -0.9239
     12 O3          1.1616   -5.6163   -0.6339 O.2       1 <0>        -0.9496
     13 C8          2.1407   -4.3773    1.3814 C.2       1 <0>        -0.6239
     14 C9          3.3969   -4.8177    1.0421 C.2       1 <0>        -0.1076
     15 C10         4.4552   -4.4423    1.8030 C.2       1 <0>        -0.2400
     16 S2          3.7793   -3.4800    3.0027 S.3       1 <0>         0.3309
     17 C11         2.0705   -3.5610    2.5012 C.2       1 <0>        -0.1533
     18 C12         0.8985   -2.9320    3.1127 C.2       1 <0>         0.5353
     19 O4         -0.2115   -3.1510    2.6663 O.2       1 <0>        -0.4557
     20 O5          1.0497   -2.1095    4.1712 O.3       1 <0>        -0.3438
     21 C13        -0.1428   -1.6204    4.7882 C.3       1 <0>         0.0335
     22 N2          3.2805   -0.3859   -3.6501 N.pl3     1 <0>        -0.6845
     23 C14         3.7316   -0.9373   -4.8517 C.ar      1 <0>         0.1763
     24 C15         2.9633   -1.8867   -5.5139 C.ar      1 <0>        -0.1617
     25 C16         3.4123   -2.4297   -6.7016 C.ar      1 <0>        -0.0868
     26 C17         4.6252   -2.0296   -7.2318 C.ar      1 <0>        -0.1507
     27 C18         5.3926   -1.0848   -6.5753 C.ar      1 <0>        -0.0876
     28 C19         4.9470   -0.5334   -5.3902 C.ar      1 <0>        -0.1647
     29 H1          0.8810    1.1814   -0.0256 H         1 <0>         0.0559
     30 H2         -0.3932    1.1004   -1.2658 H         1 <0>         0.0578
     31 H3         -0.8313    1.1412    0.4590 H         1 <0>         0.1019
     32 H4          1.5284    0.5637   -1.9135 H         1 <0>         0.1353
     33 H5          3.2592   -3.0221   -3.4721 H         1 <0>         0.1371
     34 H6          1.8554   -4.3616   -1.9586 H         1 <0>         0.1684
     35 H7         -0.7906   -3.1314    0.0017 H         1 <0>         0.4330
     36 H8          3.5399   -5.4544    0.1815 H         1 <0>         0.1599
     37 H9          5.4946   -4.7028    1.6685 H         1 <0>         0.2023
     38 H10         0.1188   -0.9086    5.5711 H         1 <0>         0.1084
     39 H11        -0.7625   -1.1260    4.0400 H         1 <0>         0.0688
     40 H12        -0.6944   -2.4534    5.2240 H         1 <0>         0.0674
     41 H13         3.5207    0.5236   -3.4135 H         1 <0>         0.4097
     42 H14         2.0161   -2.1999   -5.1002 H         1 <0>         0.1284
     43 H15         2.8157   -3.1681   -7.2167 H         1 <0>         0.1256
     44 H16         4.9742   -2.4562   -8.1606 H         1 <0>         0.1224
     45 H17         6.3393   -0.7745   -6.9922 H         1 <0>         0.1246
     46 H18         5.5447    0.2077   -4.8803 H         1 <0>         0.1226
@<TRIPOS>BOND
     1    1    2 1
     2    1   29 1
     3    1   30 1
     4    1   31 1
     5    2    3 1
     6    3    8 ar
     7    3    4 ar
     8    4    5 ar
     9    4   32 1
    10    5    6 ar
    11    5   22 1
    12    6    7 ar
    13    6   33 1
    14    7    8 ar
    15    7   34 1
    16    8    9 1
    17    9   10 1
    18    9   35 1
    19   10   11 2
    20   10   12 2
    21   10   13 1
    22   13   17 2
    23   13   14 1
    24   14   15 2
    25   14   36 1
    26   15   16 1
    27   15   37 1
    28   16   17 1
    29   17   18 1
    30   18   19 2
    31   18   20 1
    32   20   21 1
    33   21   38 1
    34   21   39 1
    35   21   40 1
    36   22   23 1
    37   22   41 1
    38   23   28 ar
    39   23   24 ar
    40   24   25 ar
    41   24   42 1
    42   25   26 ar
    43   25   43 1
    44   26   27 ar
    45   26   44 1
    46   27   28 ar
    47   27   45 1
    48   28   46 1
@<TRIPOS>MOLECULE
ZINC01024901
   37    38     0     0     0
SMALL
USER_CHARGES
4-chloro-N-[2-[[5-(trifluoromethyl)-2-pyridyl]sulfonyl]ethyl]benzamide
@<TRIPOS>ATOM
      1 C1         -3.5818   10.0442    5.5831 C.ar      1 <0>        -0.0743
      2 C2         -3.5685   11.4198    5.4883 C.ar      1 <0>        -0.1175
      3 C3         -4.1896   12.1896    6.4580 C.ar      1 <0>        -0.0095
      4 C4         -4.8330   11.5833    7.5243 C.ar      1 <0>        -0.1161
      5 C5         -4.8588   10.2084    7.6262 C.ar      1 <0>        -0.0436
      6 C6         -4.2341    9.4272    6.6522 C.ar      1 <0>        -0.1340
      7 C7         -4.2581    7.9532    6.7557 C.2       1 <0>         0.5612
      8 O1         -4.8225    7.4186    7.6902 O.2       1 <0>        -0.5226
      9 N1         -3.6543    7.2016    5.8139 N.am      1 <0>        -0.7218
     10 C8         -3.6781    5.7404    5.9165 C.3       1 <0>         0.1306
     11 C9         -2.9265    5.1335    4.7299 C.3       1 <0>        -0.6298
     12 S1         -2.9560    3.3242    4.8569 S.o2      1 <0>         2.5134
     13 O2         -4.2794    2.8419    4.6694 O.2       1 <0>        -0.8945
     14 O3         -2.1809    2.8990    5.9694 O.2       1 <0>        -0.9108
     15 C10        -2.0664    2.7567    3.4459 C.ar      1 <0>        -0.4056
     16 C11        -0.7003    2.5644    3.5314 C.ar      1 <0>        -0.0871
     17 C12        -0.0097    2.1181    2.4153 C.ar      1 <0>        -0.0343
     18 C13        -0.7223    1.8808    1.2496 C.ar      1 <0>        -0.1874
     19 C14        -2.0864    2.1010    1.2376 C.ar      1 <0>         0.1374
     20 N2         -2.7115    2.5207    2.3204 N.ar      1 <0>        -0.3861
     21 C15        -0.0169    1.3948    0.0097 C.3       1 <0>         0.5137
     22 F1          0.0021   -0.0041    0.0020 F         1 <0>        -0.1664
     23 F2          1.2956    1.8790   -0.0002 F         1 <0>        -0.1696
     24 F3         -0.6935    1.8582   -1.1237 F         1 <0>        -0.1678
     25 Cl1        -4.1619   13.9211    6.3361 Cl        1 <0>        -0.0566
     26 H1         -3.0927    9.4451    4.8292 H         1 <0>         0.1352
     27 H2         -3.0686   11.8981    4.6590 H         1 <0>         0.1422
     28 H3         -5.3159   12.1887    8.2771 H         1 <0>         0.1442
     29 H4         -5.3614    9.7368    8.4577 H         1 <0>         0.1489
     30 H5         -3.2039    7.6282    5.0682 H         1 <0>         0.4047
     31 H6         -4.7110    5.3924    5.9087 H         1 <0>         0.0929
     32 H7         -3.1983    5.4335    6.8458 H         1 <0>         0.0921
     33 H8         -1.8936    5.4815    4.7377 H         1 <0>         0.1472
     34 H9         -3.4063    5.4404    3.8006 H         1 <0>         0.1509
     35 H10        -0.1775    2.7591    4.4562 H         1 <0>         0.1720
     36 H11         1.0579    1.9593    2.4527 H         1 <0>         0.1645
     37 H12        -2.6478    1.9231    0.3323 H         1 <0>         0.1843
@<TRIPOS>BOND
     1    1    6 ar
     2    1    2 ar
     3    1   26 1
     4    2    3 ar
     5    2   27 1
     6    3    4 ar
     7    3   25 1
     8    4    5 ar
     9    4   28 1
    10    5    6 ar
    11    5   29 1
    12    6    7 1
    13    7    8 2
    14    7    9 am
    15    9   10 1
    16    9   30 1
    17   10   11 1
    18   10   31 1
    19   10   32 1
    20   11   12 1
    21   11   33 1
    22   11   34 1
    23   12   13 2
    24   12   14 2
    25   12   15 1
    26   15   20 ar
    27   15   16 ar
    28   16   17 ar
    29   16   35 1
    30   17   18 ar
    31   17   36 1
    32   18   19 ar
    33   18   21 1
    34   19   20 ar
    35   19   37 1
    36   21   22 1
    37   21   23 1
    38   21   24 1
