@<TRIPOS>MOLECULE
ZINC03995991
   80    82     0     0     0
SMALL
USER_CHARGES

@<TRIPOS>ATOM
      1 C1         -1.4579   -0.0905   -0.4585 C.3       1 <0>        -0.1062
      2 C2          0.0278    0.2268   -0.2766 C.3       1 <0>        -0.1195
      3 C3          0.2789    1.6996   -0.6061 C.3       1 <0>        -0.1362
      4 C4          0.4281   -0.0439    1.1509 C.2       1 <0>         0.5009
      5 O1          1.2954   -0.8651    1.3955 O.co2     1 <0>        -0.6638
      6 O2         -0.1153    0.5584    2.0611 O.co2     1 <0>        -0.6827
      7 S1          1.0097   -0.8175   -1.3883 S.3       1 <0>        -0.1197
      8 C5          2.6709   -0.3090   -1.0943 C.ar      1 <0>        -0.0457
      9 C6          2.9554    0.5797   -0.0644 C.ar      1 <0>        -0.0923
     10 C7          4.2584    0.9759    0.1631 C.ar      1 <0>        -0.1041
     11 C8          5.2798    0.4896   -0.6325 C.ar      1 <0>        -0.1080
     12 C9          5.0004   -0.3946   -1.6586 C.ar      1 <0>        -0.1099
     13 C10         3.7005   -0.8001   -1.8881 C.ar      1 <0>        -0.1130
     14 C11         6.7006    0.9245   -0.3811 C.3       1 <0>        -0.0873
     15 C12         7.3601   -0.0361    0.6106 C.3       1 <0>         0.1138
     16 N1          8.7413    0.3867    0.8550 N.am      1 <0>        -0.6265
     17 C13         9.0392    1.3236    1.9412 C.3       1 <0>         0.1331
     18 C14         9.3215    0.5420    3.2258 C.3       1 <0>        -0.1347
     19 C15         9.6327    1.5205    4.3601 C.3       1 <0>        -0.1163
     20 C16         9.9150    0.7389    5.6448 C.3       1 <0>        -0.1138
     21 C17        10.2262    1.7173    6.7791 C.3       1 <0>        -0.0869
     22 C18        11.5241    2.4646    6.4664 C.3       1 <0>        -0.1156
     23 C19        11.8353    3.4431    7.6007 C.3       1 <0>        -0.1205
     24 C20        11.9948    2.6702    8.9115 C.3       1 <0>        -0.1196
     25 C21        10.6969    1.9230    9.2242 C.3       1 <0>        -0.1201
     26 C22        10.3857    0.9445    8.0899 C.3       1 <0>        -0.1153
     27 C23         9.7379   -0.0863    0.0807 C.2       1 <0>         0.7084
     28 O3         10.8842    0.2646    0.2836 O.2       1 <0>        -0.5929
     29 N2          9.4638   -0.9482   -0.9185 N.am      1 <0>        -0.7440
     30 C24        10.5470   -1.4623   -1.7602 C.3       1 <0>         0.1646
     31 C25        10.8294   -0.4704   -2.8904 C.3       1 <0>        -0.1295
     32 C26        11.9607   -1.0073   -3.7694 C.3       1 <0>        -0.1162
     33 C27        11.5482   -2.3550   -4.3648 C.3       1 <0>        -0.1219
     34 C28        11.2659   -3.3469   -3.2347 C.3       1 <0>        -0.1145
     35 C29        10.1345   -2.8100   -2.3556 C.3       1 <0>        -0.1283
     36 H1         -1.7252    0.0124   -1.5102 H         1 <0>         0.0499
     37 H2         -1.6539   -1.1117   -0.1320 H         1 <0>         0.0554
     38 H3         -2.0528    0.6020    0.1370 H         1 <0>         0.0726
     39 H4         -0.2072    2.3271    0.1409 H         1 <0>         0.0689
     40 H5          1.3512    1.8951   -0.6027 H         1 <0>         0.0597
     41 H6         -0.1285    1.9260   -1.5915 H         1 <0>         0.0521
     42 H7          2.1583    0.9602    0.5570 H         1 <0>         0.1409
     43 H8          4.4802    1.6668    0.9630 H         1 <0>         0.1152
     44 H9          5.8004   -0.7721   -2.2782 H         1 <0>         0.1146
     45 H10         3.4837   -1.4946   -2.6862 H         1 <0>         0.1184
     46 H11         7.2550    0.9150   -1.3195 H         1 <0>         0.0686
     47 H12         6.7041    1.9328    0.0328 H         1 <0>         0.0729
     48 H13         6.8057   -0.0266    1.5490 H         1 <0>         0.0867
     49 H14         7.3566   -1.0445    0.1967 H         1 <0>         0.0741
     50 H15         9.9138    1.9185    1.6781 H         1 <0>         0.0819
     51 H16         8.1851    1.9826    2.0971 H         1 <0>         0.0757
     52 H17         8.4469   -0.0529    3.4888 H         1 <0>         0.0626
     53 H18        10.1757   -0.1170    3.0699 H         1 <0>         0.0647
     54 H19        10.5073    2.1154    4.0971 H         1 <0>         0.0648
     55 H20         8.7786    2.1794    4.5160 H         1 <0>         0.0624
     56 H21         9.0404    0.1440    5.9078 H         1 <0>         0.0620
     57 H22        10.7692    0.0799    5.4888 H         1 <0>         0.0601
     58 H23         9.4095    2.4327    6.8762 H         1 <0>         0.0694
     59 H24        12.3408    1.7493    6.3693 H         1 <0>         0.0598
     60 H25        11.4105    3.0152    5.5326 H         1 <0>         0.0645
     61 H26        12.7600    3.9754    7.3779 H         1 <0>         0.0587
     62 H27        11.0186    4.1584    7.6978 H         1 <0>         0.0604
     63 H28        12.8116    1.9549    8.8144 H         1 <0>         0.0595
     64 H29        12.2165    3.3673    9.7196 H         1 <0>         0.0578
     65 H30        10.8105    1.3724   10.1580 H         1 <0>         0.0588
     66 H31         9.8802    2.6383    9.3213 H         1 <0>         0.0608
     67 H32         9.4610    0.4121    8.3127 H         1 <0>         0.0611
     68 H33        11.2024    0.2292    7.9928 H         1 <0>         0.0599
     69 H34         8.5493   -1.2281   -1.0804 H         1 <0>         0.3968
     70 H35        11.4458   -1.5914   -1.1571 H         1 <0>         0.0858
     71 H36         9.9307   -0.3413   -3.4935 H         1 <0>         0.0624
     72 H37        11.1233    0.4897   -2.4662 H         1 <0>         0.0672
     73 H38        12.1619   -0.3007   -4.5745 H         1 <0>         0.0627
     74 H39        12.8595   -1.1364   -3.1663 H         1 <0>         0.0631
     75 H40        10.6495   -2.2259   -4.9679 H         1 <0>         0.0628
     76 H41        12.3542   -2.7375   -4.9911 H         1 <0>         0.0618
     77 H42        10.9720   -4.3070   -3.6589 H         1 <0>         0.0662
     78 H43        12.1646   -3.4760   -2.6315 H         1 <0>         0.0641
     79 H44         9.9334   -3.5166   -1.5505 H         1 <0>         0.0685
     80 H45         9.2358   -2.6809   -2.9588 H         1 <0>         0.0684
@<TRIPOS>BOND
     1    1    2 1
     2    1   36 1
     3    1   37 1
     4    1   38 1
     5    2    3 1
     6    2    4 1
     7    2    7 1
     8    3   39 1
     9    3   40 1
    10    3   41 1
    11    4    5 2
    12    4    6 1
    13    7    8 1
    14    8   13 ar
    15    8    9 ar
    16    9   10 ar
    17    9   42 1
    18   10   11 ar
    19   10   43 1
    20   11   12 ar
    21   11   14 1
    22   12   13 ar
    23   12   44 1
    24   13   45 1
    25   14   15 1
    26   14   46 1
    27   14   47 1
    28   15   16 1
    29   15   48 1
    30   15   49 1
    31   16   17 1
    32   16   27 am
    33   17   18 1
    34   17   50 1
    35   17   51 1
    36   18   19 1
    37   18   52 1
    38   18   53 1
    39   19   20 1
    40   19   54 1
    41   19   55 1
    42   20   21 1
    43   20   56 1
    44   20   57 1
    45   21   26 1
    46   21   22 1
    47   21   58 1
    48   22   23 1
    49   22   59 1
    50   22   60 1
    51   23   24 1
    52   23   61 1
    53   23   62 1
    54   24   25 1
    55   24   63 1
    56   24   64 1
    57   25   26 1
    58   25   65 1
    59   25   66 1
    60   26   67 1
    61   26   68 1
    62   27   28 2
    63   27   29 am
    64   29   30 1
    65   29   69 1
    66   30   35 1
    67   30   31 1
    68   30   70 1
    69   31   32 1
    70   31   71 1
    71   31   72 1
    72   32   33 1
    73   32   73 1
    74   32   74 1
    75   33   34 1
    76   33   75 1
    77   33   76 1
    78   34   35 1
    79   34   77 1
    80   34   78 1
    81   35   79 1
    82   35   80 1
@<TRIPOS>MOLECULE
ZINC00001963
   34    35     0     0     0
SMALL
USER_CHARGES

@<TRIPOS>ATOM
      1 C1          1.1628    1.2415   -0.1816 C.3       1 <0>        -0.1125
      2 C2          0.5396   -0.1274   -0.0881 C.ar      1 <0>        -0.0708
      3 C3         -0.0758   -0.6832   -1.1950 C.ar      1 <0>        -0.1399
      4 C4         -0.6489   -1.9389   -1.1136 C.ar      1 <0>        -0.0956
      5 C5         -0.6081   -2.6426    0.0743 C.ar      1 <0>        -0.1245
      6 C6          0.0094   -2.0875    1.1876 C.ar      1 <0>         0.1624
      7 C7          0.5885   -0.8277    1.1009 C.ar      1 <0>        -0.1269
      8 C8          1.2642   -0.2236    2.3049 C.3       1 <0>        -0.1134
      9 N1          0.0525   -2.7970    2.3913 N.pl3     1 <0>        -0.6432
     10 C9         -0.0333   -4.1809    2.3838 C.ar      1 <0>         0.4504
     11 C10        -0.1233   -4.8911    3.5821 C.ar      1 <0>        -0.2937
     12 C11        -0.2076   -6.2706    3.5268 C.ar      1 <0>         0.2686
     13 N2         -0.2005   -6.8736    2.3458 N.ar      1 <0>        -0.5558
     14 C12        -0.1140   -6.1729    1.2242 C.ar      1 <0>         0.3382
     15 N3         -0.0367   -4.8500    1.2351 N.ar      1 <0>        -0.5436
     16 S1         -0.1079   -7.0210   -0.3202 S.3       1 <0>         0.0845
     17 C13        -0.2344   -8.7712    0.1397 C.3       1 <0>        -0.1742
     18 C14        -0.2397   -9.6189   -1.1062 C.2       1 <0>         0.5136
     19 O1         -0.1649   -9.0913   -2.2028 O.co2     1 <0>        -0.6747
     20 O2         -0.3186  -10.8323   -1.0176 O.co2     1 <0>        -0.6767
     21 Cl1        -0.3208   -7.2023    4.9872 Cl        1 <0>        -0.0203
     22 H1          2.2036    1.1465   -0.4911 H         1 <0>         0.0688
     23 H2          0.6192    1.8390   -0.9134 H         1 <0>         0.0653
     24 H3          1.1164    1.7291    0.7921 H         1 <0>         0.0654
     25 H4         -0.1091   -0.1351   -2.1250 H         1 <0>         0.1195
     26 H5         -1.1293   -2.3698   -1.9796 H         1 <0>         0.1264
     27 H6         -1.0562   -3.6232    0.1373 H         1 <0>         0.1517
     28 H7          0.5364    0.3468    2.8820 H         1 <0>         0.0672
     29 H8          1.6782   -1.0180    2.9259 H         1 <0>         0.0600
     30 H9          2.0668    0.4373    1.9776 H         1 <0>         0.0719
     31 H10         0.1425   -2.3212    3.2317 H         1 <0>         0.4195
     32 H11        -0.1267   -4.3752    4.5310 H         1 <0>         0.1489
     33 H12         0.6171   -9.0457    0.7624 H         1 <0>         0.0917
     34 H13        -1.1582   -8.9351    0.6946 H         1 <0>         0.0918
@<TRIPOS>BOND
     1    1    2 1
     2    1   22 1
     3    1   23 1
     4    1   24 1
     5    2    7 ar
     6    2    3 ar
     7    3    4 ar
     8    3   25 1
     9    4    5 ar
    10    4   26 1
    11    5    6 ar
    12    5   27 1
    13    6    7 ar
    14    6    9 1
    15    7    8 1
    16    8   28 1
    17    8   29 1
    18    8   30 1
    19    9   10 1
    20    9   31 1
    21   10   15 ar
    22   10   11 ar
    23   11   12 ar
    24   11   32 1
    25   12   13 ar
    26   12   21 1
    27   13   14 ar
    28   14   15 ar
    29   14   16 1
    30   16   17 1
    31   17   18 1
    32   17   33 1
    33   17   34 1
    34   18   19 2
    35   18   20 1
@<TRIPOS>MOLECULE
ZINC08022594
   47    49     0     0     0
SMALL
USER_CHARGES

@<TRIPOS>ATOM
      1 C1         -0.0184    1.5028    0.0103 C.3       1 <0>        -0.1057
      2 C2          0.0021   -0.0041    0.0020 C.ar      1 <0>        -0.1055
      3 C3          0.0057   -0.6878   -1.1980 C.ar      1 <0>        -0.0578
      4 C4          0.0246   -2.0766   -1.2053 C.ar      1 <0>        -0.1393
      5 C5          0.0397   -2.7765   -0.0051 C.ar      1 <0>        -0.0936
      6 C6          0.0360   -2.0909    1.1933 C.ar      1 <0>        -0.1958
      7 C7          0.0229   -0.7036    1.1994 C.ar      1 <0>         0.1428
      8 O1          0.0254   -0.0293    2.3804 O.3       1 <0>        -0.2743
      9 C8          0.0474   -0.8131    3.5751 C.3       1 <0>        -0.0087
     10 C9          0.0468    0.0992    4.7746 C.2       1 <0>         0.5015
     11 O2          0.0293    1.3085    4.6207 O.co2     1 <0>        -0.6695
     12 O3          0.0640   -0.3721    5.8989 O.co2     1 <0>        -0.6867
     13 S1          0.0286   -2.9502   -2.7355 S.3       1 <0>        -0.1068
     14 C10         0.0549   -4.6962   -2.2439 C.3       1 <0>        -0.0216
     15 C11         0.0604   -5.5647   -3.4755 C.2       1 <0>        -0.1482
     16 C12         1.1098   -6.0555   -4.1871 C.2       1 <0>         0.0771
     17 N1          0.8913   -6.8034   -5.2429 N.2       1 <0>        -0.4749
     18 C13        -0.3404   -7.0952   -5.6368 C.2       1 <0>         0.1220
     19 S2         -1.3116   -6.2421   -4.4014 S.3       1 <0>         0.0640
     20 C14        -0.7899   -7.9110   -6.7852 C.ar      1 <0>         0.0575
     21 C15        -2.1529   -8.0893   -7.0271 C.ar      1 <0>        -0.1078
     22 C16        -2.5672   -8.8514   -8.0998 C.ar      1 <0>        -0.0372
     23 C17        -1.6352   -9.4396   -8.9359 C.ar      1 <0>        -0.2128
     24 C18        -0.2805   -9.2673   -8.7023 C.ar      1 <0>         0.1568
     25 C19         0.1466   -8.5008   -7.6344 C.ar      1 <0>        -0.1127
     26 F1          0.6243   -9.8446   -9.5229 F         1 <0>        -0.1169
     27 C20        -2.0954  -10.2716  -10.1052 C.3       1 <0>         0.5137
     28 F2         -3.4937  -10.3004  -10.1354 F         1 <0>        -0.1713
     29 F3         -1.6147   -9.7117  -11.2938 F         1 <0>        -0.1702
     30 F4         -1.6048  -11.5750   -9.9719 F         1 <0>        -0.1704
     31 C21         2.5216   -5.7406   -3.7642 C.3       1 <0>        -0.0908
     32 H1          1.0042    1.8801    0.0026 H         1 <0>         0.0690
     33 H2         -0.5455    1.8639   -0.8728 H         1 <0>         0.0611
     34 H3         -0.5286    1.8543    0.9071 H         1 <0>         0.0803
     35 H4         -0.0064   -0.1428   -2.1303 H         1 <0>         0.1298
     36 H5          0.0540   -3.8564   -0.0097 H         1 <0>         0.1186
     37 H6          0.0478   -2.6347    2.1263 H         1 <0>         0.1328
     38 H7         -0.8339   -1.4538    3.6055 H         1 <0>         0.0595
     39 H8          0.9458   -1.4302    3.5883 H         1 <0>         0.0598
     40 H9          0.9506   -4.8945   -1.6554 H         1 <0>         0.1159
     41 H10        -0.8291   -4.9187   -1.6464 H         1 <0>         0.1066
     42 H11        -2.8822   -7.6315   -6.3752 H         1 <0>         0.1483
     43 H12        -3.6218   -8.9894   -8.2871 H         1 <0>         0.1590
     44 H13         1.2026   -8.3626   -7.4552 H         1 <0>         0.1622
     45 H14         2.8716   -6.5040   -3.0694 H         1 <0>         0.0782
     46 H15         3.1684   -5.7238   -4.6414 H         1 <0>         0.0797
     47 H16         2.5460   -4.7664   -3.2761 H         1 <0>         0.0824
@<TRIPOS>BOND
     1    1    2 1
     2    1   32 1
     3    1   33 1
     4    1   34 1
     5    2    7 ar
     6    2    3 ar
     7    3    4 ar
     8    3   35 1
     9    4    5 ar
    10    4   13 1
    11    5    6 ar
    12    5   36 1
    13    6    7 ar
    14    6   37 1
    15    7    8 1
    16    8    9 1
    17    9   10 1
    18    9   38 1
    19    9   39 1
    20   10   11 2
    21   10   12 1
    22   13   14 1
    23   14   15 1
    24   14   40 1
    25   14   41 1
    26   15   19 1
    27   15   16 2
    28   16   17 1
    29   16   31 1
    30   17   18 2
    31   18   19 1
    32   18   20 1
    33   20   25 ar
    34   20   21 ar
    35   21   22 ar
    36   21   42 1
    37   22   23 ar
    38   22   43 1
    39   23   24 ar
    40   23   27 1
    41   24   25 ar
    42   24   26 1
    43   25   44 1
    44   27   28 1
    45   27   29 1
    46   27   30 1
    47   31   45 1
    48   31   46 1
    49   31   47 1
@<TRIPOS>MOLECULE
ZINC01549989
   47    49     0     0     0
SMALL
USER_CHARGES

@<TRIPOS>ATOM
      1 C1         -2.5043    0.0232    0.0377 C.3       1 <0>        -0.1059
      2 C2         -1.1897   -0.7133    0.0154 C.ar      1 <0>        -0.1042
      3 C3         -1.1722   -2.0943    0.0029 C.ar      1 <0>        -0.0582
      4 C4          0.0397   -2.7728   -0.0118 C.ar      1 <0>        -0.1370
      5 C5          1.2330   -2.0613   -0.0199 C.ar      1 <0>        -0.0938
      6 C6          1.2131   -0.6808   -0.0132 C.ar      1 <0>        -0.1941
      7 C7          0.0021   -0.0041    0.0020 C.ar      1 <0>         0.1425
      8 O1         -0.0164    1.3558    0.0095 O.3       1 <0>        -0.2805
      9 C8          1.2479    2.0218    0.0010 C.3       1 <0>         0.0163
     10 C9          1.0302    3.5130    0.0111 C.2       1 <0>         0.4694
     11 O2         -0.0924    3.9596    0.0242 O.co2     1 <0>        -0.6124
     12 S1          0.0636   -4.5346   -0.0209 S.3       1 <0>        -0.1072
     13 C10         1.8294   -4.9495   -0.0402 C.3       1 <0>        -0.0196
     14 C11         1.9934   -6.4475   -0.0494 C.2       1 <0>        -0.1541
     15 C12         2.0777   -7.3053   -1.1008 C.2       1 <0>         0.0788
     16 N1          2.2206   -8.5918   -0.8854 N.2       1 <0>        -0.4809
     17 C13         2.2855   -9.0806    0.3451 C.2       1 <0>         0.1336
     18 S2          2.1390   -7.5888    1.3199 S.3       1 <0>         0.0503
     19 C14         2.4434  -10.4815    0.7913 C.ar      1 <0>         0.0239
     20 C15         2.4951  -10.7815    2.1531 C.ar      1 <0>        -0.0953
     21 C16         2.6378  -12.0912    2.5629 C.ar      1 <0>        -0.0656
     22 C17         2.7402  -13.1048    1.6268 C.ar      1 <0>        -0.1707
     23 C18         2.6950  -12.8134    0.2751 C.ar      1 <0>        -0.0684
     24 C19         2.5473  -11.5085   -0.1478 C.ar      1 <0>        -0.0736
     25 C20         2.9023  -14.5324    2.0815 C.3       1 <0>         0.5086
     26 F1          4.2634  -14.8294    2.2096 F         1 <0>        -0.1744
     27 F2          2.2695  -14.7028    3.3176 F         1 <0>        -0.1752
     28 F3          2.3244  -15.3903    1.1396 F         1 <0>        -0.1751
     29 C21         2.0067   -6.7795   -2.5114 C.3       1 <0>        -0.0902
     30 H1         -2.8358    0.2058   -0.9845 H         1 <0>         0.0692
     31 H2         -3.2489   -0.5783    0.5591 H         1 <0>         0.0617
     32 H3         -2.3790    0.9746    0.5545 H         1 <0>         0.0796
     33 H4         -2.1004   -2.6463    0.0091 H         1 <0>         0.1302
     34 H5          2.1759   -2.5879   -0.0317 H         1 <0>         0.1195
     35 H6          2.1406   -0.1275   -0.0194 H         1 <0>         0.1341
     36 H7          1.8173    1.7318    0.8840 H         1 <0>         0.0668
     37 H8          1.8003    1.7414   -0.8958 H         1 <0>         0.0670
     38 H9          2.2919   -4.5279   -0.9326 H         1 <0>         0.1149
     39 H10         2.3093   -4.5368    0.8472 H         1 <0>         0.1057
     40 H11         2.4194   -9.9907    2.8848 H         1 <0>         0.1405
     41 H12         2.6742  -12.3252    3.6166 H         1 <0>         0.1456
     42 H13         2.7751  -13.6092   -0.4506 H         1 <0>         0.1451
     43 H14         2.5125  -11.2823   -1.2033 H         1 <0>         0.1494
     44 H15         3.0110   -6.5406   -2.8611 H         1 <0>         0.0775
     45 H16         1.5669   -7.5372   -3.1598 H         1 <0>         0.0790
     46 H17         1.3908   -5.8805   -2.5334 H         1 <0>         0.0816
     47 O3          2.0835    4.3451    0.0055 O.co2     1 <0>        -0.7545
@<TRIPOS>BOND
     1    1    2 1
     2    1   30 1
     3    1   31 1
     4    1   32 1
     5    2    7 ar
     6    2    3 ar
     7    3    4 ar
     8    3   33 1
     9    4    5 ar
    10    4   12 1
    11    5    6 ar
    12    5   34 1
    13    6    7 ar
    14    6   35 1
    15    7    8 1
    16    8    9 1
    17    9   10 1
    18    9   36 1
    19    9   37 1
    20   10   11 2
    21   10   47 1
    22   12   13 1
    23   13   14 1
    24   13   38 1
    25   13   39 1
    26   14   18 1
    27   14   15 2
    28   15   16 1
    29   15   29 1
    30   16   17 2
    31   17   18 1
    32   17   19 1
    33   19   24 ar
    34   19   20 ar
    35   20   21 ar
    36   20   40 1
    37   21   22 ar
    38   21   41 1
    39   22   23 ar
    40   22   25 1
    41   23   24 ar
    42   23   42 1
    43   24   43 1
    44   25   26 1
    45   25   27 1
    46   25   28 1
    47   29   44 1
    48   29   45 1
    49   29   46 1
@<TRIPOS>MOLECULE
ZINC00001187
   24    24     0     0     0
SMALL
USER_CHARGES

@<TRIPOS>ATOM
      1 C1         -1.4767   -0.2524   -0.3710 C.3       1 <0>        -0.1151
      2 C2         -0.0165    0.1612   -0.1771 C.3       1 <0>         0.0277
      3 C3          0.1542    1.6297   -0.5714 C.3       1 <0>        -0.1746
      4 C4          0.3689   -0.0188    1.2686 C.2       1 <0>         0.4809
      5 O1          1.2777   -0.7745    1.5677 O.co2     1 <0>        -0.6691
      6 O2         -0.2282    0.5913    2.1392 O.co2     1 <0>        -0.6834
      7 O3          0.8224   -0.6532   -0.9987 O.3       1 <0>        -0.2992
      8 C5          2.1573   -0.4000   -0.9599 C.ar      1 <0>         0.1738
      9 C6          2.6633    0.5220   -0.0553 C.ar      1 <0>        -0.1461
     10 C7          4.0203    0.7780   -0.0174 C.ar      1 <0>        -0.0854
     11 C8          4.8745    0.1157   -0.8812 C.ar      1 <0>        -0.0833
     12 C9          4.3717   -0.8040   -1.7845 C.ar      1 <0>        -0.0846
     13 C10         3.0161   -1.0675   -1.8209 C.ar      1 <0>        -0.1615
     14 Cl1         6.5794    0.4395   -0.8321 Cl        1 <0>        -0.0966
     15 H1         -1.7804   -0.0434   -1.3968 H         1 <0>         0.0513
     16 H2         -1.5819   -1.3187   -0.1710 H         1 <0>         0.0576
     17 H3         -2.1081    0.3102    0.3166 H         1 <0>         0.0794
     18 H4         -0.3177    2.2645    0.1785 H         1 <0>         0.0769
     19 H5          1.2160    1.8682   -0.6331 H         1 <0>         0.0669
     20 H6         -0.3140    1.8025   -1.5404 H         1 <0>         0.0524
     21 H7          1.9967    1.0396    0.6186 H         1 <0>         0.1478
     22 H8          4.4146    1.4957    0.6867 H         1 <0>         0.1255
     23 H9          5.0400   -1.3196   -2.4582 H         1 <0>         0.1287
     24 H10         2.6245   -1.7889   -2.5227 H         1 <0>         0.1301
@<TRIPOS>BOND
     1    1    2 1
     2    1   15 1
     3    1   16 1
     4    1   17 1
     5    2    3 1
     6    2    4 1
     7    2    7 1
     8    3   18 1
     9    3   19 1
    10    3   20 1
    11    4    5 2
    12    4    6 1
    13    7    8 1
    14    8   13 ar
    15    8    9 ar
    16    9   10 ar
    17    9   21 1
    18   10   11 ar
    19   10   22 1
    20   11   12 ar
    21   11   14 1
    22   12   13 ar
    23   12   23 1
    24   13   24 1
