@<TRIPOS>MOLECULE
ZINC00901466
   15    15     0     0     0
SMALL
USER_CHARGES
N-phenylhydroxylamine
@<TRIPOS>ATOM
      1 C1         -0.0126    1.0758    0.0080 C.ar      1 <0>        -0.1811
      2 C2         -1.2203    1.7493    0.0174 C.ar      1 <0>        -0.0738
      3 C3         -1.2426    3.1301    0.0307 C.ar      1 <0>        -0.1862
      4 C4         -0.0501    3.8425    0.0232 C.ar      1 <0>         0.2388
      5 C5          1.1613    3.1628    0.0080 C.ar      1 <0>        -0.2005
      6 C6          1.1764    1.7819    0.0004 C.ar      1 <0>        -0.0697
      7 N1         -0.0690    5.2391    0.0304 N.pl3     1 <0>        -0.6228
      8 O1         -1.3048    5.9304    0.0459 O.3       1 <0>        -0.3630
      9 H1          0.0021   -0.0041    0.0020 H         1 <0>         0.1195
     10 H2         -2.1471    1.1948    0.0184 H         1 <0>         0.1213
     11 H3         -2.1861    3.6555    0.0425 H         1 <0>         0.1228
     12 H4          2.0902    3.7137    0.0024 H         1 <0>         0.1211
     13 H5          2.1179    1.2529   -0.0118 H         1 <0>         0.1240
     14 H6          0.8760    5.8020    0.0240 H         1 <0>         0.4294
     15 H7         -1.3197    7.0303    0.0516 H         1 <0>         0.4203
@<TRIPOS>BOND
     1    1    6 ar
     2    1    2 ar
     3    1    9 1
     4    2    3 ar
     5    2   10 1
     6    3    4 ar
     7    3   11 1
     8    4    5 ar
     9    4    7 1
    10    5    6 ar
    11    5   12 1
    12    6   13 1
    13    7    8 1
    14    7   14 1
    15    8   15 1
