@<TRIPOS>MOLECULE
ZINC33848576
   53    57     0     0     0
SMALL
USER_CHARGES

@<TRIPOS>ATOM
      1 C1          2.7182   -2.2000   -4.0738 C.ar      1 <0>        -0.1158
      2 C2          3.9146   -1.5080   -3.9011 C.ar      1 <0>        -0.1066
      3 C3          4.2599   -0.9987   -2.6847 C.ar      1 <0>        -0.1088
      4 C4          3.4009   -1.1725   -1.5929 C.ar      1 <0>        -0.0248
      5 C5          2.1832   -1.8754   -1.7651 C.ar      1 <0>        -0.0540
      6 C6          1.8599   -2.3872   -3.0337 C.ar      1 <0>        -0.1018
      7 C7          1.3237   -2.0472   -0.6672 C.ar      1 <0>        -0.0896
      8 C8          1.6503   -1.5453    0.5555 C.ar      1 <0>        -0.1192
      9 C9          2.8326   -0.8503    0.7697 C.ar      1 <0>        -0.0751
     10 C10         3.7294   -0.6437   -0.2710 C.ar      1 <0>        -0.1341
     11 C11         4.9865    0.0939   -0.0463 C.2       1 <0>         0.4748
     12 O1          4.9701    1.3065    0.0606 O.2       1 <0>        -0.4475
     13 C12         6.2581   -0.6342    0.0486 C.2       1 <0>        -0.2576
     14 C13         6.4263   -1.9897    0.0489 C.2       1 <0>         0.1379
     15 N1          7.7433   -2.2873    0.1511 N.pl3     1 <0>        -0.4633
     16 C14         8.4947   -1.1320    0.2223 C.ar      1 <0>         0.0855
     17 C15         7.6063   -0.0465    0.1560 C.ar      1 <0>        -0.0632
     18 C16         8.0921    1.2574    0.2009 C.ar      1 <0>        -0.0708
     19 C17         9.4485    1.4767    0.3073 C.ar      1 <0>        -0.1345
     20 C18        10.3277    0.4059    0.3696 C.ar      1 <0>        -0.0994
     21 C19         9.8596   -0.8900    0.3343 C.ar      1 <0>        -0.1214
     22 C20         8.2932   -3.6449    0.1823 C.3       1 <0>         0.1072
     23 C21         8.4859   -4.0839    1.6352 C.3       1 <0>         0.0386
     24 N2          9.0372   -5.4451    1.6665 N.3       1 <0>        -0.5335
     25 C22         8.0690   -6.4179    1.1396 C.3       1 <0>         0.0104
     26 C23         8.7045   -7.8108    1.1347 C.3       1 <0>         0.0632
     27 O2          9.1345   -8.1377    2.4589 O.3       1 <0>        -0.3836
     28 C24        10.0786   -7.2113    3.0028 C.3       1 <0>         0.0633
     29 C25         9.4571   -5.8124    3.0266 C.3       1 <0>         0.0187
     30 H1          2.4656   -2.5903   -5.0486 H         1 <0>         0.1259
     31 H2          4.5781   -1.3733   -4.7426 H         1 <0>         0.1256
     32 H3          5.1908   -0.4647   -2.5638 H         1 <0>         0.1255
     33 H4          0.9356   -2.9257   -3.1825 H         1 <0>         0.1303
     34 H5          0.3944   -2.5825   -0.7944 H         1 <0>         0.1301
     35 H6          0.9704   -1.6916    1.3817 H         1 <0>         0.1291
     36 H7          3.0571   -0.4666    1.7539 H         1 <0>         0.1291
     37 H8          5.6290   -2.7148   -0.0215 H         1 <0>         0.1760
     38 H9          7.4094    2.0928    0.1522 H         1 <0>         0.1313
     39 H10         9.8286    2.4870    0.3421 H         1 <0>         0.1266
     40 H11        11.3887    0.5891    0.4529 H         1 <0>         0.1281
     41 H12        10.5529   -1.7167    0.3819 H         1 <0>         0.1219
     42 H13         7.6041   -4.3275   -0.3152 H         1 <0>         0.0948
     43 H14         9.2540   -3.6596   -0.3322 H         1 <0>         0.1025
     44 H15         9.1749   -3.4013    2.1326 H         1 <0>         0.0863
     45 H16         7.5251   -4.0691    2.1497 H         1 <0>         0.0451
     46 H17         7.1805   -6.4254    1.7709 H         1 <0>         0.0473
     47 H18         7.7914   -6.1409    0.1226 H         1 <0>         0.0875
     48 H19         7.9714   -8.5441    0.7987 H         1 <0>         0.1007
     49 H20         9.5617   -7.8174    0.4616 H         1 <0>         0.0620
     50 H21        10.3394   -7.5111    4.0178 H         1 <0>         0.1014
     51 H22        10.9759   -7.2005    2.3840 H         1 <0>         0.0622
     52 H23        10.1928   -5.0934    3.3871 H         1 <0>         0.0894
     53 H24         8.5907   -5.8102    3.6881 H         1 <0>         0.0464
@<TRIPOS>BOND
     1    1    6 ar
     2    1    2 ar
     3    1   30 1
     4    2    3 ar
     5    2   31 1
     6    3    4 ar
     7    3   32 1
     8    4   10 ar
     9    4    5 ar
    10    5    6 ar
    11    5    7 ar
    12    6   33 1
    13    7    8 ar
    14    7   34 1
    15    8    9 ar
    16    8   35 1
    17    9   10 ar
    18    9   36 1
    19   10   11 1
    20   11   12 2
    21   11   13 1
    22   13   17 1
    23   13   14 2
    24   14   15 1
    25   14   37 1
    26   15   16 1
    27   15   22 1
    28   16   21 ar
    29   16   17 ar
    30   17   18 ar
    31   18   19 ar
    32   18   38 1
    33   19   20 ar
    34   19   39 1
    35   20   21 ar
    36   20   40 1
    37   21   41 1
    38   22   23 1
    39   22   42 1
    40   22   43 1
    41   23   24 1
    42   23   44 1
    43   23   45 1
    44   24   29 1
    45   24   25 1
    46   25   26 1
    47   25   46 1
    48   25   47 1
    49   26   27 1
    50   26   48 1
    51   26   49 1
    52   27   28 1
    53   28   29 1
    54   28   50 1
    55   28   51 1
    56   29   52 1
    57   29   53 1
@<TRIPOS>MOLECULE
ZINC30691168
   54    57     0     0     0
SMALL
USER_CHARGES

@<TRIPOS>ATOM
      1 C1         -0.0407    1.5177   -0.0007 C.3       1 <0>        -0.1040
      2 C2         -0.0085    0.0110    0.0001 C.2       1 <0>         0.1343
      3 C3          0.0071   -0.7753   -1.1165 C.2       1 <0>        -0.2466
      4 C4          0.0374   -2.1715   -0.6431 C.ar      1 <0>        -0.0685
      5 C5          0.0631   -3.4090   -1.2813 C.ar      1 <0>        -0.0756
      6 C6          0.0885   -4.5635   -0.5299 C.ar      1 <0>        -0.1356
      7 C7          0.0886   -4.4968    0.8559 C.ar      1 <0>        -0.0990
      8 C8          0.0633   -3.2791    1.5001 C.ar      1 <0>        -0.1235
      9 C9          0.0374   -2.1022    0.7590 C.ar      1 <0>         0.0951
     10 N1          0.0152   -0.7672    1.1079 N.pl3     1 <0>        -0.4676
     11 C10         0.0132   -0.2629    2.4834 C.3       1 <0>         0.1095
     12 C11        -1.4297   -0.1182    2.9714 C.3       1 <0>         0.0379
     13 N2         -1.4317    0.3875    4.3507 N.3       1 <0>        -0.5333
     14 C12        -0.8543   -0.5997    5.2745 C.3       1 <0>         0.0107
     15 C13        -0.8211   -0.0102    6.6871 C.3       1 <0>         0.0634
     16 O1         -2.1439    0.3783    7.0673 O.3       1 <0>        -0.3837
     17 C14        -2.7364    1.3394    6.1895 C.3       1 <0>         0.0635
     18 C15        -2.7890    0.7637    4.7719 C.3       1 <0>         0.0182
     19 C16        -0.0046   -0.3203   -2.5124 C.2       1 <0>         0.4835
     20 O2         -1.0579   -0.2370   -3.1165 O.2       1 <0>        -0.4486
     21 C17         1.2615    0.0361   -3.1832 C.ar      1 <0>        -0.2022
     22 C18         2.4813   -0.1708   -2.5332 C.ar      1 <0>        -0.0198
     23 C19         3.6598    0.1625   -3.1625 C.ar      1 <0>        -0.1673
     24 C20         3.6375    0.7041   -4.4426 C.ar      1 <0>         0.1613
     25 C21         2.4263    0.9119   -5.0924 C.ar      1 <0>        -0.2239
     26 C22         1.2436    0.5759   -4.4723 C.ar      1 <0>        -0.0189
     27 O3          4.8012    1.0313   -5.0594 O.3       1 <0>        -0.3125
     28 C23         4.7058    1.5834   -6.3740 C.3       1 <0>         0.0236
     29 H1          0.9790    1.9028   -0.0075 H         1 <0>         0.0868
     30 H2         -0.5678    1.8693   -0.8876 H         1 <0>         0.0859
     31 H3         -0.5565    1.8706    0.8923 H         1 <0>         0.0775
     32 H4          0.0627   -3.4634   -2.3599 H         1 <0>         0.1217
     33 H5          0.1082   -5.5248   -1.0218 H         1 <0>         0.1259
     34 H6          0.1083   -5.4081    1.4352 H         1 <0>         0.1272
     35 H7          0.0632   -3.2385    2.5794 H         1 <0>         0.1176
     36 H8          0.5462   -0.9623    3.1275 H         1 <0>         0.0913
     37 H9          0.5066    0.7085    2.5150 H         1 <0>         0.1024
     38 H10        -1.9627    0.5812    2.3273 H         1 <0>         0.0844
     39 H11        -1.9231   -1.0896    2.9398 H         1 <0>         0.0455
     40 H12        -1.4653   -1.5023    5.2711 H         1 <0>         0.0471
     41 H13         0.1597   -0.8446    4.9584 H         1 <0>         0.0874
     42 H14        -0.4469   -0.7590    7.3852 H         1 <0>         0.1004
     43 H15        -0.1671    0.8616    6.7024 H         1 <0>         0.0618
     44 H16        -3.7473    1.5668    6.5278 H         1 <0>         0.1010
     45 H17        -2.1381    2.2505    6.1903 H         1 <0>         0.0620
     46 H18        -3.1873    1.5140    4.0889 H         1 <0>         0.0890
     47 H19        -3.4309   -0.1172    4.7604 H         1 <0>         0.0463
     48 H20         2.4995   -0.5912   -1.5386 H         1 <0>         0.1371
     49 H21         4.6028    0.0033   -2.6608 H         1 <0>         0.1369
     50 H22         2.4131    1.3335   -6.0866 H         1 <0>         0.1352
     51 H23         0.3033    0.7335   -4.9795 H         1 <0>         0.1368
     52 H24         4.2157    0.8676   -7.0340 H         1 <0>         0.0594
     53 H25         4.1234    2.5041   -6.3400 H         1 <0>         0.0593
     54 H26         5.7055    1.7995   -6.7507 H         1 <0>         0.1039
@<TRIPOS>BOND
     1    1    2 1
     2    1   29 1
     3    1   30 1
     4    1   31 1
     5    2   10 1
     6    2    3 2
     7    3    4 1
     8    3   19 1
     9    4    9 ar
    10    4    5 ar
    11    5    6 ar
    12    5   32 1
    13    6    7 ar
    14    6   33 1
    15    7    8 ar
    16    7   34 1
    17    8    9 ar
    18    8   35 1
    19    9   10 1
    20   10   11 1
    21   11   12 1
    22   11   36 1
    23   11   37 1
    24   12   13 1
    25   12   38 1
    26   12   39 1
    27   13   18 1
    28   13   14 1
    29   14   15 1
    30   14   40 1
    31   14   41 1
    32   15   16 1
    33   15   42 1
    34   15   43 1
    35   16   17 1
    36   17   18 1
    37   17   44 1
    38   17   45 1
    39   18   46 1
    40   18   47 1
    41   19   20 2
    42   19   21 1
    43   21   26 ar
    44   21   22 ar
    45   22   23 ar
    46   22   48 1
    47   23   24 ar
    48   23   49 1
    49   24   25 ar
    50   24   27 1
    51   25   26 ar
    52   25   50 1
    53   26   51 1
    54   27   28 1
    55   28   52 1
    56   28   53 1
    57   28   54 1
@<TRIPOS>MOLECULE
ZINC04212617
   40    42     0     0     0
SMALL
USER_CHARGES

@<TRIPOS>ATOM
      1 C1         -0.0407    1.5176   -0.0007 C.3       1 <0>        -0.1017
      2 C2         -0.0085    0.0110    0.0001 C.2       1 <0>         0.1563
      3 C3          0.0071   -0.7754   -1.1165 C.2       1 <0>        -0.2762
      4 C4          0.0380   -2.1723   -0.6429 C.ar      1 <0>        -0.0975
      5 C5          0.0640   -3.4091   -1.2823 C.ar      1 <0>        -0.0447
      6 C6          0.0899   -4.5580   -0.5416 C.ar      1 <0>        -0.2191
      7 C7          0.0903   -4.4992    0.8489 C.ar      1 <0>         0.1296
      8 C8          0.0647   -3.2795    1.4998 C.ar      1 <0>        -0.1480
      9 C9          0.0383   -2.1025    0.7593 C.ar      1 <0>         0.1467
     10 N1          0.0152   -0.7676    1.1083 N.pl3     1 <0>        -0.4232
     11 C10         0.0127   -0.2635    2.4838 C.3       1 <0>         0.0249
     12 C11        -1.4086   -0.1220    2.9645 C.2       1 <0>         0.4815
     13 O1         -2.3337   -0.4150    2.2264 O.co2     1 <0>        -0.6682
     14 O2         -1.6333    0.2856    4.0914 O.co2     1 <0>        -0.6891
     15 O3          0.1157   -5.6496    1.5727 O.3       1 <0>        -0.3194
     16 C12         0.1410   -6.8764    0.8403 C.3       1 <0>         0.0314
     17 C13        -0.0052   -0.3207   -2.5118 C.2       1 <0>         0.4872
     18 O4         -1.0587   -0.2379   -3.1155 O.2       1 <0>        -0.4424
     19 C14         1.2619    0.0368   -3.1839 C.ar      1 <0>        -0.1482
     20 C15         2.4815   -0.1688   -2.5357 C.ar      1 <0>        -0.0458
     21 C16         3.6601    0.1668   -3.1677 C.ar      1 <0>        -0.1253
     22 C17         3.6360    0.7067   -4.4431 C.ar      1 <0>        -0.0106
     23 C18         2.4293    0.9130   -5.0913 C.ar      1 <0>        -0.1263
     24 C19         1.2444    0.5762   -4.4719 C.ar      1 <0>        -0.0537
     25 Cl1         5.1241    1.1272   -5.2322 Cl        1 <0>        -0.0704
     26 H1          0.9789    1.9028   -0.0074 H         1 <0>         0.0790
     27 H2         -0.5678    1.8693   -0.8876 H         1 <0>         0.0805
     28 H3         -0.5565    1.8705    0.8923 H         1 <0>         0.0811
     29 H4          0.0634   -3.4607   -2.3611 H         1 <0>         0.1185
     30 H5          0.1097   -5.5168   -1.0384 H         1 <0>         0.1247
     31 H6          0.0649   -3.2410    2.5791 H         1 <0>         0.1264
     32 H7          0.5462   -0.9625    3.1279 H         1 <0>         0.0896
     33 H8          0.5055    0.7083    2.5156 H         1 <0>         0.0903
     34 H9         -0.7486   -6.9440    0.2140 H         1 <0>         0.0529
     35 H10         1.0310   -6.9061    0.2118 H         1 <0>         0.0518
     36 H11         0.1597   -7.7148    1.5365 H         1 <0>         0.0943
     37 H12         2.5015   -0.5894   -1.5411 H         1 <0>         0.1447
     38 H13         4.6040    0.0085   -2.6672 H         1 <0>         0.1380
     39 H14         2.4168    1.3347   -6.0855 H         1 <0>         0.1376
     40 H15         0.3044    0.7330   -4.9801 H         1 <0>         0.1429
@<TRIPOS>BOND
     1    1    2 1
     2    1   26 1
     3    1   27 1
     4    1   28 1
     5    2   10 1
     6    2    3 2
     7    3    4 1
     8    3   17 1
     9    4    9 ar
    10    4    5 ar
    11    5    6 ar
    12    5   29 1
    13    6    7 ar
    14    6   30 1
    15    7    8 ar
    16    7   15 1
    17    8    9 ar
    18    8   31 1
    19    9   10 1
    20   10   11 1
    21   11   12 1
    22   11   32 1
    23   11   33 1
    24   12   13 2
    25   12   14 1
    26   15   16 1
    27   16   34 1
    28   16   35 1
    29   16   36 1
    30   17   18 2
    31   17   19 1
    32   19   24 ar
    33   19   20 ar
    34   20   21 ar
    35   20   37 1
    36   21   22 ar
    37   21   38 1
    38   22   23 ar
    39   22   25 1
    40   23   24 ar
    41   23   39 1
    42   24   40 1
@<TRIPOS>MOLECULE
ZINC13742536
   51    54     0     0     0
SMALL
USER_CHARGES

@<TRIPOS>ATOM
      1 C1         -1.9977   -0.8098   -0.1482 C.3       1 <0>         0.0243
      2 O1         -0.8372   -0.0795   -0.5506 O.3       1 <0>        -0.3126
      3 C2         -0.0308   -0.6635   -1.4728 C.ar      1 <0>         0.1525
      4 C3         -0.3553   -1.9146   -1.9844 C.ar      1 <0>        -0.2177
      5 C4          0.4600   -2.5104   -2.9205 C.ar      1 <0>        -0.0480
      6 C5          1.6152   -1.8555   -3.3562 C.ar      1 <0>        -0.1878
      7 C6          1.9379   -0.5977   -2.8394 C.ar      1 <0>        -0.0264
      8 C7          1.1145   -0.0065   -1.9075 C.ar      1 <0>        -0.1577
      9 C8          2.4925   -2.4909   -4.3595 C.2       1 <0>         0.4692
     10 O2          3.0915   -1.8041   -5.1663 O.2       1 <0>        -0.4581
     11 C9          2.6424   -3.9512   -4.3839 C.2       1 <0>        -0.2497
     12 C10         2.1419   -4.8399   -3.4757 C.2       1 <0>         0.1199
     13 N1          2.4851   -6.1004   -3.8318 N.pl3     1 <0>        -0.4649
     14 C11         3.2286   -6.0876   -4.9944 C.ar      1 <0>         0.0858
     15 C12         3.3578   -4.7486   -5.3973 C.ar      1 <0>        -0.0647
     16 C13         4.0633   -4.4327   -6.5552 C.ar      1 <0>        -0.0688
     17 C14         4.6309   -5.4405   -7.3045 C.ar      1 <0>        -0.1358
     18 C15         4.5016   -6.7637   -6.9097 C.ar      1 <0>        -0.0988
     19 C16         3.8118   -7.0899   -5.7619 C.ar      1 <0>        -0.1228
     20 C17         2.1191   -7.3080   -3.0874 C.3       1 <0>         0.1076
     21 C18         3.2587   -7.6881   -2.1401 C.3       1 <0>         0.0381
     22 N2          2.8917   -8.8990   -1.3936 N.3       1 <0>        -0.5336
     23 C19         1.7645   -8.6375   -0.4869 C.3       1 <0>         0.0104
     24 C20         1.3772   -9.9364    0.2249 C.3       1 <0>         0.0631
     25 O3          2.5179  -10.4546    0.9146 O.3       1 <0>        -0.3837
     26 C21         3.6343  -10.7213    0.0615 C.3       1 <0>         0.0632
     27 C22         4.0445   -9.4303   -0.6519 C.3       1 <0>         0.0185
     28 H1         -2.6306   -0.9935   -1.0164 H         1 <0>         0.0588
     29 H2         -1.6947   -1.7615    0.2885 H         1 <0>         0.0580
     30 H3         -2.5529   -0.2315    0.5904 H         1 <0>         0.1038
     31 H4         -1.2480   -2.4202   -1.6468 H         1 <0>         0.1346
     32 H5          0.2073   -3.4826   -3.3171 H         1 <0>         0.1326
     33 H6          2.8299   -0.0886   -3.1733 H         1 <0>         0.1397
     34 H7          1.3608    0.9674   -1.5110 H         1 <0>         0.1388
     35 H8          1.5602   -4.5770   -2.6046 H         1 <0>         0.1791
     36 H9          4.1650   -3.4030   -6.8648 H         1 <0>         0.1319
     37 H10         5.1786   -5.1987   -8.2034 H         1 <0>         0.1266
     38 H11         4.9505   -7.5456   -7.5044 H         1 <0>         0.1280
     39 H12         3.7160   -8.1236   -5.4642 H         1 <0>         0.1216
     40 H13         1.2143   -7.1184   -2.5098 H         1 <0>         0.0942
     41 H14         1.9395   -8.1251   -3.7861 H         1 <0>         0.1023
     42 H15         4.1635   -7.8776   -2.7177 H         1 <0>         0.0864
     43 H16         3.4383   -6.8710   -1.4413 H         1 <0>         0.0453
     44 H17         2.0570   -7.8910    0.2516 H         1 <0>         0.0472
     45 H18         0.9139   -8.2691   -1.0604 H         1 <0>         0.0873
     46 H19         0.5796   -9.7356    0.9402 H         1 <0>         0.1004
     47 H20         1.0336  -10.6652   -0.5092 H         1 <0>         0.0620
     48 H21         4.4692  -11.0882    0.6586 H         1 <0>         0.1015
     49 H22         3.3564  -11.4730   -0.6774 H         1 <0>         0.0623
     50 H23         4.8582   -9.6408   -1.3460 H         1 <0>         0.0896
     51 H24         4.3734   -8.6966    0.0839 H         1 <0>         0.0466
@<TRIPOS>BOND
     1    1    2 1
     2    1   28 1
     3    1   29 1
     4    1   30 1
     5    2    3 1
     6    3    8 ar
     7    3    4 ar
     8    4    5 ar
     9    4   31 1
    10    5    6 ar
    11    5   32 1
    12    6    7 ar
    13    6    9 1
    14    7    8 ar
    15    7   33 1
    16    8   34 1
    17    9   10 2
    18    9   11 1
    19   11   15 1
    20   11   12 2
    21   12   13 1
    22   12   35 1
    23   13   14 1
    24   13   20 1
    25   14   19 ar
    26   14   15 ar
    27   15   16 ar
    28   16   17 ar
    29   16   36 1
    30   17   18 ar
    31   17   37 1
    32   18   19 ar
    33   18   38 1
    34   19   39 1
    35   20   21 1
    36   20   40 1
    37   20   41 1
    38   21   22 1
    39   21   42 1
    40   21   43 1
    41   22   27 1
    42   22   23 1
    43   23   24 1
    44   23   44 1
    45   23   45 1
    46   24   25 1
    47   24   46 1
    48   24   47 1
    49   25   26 1
    50   26   27 1
    51   26   48 1
    52   26   49 1
    53   27   50 1
    54   27   51 1
@<TRIPOS>MOLECULE
ZINC00002279
   31    33     0     0     0
SMALL
USER_CHARGES

@<TRIPOS>ATOM
      1 C1         -0.0108    1.3859    0.1045 C.ar      1 <0>        -0.0985
      2 C2          1.0572    1.9318   -0.5855 C.ar      1 <0>        -0.1332
      3 C3          2.2636    1.2648   -0.6354 C.ar      1 <0>        -0.0691
      4 C4          2.4057    0.0363    0.0124 C.ar      1 <0>        -0.1377
      5 C5          1.3242   -0.5089    0.7068 C.ar      1 <0>        -0.0797
      6 C6          0.1233    0.1686    0.7487 C.ar      1 <0>        -0.1305
      7 C7          3.6960   -0.6846   -0.0373 C.2       1 <0>         0.4627
      8 O1          4.7355   -0.0640   -0.1633 O.2       1 <0>        -0.4790
      9 C8          3.7231   -2.1454    0.0652 C.2       1 <0>        -0.0873
     10 C9          2.6257   -2.9819    0.0788 C.2       1 <0>        -0.1188
     11 C10         3.1064   -4.2872    0.1904 C.2       1 <0>        -0.1953
     12 C11         4.4639   -4.2305    0.2434 C.2       1 <0>         0.1098
     13 N1          4.8529   -2.9364    0.1599 N.pl3     1 <0>        -0.4348
     14 C12         6.3206   -2.8248    0.1992 C.3       1 <0>         0.1086
     15 C13         6.8243   -4.1741    0.7535 C.3       1 <0>        -0.1127
     16 C14         5.6791   -5.1294    0.3606 C.3       1 <0>        -0.1149
     17 H1          5.9002   -5.5988   -0.5981 H         1 <0>         0.0897
     18 C15         5.4607   -6.1754    1.4232 C.2       1 <0>         0.5091
     19 O2          5.8442   -7.3184    1.2415 O.co2     1 <0>        -0.6927
     20 O3          4.9005   -5.8786    2.4647 O.co2     1 <0>        -0.6805
     21 H2         -0.9518    1.9143    0.1442 H         1 <0>         0.1242
     22 H3          0.9458    2.8821   -1.0865 H         1 <0>         0.1261
     23 H4          3.0963    1.6919   -1.1746 H         1 <0>         0.1288
     24 H5          1.4274   -1.4590    1.2097 H         1 <0>         0.1445
     25 H6         -0.7141   -0.2521    1.2855 H         1 <0>         0.1291
     26 H7          1.5899   -2.6827    0.0155 H         1 <0>         0.1505
     27 H8          2.5060   -5.1842    0.2283 H         1 <0>         0.1384
     28 H9          6.7129   -2.6596   -0.8043 H         1 <0>         0.0823
     29 H10         6.6191   -2.0109    0.8599 H         1 <0>         0.0852
     30 H11         7.7611   -4.4654    0.2784 H         1 <0>         0.0907
     31 H12         6.9347   -4.1335    1.8372 H         1 <0>         0.0847
@<TRIPOS>BOND
     1    1    6 ar
     2    1    2 ar
     3    1   21 1
     4    2    3 ar
     5    2   22 1
     6    3    4 ar
     7    3   23 1
     8    4    5 ar
     9    4    7 1
    10    5    6 ar
    11    5   24 1
    12    6   25 1
    13    7    8 2
    14    7    9 1
    15    9   13 1
    16    9   10 2
    17   10   11 1
    18   10   26 1
    19   11   12 2
    20   11   27 1
    21   12   16 1
    22   12   13 1
    23   13   14 1
    24   14   15 1
    25   14   28 1
    26   14   29 1
    27   15   16 1
    28   15   30 1
    29   15   31 1
    30   16   17 1
    31   16   18 1
    32   18   19 2
    33   18   20 1
@<TRIPOS>MOLECULE
ZINC00011012
   31    33     0     0     0
SMALL
USER_CHARGES

@<TRIPOS>ATOM
      1 C1         -0.0108    1.3859    0.1045 C.ar      1 <0>        -0.0993
      2 C2          1.0572    1.9318   -0.5855 C.ar      1 <0>        -0.1322
      3 C3          2.2636    1.2648   -0.6354 C.ar      1 <0>        -0.0688
      4 C4          2.4057    0.0363    0.0124 C.ar      1 <0>        -0.1360
      5 C5          1.3242   -0.5089    0.7068 C.ar      1 <0>        -0.0807
      6 C6          0.1233    0.1686    0.7487 C.ar      1 <0>        -0.1314
      7 C7          3.6960   -0.6846   -0.0373 C.2       1 <0>         0.4610
      8 O1          4.7355   -0.0640   -0.1633 O.2       1 <0>        -0.4774
      9 C8          3.7231   -2.1454    0.0652 C.2       1 <0>        -0.0882
     10 C9          2.6257   -2.9819    0.0788 C.2       1 <0>        -0.1211
     11 C10         3.1064   -4.2872    0.1904 C.2       1 <0>        -0.1960
     12 C11         4.4639   -4.2305    0.2434 C.2       1 <0>         0.1084
     13 N1          4.8529   -2.9364    0.1599 N.pl3     1 <0>        -0.4319
     14 C12         6.3206   -2.8248    0.1992 C.3       1 <0>         0.1087
     15 C13         6.8243   -4.1741    0.7535 C.3       1 <0>        -0.1158
     16 C14         5.6791   -5.1294    0.3606 C.3       1 <0>        -0.1157
     17 H1          5.5212   -5.8860    1.1292 H         1 <0>         0.0940
     18 C15         5.9847   -5.7783   -0.9648 C.2       1 <0>         0.5050
     19 O2          7.1341   -6.0664   -1.2519 O.co2     1 <0>        -0.6901
     20 O3          5.0825   -6.0152   -1.7500 O.co2     1 <0>        -0.6785
     21 H2         -0.9518    1.9143    0.1442 H         1 <0>         0.1240
     22 H3          0.9458    2.8821   -1.0865 H         1 <0>         0.1263
     23 H4          3.0963    1.6919   -1.1746 H         1 <0>         0.1294
     24 H5          1.4274   -1.4590    1.2097 H         1 <0>         0.1433
     25 H6         -0.7141   -0.2521    1.2855 H         1 <0>         0.1283
     26 H7          1.5899   -2.6827    0.0155 H         1 <0>         0.1495
     27 H8          2.5060   -5.1842    0.2283 H         1 <0>         0.1381
     28 H9          6.7129   -2.6596   -0.8043 H         1 <0>         0.0847
     29 H10         6.6191   -2.0109    0.8599 H         1 <0>         0.0829
     30 H11         7.7611   -4.4654    0.2784 H         1 <0>         0.1101
     31 H12         6.9347   -4.1335    1.8372 H         1 <0>         0.0693
@<TRIPOS>BOND
     1    1    6 ar
     2    1    2 ar
     3    1   21 1
     4    2    3 ar
     5    2   22 1
     6    3    4 ar
     7    3   23 1
     8    4    5 ar
     9    4    7 1
    10    5    6 ar
    11    5   24 1
    12    6   25 1
    13    7    8 2
    14    7    9 1
    15    9   13 1
    16    9   10 2
    17   10   11 1
    18   10   26 1
    19   11   12 2
    20   11   27 1
    21   12   16 1
    22   12   13 1
    23   13   14 1
    24   14   15 1
    25   14   28 1
    26   14   29 1
    27   15   16 1
    28   15   30 1
    29   15   31 1
    30   16   17 1
    31   16   18 1
    32   18   19 2
    33   18   20 1
@<TRIPOS>MOLECULE
ZINC00601283
   40    42     0     0     0
SMALL
USER_CHARGES

@<TRIPOS>ATOM
      1 C1         -0.0182    1.5027    0.0102 C.3       1 <0>        -0.0883
      2 C2          0.0021   -0.0042    0.0020 C.2       1 <0>         0.0711
      3 C3          0.0074   -0.7679   -1.0995 C.2       1 <0>        -0.0782
      4 C4          0.0293   -2.1662   -0.6567 C.ar      1 <0>        -0.0368
      5 C5          0.0428   -3.3917   -1.3243 C.ar      1 <0>        -0.0938
      6 C6          0.0625   -4.5656   -0.5961 C.ar      1 <0>         0.0956
      7 C7          0.0688   -4.5275    0.7953 C.ar      1 <0>        -0.1804
      8 C8          0.0551   -3.3226    1.4635 C.ar      1 <0>        -0.0946
      9 C9          0.0357   -2.1316    0.7482 C.ar      1 <0>         0.0803
     10 N1          0.0240   -0.7990    1.1223 N.am      1 <0>        -0.5123
     11 C10         0.0297   -0.3494    2.3928 C.2       1 <0>         0.6115
     12 O1         -1.0174   -0.0751    2.9450 O.2       1 <0>        -0.4412
     13 C11         1.3084   -0.1902    3.1139 C.ar      1 <0>        -0.1622
     14 C12         2.5190   -0.3985    2.4491 C.ar      1 <0>        -0.0360
     15 C13         3.7097   -0.2483    3.1279 C.ar      1 <0>        -0.1193
     16 C14         3.7070    0.1084    4.4664 C.ar      1 <0>         0.0005
     17 C15         2.5096    0.3160    5.1314 C.ar      1 <0>        -0.1284
     18 C16         1.3125    0.1750    4.4621 C.ar      1 <0>        -0.0426
     19 Cl1         5.2103    0.2955    5.3141 Cl        1 <0>        -0.0622
     20 O2          0.0753   -5.7626   -1.2410 O.3       1 <0>        -0.3182
     21 C17         0.0954   -6.9375   -0.4278 C.3       1 <0>         0.0304
     22 C18        -0.0069   -0.2812   -2.5257 C.3       1 <0>        -0.1253
     23 C19         1.4090   -0.0991   -3.0085 C.2       1 <0>         0.4982
     24 O3          2.3431   -0.3421   -2.2636 O.co2     1 <0>        -0.6866
     25 O4          1.6204    0.2911   -4.1441 O.co2     1 <0>        -0.7049
     26 H1          1.0044    1.8799    0.0025 H         1 <0>         0.0804
     27 H2         -0.5453    1.8638   -0.8729 H         1 <0>         0.0881
     28 H3         -0.5284    1.8543    0.9070 H         1 <0>         0.0568
     29 H4          0.0376   -3.4222   -2.4038 H         1 <0>         0.1332
     30 H5          0.0842   -5.4504    1.3560 H         1 <0>         0.1288
     31 H6          0.0595   -3.3039    2.5434 H         1 <0>         0.1161
     32 H7          2.5224   -0.6770    1.4056 H         1 <0>         0.1519
     33 H8          4.6464   -0.4095    2.6151 H         1 <0>         0.1453
     34 H9          2.5140    0.5936    6.1751 H         1 <0>         0.1420
     35 H10         0.3798    0.3418    4.9804 H         1 <0>         0.1449
     36 H11         0.9887   -6.9318    0.1968 H         1 <0>         0.0516
     37 H12        -0.7911   -6.9558    0.2062 H         1 <0>         0.0506
     38 H13         0.1040   -7.8210   -1.0660 H         1 <0>         0.0947
     39 H14        -0.5139   -1.0132   -3.1543 H         1 <0>         0.0698
     40 H15        -0.5343    0.6712   -2.5793 H         1 <0>         0.0692
@<TRIPOS>BOND
     1    1    2 1
     2    1   26 1
     3    1   27 1
     4    1   28 1
     5    2   10 1
     6    2    3 2
     7    3    4 1
     8    3   22 1
     9    4    9 ar
    10    4    5 ar
    11    5    6 ar
    12    5   29 1
    13    6    7 ar
    14    6   20 1
    15    7    8 ar
    16    7   30 1
    17    8    9 ar
    18    8   31 1
    19    9   10 1
    20   10   11 am
    21   11   12 2
    22   11   13 1
    23   13   18 ar
    24   13   14 ar
    25   14   15 ar
    26   14   32 1
    27   15   16 ar
    28   15   33 1
    29   16   17 ar
    30   16   19 1
    31   17   18 ar
    32   17   34 1
    33   18   35 1
    34   20   21 1
    35   21   36 1
    36   21   37 1
    37   21   38 1
    38   22   23 1
    39   22   39 1
    40   22   40 1
    41   23   24 2
    42   23   25 1
