@<TRIPOS>MOLECULE
ZINC00057299
   24    24     0     0     0
SMALL
USER_CHARGES

@<TRIPOS>ATOM
      1 C1         -0.0167    1.3782    0.0096 C.ar      1 <0>        -0.0863
      2 C2          1.1704    2.0870    0.0021 C.ar      1 <0>        -0.1063
      3 C3          2.3791    1.4160   -0.0130 C.ar      1 <0>        -0.0487
      4 C4          2.4039    0.0338   -0.0211 C.ar      1 <0>        -0.1099
      5 C5          1.2139   -0.6802   -0.0135 C.ar      1 <0>         0.1690
      6 C6          0.0021   -0.0041    0.0020 C.ar      1 <0>        -0.1124
      7 Br1        -1.6220   -0.9726    0.0129 Br        1 <0>        -0.0113
      8 O1          1.2353   -2.0393   -0.0219 O.3       1 <0>        -0.4706
      9 Br2         4.0576   -0.8830   -0.0430 Br        1 <0>        -0.0081
     10 C7          1.1467    3.5938    0.0099 C.3       1 <0>        -0.0841
     11 C8          1.1521    4.0965    1.4549 C.3       1 <0>        -0.0450
     12 H1          2.0057    3.6725    1.9839 H         1 <0>         0.1354
     13 C9          1.2523    5.6001    1.4633 C.2       1 <0>         0.4893
     14 O2          0.2395    6.2787    1.4462 O.co2     1 <0>        -0.6642
     15 O3          2.3462    6.1380    1.4872 O.co2     1 <0>        -0.6318
     16 N1         -0.0907    3.6848    2.1212 N.4       1 <0>        -0.6164
     17 H2         -0.9594    1.9048    0.0259 H         1 <0>         0.1440
     18 H3          3.3049    1.9722   -0.0189 H         1 <0>         0.1527
     19 H4          1.2502   -2.4379    0.8590 H         1 <0>         0.4023
     20 H5          2.0260    3.9737   -0.5103 H         1 <0>         0.1233
     21 H6          0.2463    3.9456   -0.4938 H         1 <0>         0.1022
     22 H7         -0.8808    4.0773    1.6316 H         1 <0>         0.4336
     23 H8         -0.1577    2.6781    2.1156 H         1 <0>         0.4101
     24 H9         -0.0871    4.0163    3.0742 H         1 <0>         0.4332
@<TRIPOS>BOND
     1    1    6 ar
     2    1    2 ar
     3    1   17 1
     4    2    3 ar
     5    2   10 1
     6    3    4 ar
     7    3   18 1
     8    4    5 ar
     9    4    9 1
    10    5    6 ar
    11    5    8 1
    12    6    7 1
    13    8   19 1
    14   10   11 1
    15   10   20 1
    16   10   21 1
    17   11   12 1
    18   11   13 1
    19   11   16 1
    20   13   14 2
    21   13   15 1
    22   16   22 1
    23   16   23 1
    24   16   24 1
@<TRIPOS>MOLECULE
ZINC00057300
   24    24     0     0     0
SMALL
USER_CHARGES
2-amino-3-(3,5-dibromo-4-hydroxy-phenyl)-propanoic acid
@<TRIPOS>ATOM
      1 C1         -0.2614    5.7492    1.2543 C.ar      1 <0>        -0.0471
      2 C2          0.9539    5.1116    1.4213 C.ar      1 <0>        -0.1079
      3 C3          2.1098    5.8526    1.5840 C.ar      1 <0>        -0.0877
      4 C4          2.0546    7.2338    1.5694 C.ar      1 <0>        -0.1124
      5 C5          0.8361    7.8765    1.4020 C.ar      1 <0>         0.1699
      6 C6         -0.3232    7.1302    1.2443 C.ar      1 <0>        -0.1095
      7 Br1        -1.9858    8.0015    1.0152 Br        1 <0>        -0.0072
      8 O1          0.7783    9.2346    1.3920 O.3       1 <0>        -0.4721
      9 Br2         3.6371    8.2465    1.7841 Br        1 <0>        -0.0109
     10 C7          1.0180    3.6060    1.4324 C.3       1 <0>        -0.0857
     11 C8          1.2350    3.0943    0.0069 C.3       1 <0>        -0.0125
     12 H1          0.4562    3.4914   -0.6442 H         1 <0>         0.1408
     13 C9          1.1765    1.5884   -0.0006 C.2       1 <0>         0.4581
     14 O2          2.1986    0.9442   -0.0139 O.co2     1 <0>        -0.6118
     15 H2         -1.1633    5.1679    1.1313 H         1 <0>         0.1541
     16 H3          3.0572    5.3519    1.7183 H         1 <0>         0.1445
     17 H4          0.6416    9.6289    2.2644 H         1 <0>         0.4044
     18 H5          0.0830    3.2053    1.8238 H         1 <0>         0.1285
     19 H6          1.8449    3.2821    2.0644 H         1 <0>         0.1012
     20 H7          3.2893    3.1803    0.1103 H         1 <0>         0.4349
     21 H8          2.6906    3.2654   -1.4389 H         1 <0>         0.4365
     22 O3         -0.0110    0.9628    0.0073 O.co2     1 <0>        -0.6968
     23 N1          2.5472    3.5608   -0.4746 N.4       1 <0>        -0.6286
     24 H9          2.5780    4.5861   -0.4302 H         1 <0>         0.4172
@<TRIPOS>BOND
     1    1    6 ar
     2    1    2 ar
     3    1   15 1
     4    2    3 ar
     5    2   10 1
     6    3    4 ar
     7    3   16 1
     8    4    5 ar
     9    4    9 1
    10    5    6 ar
    11    5    8 1
    12    6    7 1
    13    8   17 1
    14   10   11 1
    15   10   18 1
    16   10   19 1
    17   11   12 1
    18   11   13 1
    19   11   23 1
    20   13   14 2
    21   13   22 1
    22   20   23 1
    23   21   23 1
    24   23   24 1
@<TRIPOS>MOLECULE
ZINC03954010
   40    43     0     0     0
SMALL
USER_CHARGES
5-[(2-hydroxy-1-naphthyl)azo]naphthalene-2-sulfonic acid
@<TRIPOS>ATOM
      1 C1          8.4051    1.8633   -0.0643 C.ar      1 <0>        -0.1195
      2 C2          7.2203    1.1319   -0.0582 C.ar      1 <0>        -0.1115
      3 C3          6.0099    1.7601   -0.0438 C.ar      1 <0>        -0.0938
      4 C4          5.9563    3.1582   -0.0298 C.ar      1 <0>         0.0006
      5 C5          7.1591    3.9054   -0.0420 C.ar      1 <0>        -0.0637
      6 C6          8.3885    3.2252   -0.0565 C.ar      1 <0>        -0.1001
      7 C7          7.1032    5.3107   -0.0336 C.ar      1 <0>        -0.0697
      8 C8          5.9091    5.9604   -0.0201 C.ar      1 <0>        -0.1454
      9 C9          4.6979    5.2709   -0.0132 C.ar      1 <0>         0.1383
     10 C10         4.6800    3.8729   -0.0205 C.ar      1 <0>         0.0420
     11 N1          3.5040    3.1937   -0.0134 N.2       1 <0>        -0.2444
     12 N2          2.3868    3.8384    0.0003 N.2       1 <0>        -0.1770
     13 C11         1.2078    3.1574    0.0074 C.ar      1 <0>         0.0345
     14 C12         1.1907    1.7664    0.0002 C.ar      1 <0>        -0.0642
     15 C13        -0.0126    1.0758    0.0080 C.ar      1 <0>        -0.1523
     16 C14        -1.2116    1.7212    0.0173 C.ar      1 <0>        -0.0437
     17 C15        -1.2705    3.1249    0.0310 C.ar      1 <0>        -0.0889
     18 C16        -0.0676    3.8725    0.0234 C.ar      1 <0>         0.0265
     19 C17        -0.1219    5.2709    0.0308 C.ar      1 <0>        -0.1329
     20 C18        -1.3324    5.8982    0.0453 C.ar      1 <0>        -0.0184
     21 C19        -2.5173    5.1663    0.0529 C.ar      1 <0>        -0.6601
     22 C20        -2.5007    3.8048    0.0464 C.ar      1 <0>        -0.0012
     23 S1         -4.0613    6.0151    0.0717 S.o2      1 <0>         2.6959
     24 O1         -5.0119    5.1167    0.6270 O.2       1 <0>        -1.0545
     25 O2         -3.8120    7.2993    0.6266 O.2       1 <0>        -1.0527
     26 O3          3.5295    5.9602    0.0002 O.3       1 <0>        -0.4690
     27 H1          9.3514    1.3429   -0.0750 H         1 <0>         0.1243
     28 H2          7.2604    0.0526   -0.0646 H         1 <0>         0.1256
     29 H3          5.0979    1.1816   -0.0384 H         1 <0>         0.1348
     30 H4          9.3155    3.7794   -0.0610 H         1 <0>         0.1300
     31 H5          8.0204    5.8808   -0.0382 H         1 <0>         0.1345
     32 H6          5.8988    7.0403   -0.0142 H         1 <0>         0.1345
     33 H7          2.1220    1.2194   -0.0113 H         1 <0>         0.1357
     34 H8          0.0021   -0.0041    0.0020 H         1 <0>         0.1273
     35 H9         -2.1269    1.1480    0.0182 H         1 <0>         0.1351
     36 H10         0.7898    5.8499    0.0248 H         1 <0>         0.1385
     37 H11        -1.3729    6.9774    0.0514 H         1 <0>         0.1391
     38 H12        -3.4275    3.2504    0.0531 H         1 <0>         0.1451
     39 H13         3.1981    6.1554    0.8875 H         1 <0>         0.3937
     40 O4         -4.4693    6.2391   -1.3774 O.3       1 <0>        -1.0731
@<TRIPOS>BOND
     1    1    6 ar
     2    1    2 ar
     3    1   27 1
     4    2    3 ar
     5    2   28 1
     6    3    4 ar
     7    3   29 1
     8    4   10 ar
     9    4    5 ar
    10    5    6 ar
    11    5    7 ar
    12    6   30 1
    13    7    8 ar
    14    7   31 1
    15    8    9 ar
    16    8   32 1
    17    9   10 ar
    18    9   26 1
    19   10   11 1
    20   11   12 2
    21   12   13 1
    22   13   18 ar
    23   13   14 ar
    24   14   15 ar
    25   14   33 1
    26   15   16 ar
    27   15   34 1
    28   16   17 ar
    29   16   35 1
    30   17   22 ar
    31   17   18 ar
    32   18   19 ar
    33   19   20 ar
    34   19   36 1
    35   20   21 ar
    36   20   37 1
    37   21   22 ar
    38   21   23 1
    39   22   38 1
    40   23   24 2
    41   23   25 2
    42   23   40 1
    43   26   39 1
