@<TRIPOS>MOLECULE
ZINC01482078
   12    11     0     0     0
SMALL
USER_CHARGES
2-(formyl-hydroxy-amino)acetic acid
@<TRIPOS>ATOM
      1 C1          2.4713    0.7114   -0.0177 C.3       1 <0>         0.0515
      2 C2          3.1068    0.7148    1.3487 C.2       1 <0>         0.4409
      3 O1          2.6110    1.3570    2.2440 O.co2     1 <0>        -0.6192
      4 N1          1.2746    1.5563   -0.0018 N.am      1 <0>        -0.4576
      5 C3          1.3972    2.8985    0.0043 C.2       1 <0>         0.5211
      6 O2          0.4065    3.5979    0.0175 O.2       1 <0>        -0.5621
      7 O3         -0.0110    0.9628    0.0073 O.3       1 <0>        -0.3356
      8 H1          2.1930   -0.3076   -0.2865 H         1 <0>         0.0938
      9 H2          3.1802    1.0994   -0.7491 H         1 <0>         0.0960
     10 H3          2.3778    3.3511   -0.0026 H         1 <0>         0.1526
     11 H4          0.0021   -0.0041    0.0020 H         1 <0>         0.3784
     12 O4          4.2237    0.0043    1.5712 O.co2     1 <0>        -0.7598
@<TRIPOS>BOND
     1    1    2 1
     2    1    4 1
     3    1    8 1
     4    1    9 1
     5    2    3 2
     6    2   12 1
     7    4    5 am
     8    4    7 1
     9    5    6 2
    10    5   10 1
    11    7   11 1
