@<TRIPOS>MOLECULE
ZINC01544567
   50    52     0     0     0
SMALL
USER_CHARGES
N-[1-benzyl-2-(dimethylcarbamoyl)-2-hydroxy-ethyl]-5-chloro-1H-indole-2-carboxamide
@<TRIPOS>ATOM
      1 C1         -2.8177   -1.3987   -2.2078 C.3       1 <0>         0.0955
      2 N1         -2.8144   -0.0406   -1.6587 N.am      1 <0>        -0.6006
      3 C2         -3.8202    0.3515   -0.6682 C.3       1 <0>         0.0737
      4 C3         -1.8862    0.8483   -2.0647 C.2       1 <0>         0.4958
      5 O1         -1.1062    0.5512   -2.9446 O.2       1 <0>        -0.5329
      6 C4         -1.8177    2.2112   -1.4254 C.3       1 <0>         0.0758
      7 H1         -2.8246    2.6162   -1.3241 H         1 <0>         0.1311
      8 C5         -1.1736    2.0941   -0.0425 C.3       1 <0>         0.1263
      9 H2         -1.7578    1.4105    0.5736 H         1 <0>         0.1106
     10 C6         -1.1353    3.4724    0.6207 C.3       1 <0>        -0.0841
     11 C7         -0.6146    3.3381    2.0285 C.ar      1 <0>        -0.0854
     12 C8         -1.4939    3.1217    3.0729 C.ar      1 <0>        -0.1142
     13 C9         -1.0158    2.9938    4.3637 C.ar      1 <0>        -0.1142
     14 C10         0.3406    3.0927    4.6113 C.ar      1 <0>        -0.1195
     15 C11         1.2194    3.3143    3.5675 C.ar      1 <0>        -0.1158
     16 C12         0.7418    3.4370    2.2761 C.ar      1 <0>        -0.1149
     17 N2          0.1915    1.5809   -0.1815 N.am      1 <0>        -0.7245
     18 C13         0.4081    0.2526   -0.2525 C.2       1 <0>         0.5901
     19 O2         -0.5295   -0.5204   -0.1961 O.2       1 <0>        -0.5012
     20 C14         1.7779   -0.2623   -0.3981 C.2       1 <0>         0.0213
     21 C15         2.1216   -1.5743   -0.4801 C.2       1 <0>        -0.0948
     22 C16         3.5296   -1.6437   -0.6121 C.ar      1 <0>        -0.1098
     23 C17         4.4329   -2.7075   -0.7366 C.ar      1 <0>        -0.0482
     24 C18         5.7696   -2.4535   -0.8493 C.ar      1 <0>        -0.0605
     25 C19         6.2446   -1.1468   -0.8422 C.ar      1 <0>        -0.0778
     26 C20         5.3763   -0.0854   -0.7216 C.ar      1 <0>        -0.1175
     27 C21         4.0088   -0.3193   -0.6051 C.ar      1 <0>         0.1185
     28 N3          2.9197    0.5110   -0.4792 N.pl3     1 <0>        -0.5756
     29 H3          2.9487    1.4801   -0.4500 H         1 <0>         0.4170
     30 Cl1         6.8862   -3.7739   -1.0026 Cl        1 <0>        -0.0686
     31 O3         -1.0341    3.0822   -2.2436 O.3       1 <0>        -0.5303
     32 H4         -1.8694   -1.8853   -1.9793 H         1 <0>         0.0663
     33 H5         -3.6344   -1.9681   -1.7641 H         1 <0>         0.0720
     34 H6         -2.9516   -1.3534   -3.2886 H         1 <0>         0.0561
     35 H7         -4.6550    0.8391   -1.1715 H         1 <0>         0.0586
     36 H8         -4.1790   -0.5346   -0.1444 H         1 <0>         0.0785
     37 H9         -3.3747    1.0416    0.0484 H         1 <0>         0.0667
     38 H10        -0.4791    4.1312    0.0518 H         1 <0>         0.0896
     39 H11        -2.1408    3.8926    0.6437 H         1 <0>         0.0968
     40 H12        -2.5540    3.0489    2.8800 H         1 <0>         0.1230
     41 H13        -1.7025    2.8210    5.1792 H         1 <0>         0.1236
     42 H14         0.7137    2.9972    5.6203 H         1 <0>         0.1222
     43 H15         2.2790    3.3920    3.7610 H         1 <0>         0.1214
     44 H16         1.4283    3.6106    1.4607 H         1 <0>         0.1142
     45 H17         0.9391    2.1973   -0.2264 H         1 <0>         0.3967
     46 H18         1.4427   -2.4136   -0.4498 H         1 <0>         0.1580
     47 H19         4.0728   -3.7257   -0.7424 H         1 <0>         0.1377
     48 H20         7.3050   -0.9627   -0.9324 H         1 <0>         0.1400
     49 H21         5.7548    0.9261   -0.7178 H         1 <0>         0.1337
     50 H22        -0.1241    2.7835   -2.3770 H         1 <0>         0.3798
@<TRIPOS>BOND
     1    1    2 1
     2    1   32 1
     3    1   33 1
     4    1   34 1
     5    2    3 1
     6    2    4 am
     7    3   35 1
     8    3   36 1
     9    3   37 1
    10    4    5 2
    11    4    6 1
    12    6    7 1
    13    6    8 1
    14    6   31 1
    15    8    9 1
    16    8   10 1
    17    8   17 1
    18   10   11 1
    19   10   38 1
    20   10   39 1
    21   11   16 ar
    22   11   12 ar
    23   12   13 ar
    24   12   40 1
    25   13   14 ar
    26   13   41 1
    27   14   15 ar
    28   14   42 1
    29   15   16 ar
    30   15   43 1
    31   16   44 1
    32   17   18 am
    33   17   45 1
    34   18   19 2
    35   18   20 1
    36   20   28 1
    37   20   21 2
    38   21   22 1
    39   21   46 1
    40   22   27 ar
    41   22   23 ar
    42   23   24 ar
    43   23   47 1
    44   24   25 ar
    45   24   30 1
    46   25   26 ar
    47   25   48 1
    48   26   27 ar
    49   26   49 1
    50   27   28 1
    51   28   29 1
    52   31   50 1
