@<TRIPOS>MOLECULE
ZINC05447539
   24    24     0     0     0
SMALL
USER_CHARGES

@<TRIPOS>ATOM
      1 C1         -0.0187    1.5258    0.0104 C.3       1 <0>        -0.1437
      2 C2          0.0021   -0.0041    0.0020 C.3       1 <0>        -0.0684
      3 C3          0.7421   -0.5109    1.2415 C.3       1 <0>        -0.1436
      4 C4         -1.4117   -0.5257    0.0127 C.2       1 <0>        -0.0426
      5 C5         -2.1843   -0.1449    1.1089 C.2       1 <0>        -0.1374
      6 C6         -3.4935   -0.4578    1.3975 C.2       1 <0>        -0.0914
      7 C7         -4.3891   -1.2415    0.6629 C.2       1 <0>         0.2032
      8 O1         -5.6286   -1.3789    1.1959 O.3       1 <0>        -0.7173
      9 C8         -4.1726   -1.8971   -0.5430 C.2       1 <0>        -0.1193
     10 C9         -2.9923   -1.9295   -1.3180 C.2       1 <0>         0.3735
     11 C10        -1.7607   -1.3014   -1.0550 C.2       1 <0>        -0.1824
     12 O2         -3.0493   -2.5828   -2.3520 O.2       1 <0>        -0.5761
     13 O3         -5.2263   -2.5932   -1.0374 O.3       1 <0>        -0.4774
     14 H1          1.0039    1.9031    0.0027 H         1 <0>         0.0530
     15 H2         -0.5459    1.8868   -0.8726 H         1 <0>         0.0562
     16 H3         -0.5289    1.8773    0.9072 H         1 <0>         0.0575
     17 H4          0.5123   -0.3556   -0.8948 H         1 <0>         0.0758
     18 H5          0.2319   -0.1594    2.1383 H         1 <0>         0.0575
     19 H6          0.7568   -1.6008    1.2356 H         1 <0>         0.0562
     20 H7          1.7647   -0.1336    1.2338 H         1 <0>         0.0531
     21 H8         -1.6861    0.4828    1.8329 H         1 <0>         0.1063
     22 H9         -3.8814   -0.0420    2.3157 H         1 <0>         0.1098
     23 H10        -0.9877   -1.4582   -1.7928 H         1 <0>         0.1160
     24 H11        -6.0189   -2.5521   -0.4849 H         1 <0>         0.3818
@<TRIPOS>BOND
     1    1    2 1
     2    1   14 1
     3    1   15 1
     4    1   16 1
     5    2    3 1
     6    2    4 1
     7    2   17 1
     8    3   18 1
     9    3   19 1
    10    3   20 1
    11    4   11 2
    12    4    5 1
    13    5    6 2
    14    5   21 1
    15    6    7 1
    16    6   22 1
    17    7    8 1
    18    7    9 2
    19    9   10 1
    20    9   13 1
    21   10   11 1
    22   10   12 2
    23   11   23 1
    24   13   24 1
@<TRIPOS>MOLECULE
ZINC05447539
   23    23     0     0     0
SMALL
USER_CHARGES

@<TRIPOS>ATOM
      1 C1         -0.0187    1.5258    0.0104 C.3       1 <0>        -0.1339
      2 C2          0.0021   -0.0041    0.0020 C.3       1 <0>        -0.0515
      3 C3          0.7421   -0.5109    1.2415 C.3       1 <0>        -0.1339
      4 C4         -1.4117   -0.5257    0.0127 C.2       1 <0>        -0.0737
      5 C5         -2.1843   -0.1449    1.1089 C.2       1 <0>        -0.1980
      6 C6         -3.4934   -0.4581    1.3978 C.2       1 <0>        -0.2280
      7 C7         -4.3890   -1.2416    0.6629 C.2       1 <0>         0.1577
      8 C8         -4.1727   -1.8968   -0.5432 C.2       1 <0>         0.2000
      9 C9         -2.9924   -1.9291   -1.3182 C.2       1 <0>         0.2961
     10 O1         -3.0496   -2.5821   -2.3524 O.2       1 <0>        -0.6353
     11 C10        -1.7607   -1.3015   -1.0550 C.2       1 <0>        -0.3426
     12 O2         -5.2265   -2.5927   -1.0377 O.3       1 <0>        -0.6183
     13 O3         -5.6283   -1.3799    1.1965 O.3       1 <0>        -0.7531
     14 H1          1.0039    1.9031    0.0027 H         1 <0>         0.0315
     15 H2         -0.5459    1.8868   -0.8726 H         1 <0>         0.0490
     16 H3         -0.5289    1.8773    0.9072 H         1 <0>         0.0527
     17 H4          0.5123   -0.3556   -0.8948 H         1 <0>         0.0544
     18 H5          1.7647   -0.1336    1.2338 H         1 <0>         0.0315
     19 H6          0.2319   -0.1594    2.1383 H         1 <0>         0.0526
     20 H7          0.7568   -1.6008    1.2356 H         1 <0>         0.0490
     21 H8         -1.6862    0.4831    1.8327 H         1 <0>         0.0598
     22 H9         -3.8811   -0.0429    2.3163 H         1 <0>         0.0649
     23 H10        -0.9877   -1.4582   -1.7928 H         1 <0>         0.0689
@<TRIPOS>BOND
     1    1    2 1
     2    1   14 1
     3    1   15 1
     4    1   16 1
     5    2    3 1
     6    2    4 1
     7    2   17 1
     8    3   18 1
     9    3   19 1
    10    3   20 1
    11    4   11 2
    12    4    5 1
    13    5    6 2
    14    5   21 1
    15    6    7 1
    16    6   22 1
    17    7    8 2
    18    7   13 1
    19    8    9 1
    20    8   12 1
    21    9   10 2
    22    9   11 1
    23   11   23 1
@<TRIPOS>MOLECULE
ZINC05447539
   24    24     0     0     0
SMALL
USER_CHARGES

@<TRIPOS>ATOM
      1 C1         -0.0187    1.5258    0.0104 C.3       1 <0>        -0.1434
      2 C2          0.0021   -0.0041    0.0020 C.3       1 <0>        -0.0394
      3 C3          0.7421   -0.5109    1.2415 C.3       1 <0>        -0.1435
      4 C4         -1.4117   -0.5257    0.0127 C.2       1 <0>        -0.2309
      5 C5         -1.7624   -1.3150   -1.0654 C.2       1 <0>         0.0077
      6 C6         -2.9756   -1.9350   -1.3375 C.2       1 <0>        -0.3117
      7 C7         -4.1422   -1.9169   -0.5931 C.2       1 <0>         0.2471
      8 C8         -4.3875   -1.2596    0.6329 C.2       1 <0>         0.3269
      9 O1         -5.5117   -1.3956    1.0981 O.2       1 <0>        -0.5288
     10 C9         -3.4974   -0.4653    1.3893 C.2       1 <0>        -0.0793
     11 C10        -2.1793   -0.1502    1.1081 C.2       1 <0>        -0.0178
     12 O2         -3.9965    0.0505    2.5397 O.3       1 <0>        -0.4972
     13 O3         -5.1824   -2.6192   -1.1063 O.3       1 <0>        -0.6364
     14 H1          1.0039    1.9031    0.0027 H         1 <0>         0.0443
     15 H2         -0.5459    1.8868   -0.8726 H         1 <0>         0.0524
     16 H3         -0.5289    1.8773    0.9072 H         1 <0>         0.0529
     17 H4          0.5123   -0.3556   -0.8948 H         1 <0>         0.0646
     18 H5          1.7647   -0.1336    1.2338 H         1 <0>         0.0444
     19 H6          0.2319   -0.1594    2.1383 H         1 <0>         0.0529
     20 H7          0.7568   -1.6008    1.2356 H         1 <0>         0.0524
     21 H8         -0.9854   -1.4718   -1.7989 H         1 <0>         0.0925
     22 H9         -3.0134   -2.5073   -2.2526 H         1 <0>         0.0987
     23 H10        -1.6824    0.4749    1.8353 H         1 <0>         0.1039
     24 H11        -4.9175   -0.1890    2.7111 H         1 <0>         0.3875
@<TRIPOS>BOND
     1    1    2 1
     2    1   14 1
     3    1   15 1
     4    1   16 1
     5    2    3 1
     6    2    4 1
     7    2   17 1
     8    3   18 1
     9    3   19 1
    10    3   20 1
    11    4   11 1
    12    4    5 2
    13    5    6 1
    14    5   21 1
    15    6    7 2
    16    6   22 1
    17    7    8 1
    18    7   13 1
    19    8    9 2
    20    8   10 1
    21   10   11 2
    22   10   12 1
    23   11   23 1
    24   12   24 1
