@<TRIPOS>MOLECULE
ZINC40379069
   29    31     0     0     0
SMALL
USER_CHARGES

@<TRIPOS>ATOM
      1 C1         -0.0187    1.5270    0.0104 C.3       1 <0>        -0.1160
      2 C2          1.3762    2.1585    0.0005 C.3       1 <0>        -0.0889
      3 H1          1.3430    3.2479    0.0059 H         1 <0>         0.0951
      4 C3          2.1739    1.5843   -1.2019 C.3       1 <0>        -0.1232
      5 C4          2.2694    0.0800   -0.8088 C.3       1 <0>        -0.0802
      6 C5          0.8700   -0.4669   -1.2204 C.3       1 <0>        -0.1229
      7 C6          0.0021   -0.0041    0.0020 C.3       1 <0>        -0.0888
      8 H2         -0.9984   -0.4367   -0.0065 H         1 <0>         0.0956
      9 C7          0.8778   -0.4861    1.1929 C.3       1 <0>        -0.1332
     10 C8          2.2765    0.0615    0.7476 C.3       1 <0>        -0.1041
     11 C9          2.1853    1.5716    1.1915 C.3       1 <0>        -0.1322
     12 C10         3.4554   -0.7073    1.3476 C.3       1 <0>         0.0162
     13 N1          3.3716   -0.6661    2.8136 N.4       1 <0>        -0.6375
     14 H3         -0.5477    1.8637    0.9020 H         1 <0>         0.0646
     15 H4         -0.5646    1.8732   -0.8672 H         1 <0>         0.0706
     16 H5          1.6238    1.7119   -2.1343 H         1 <0>         0.0801
     17 H6          3.1636    2.0362   -1.2676 H         1 <0>         0.0708
     18 H7          3.1136   -0.4420   -1.2593 H         1 <0>         0.0968
     19 H8          0.5286   -0.0111   -2.1497 H         1 <0>         0.0810
     20 H9          0.8817   -1.5540   -1.2999 H         1 <0>         0.0701
     21 H10         0.5404   -0.0466    2.1316 H         1 <0>         0.0795
     22 H11         0.8929   -1.5743    1.2540 H         1 <0>         0.0742
     23 H12         3.1769    2.0202    1.2516 H         1 <0>         0.0748
     24 H13         1.6447    1.6913    2.1304 H         1 <0>         0.0782
     25 H14         3.4228   -1.7434    1.0108 H         1 <0>         0.1366
     26 H15         4.3902   -0.2493    1.0241 H         1 <0>         0.1363
     27 H16         3.4019    0.2930    3.1255 H         1 <0>         0.4341
     28 H17         2.5063   -1.0900    3.1131 H         1 <0>         0.4340
     29 H18         4.1491   -1.1731    3.2093 H         1 <0>         0.4384
@<TRIPOS>BOND
     1    1    7 1
     2    1    2 1
     3    1   14 1
     4    1   15 1
     5    2    3 1
     6    2   11 1
     7    2    4 1
     8    4    5 1
     9    4   16 1
    10    4   17 1
    11    5   10 1
    12    5    6 1
    13    5   18 1
    14    6    7 1
    15    6   19 1
    16    6   20 1
    17    7    8 1
    18    7    9 1
    19    9   10 1
    20    9   21 1
    21    9   22 1
    22   10   11 1
    23   10   12 1
    24   11   23 1
    25   11   24 1
    26   12   13 1
    27   12   25 1
    28   12   26 1
    29   13   27 1
    30   13   28 1
    31   13   29 1
