@<TRIPOS>MOLECULE
ZINC04783170
   43    46     0     0     0
SMALL
USER_CHARGES
4-benzhydrylnaphthalene-1,2-diol
@<TRIPOS>ATOM
      1 C1          0.6710    8.6278   -3.3118 C.ar      1 <0>        -0.1187
      2 C2          1.4302    9.0476   -2.2356 C.ar      1 <0>        -0.1195
      3 C3          1.6240    8.2060   -1.1562 C.ar      1 <0>        -0.1062
      4 C4          1.0590    6.9444   -1.1533 C.ar      1 <0>        -0.0797
      5 C5          0.3045    6.5225   -2.2320 C.ar      1 <0>        -0.1083
      6 C6          0.1064    7.3660   -3.3090 C.ar      1 <0>        -0.1179
      7 C7          1.2707    6.0268    0.0232 C.3       1 <0>         0.0292
      8 C8          1.3292    6.8401    1.2906 C.ar      1 <0>        -0.0719
      9 C9          0.3214    7.7407    1.5810 C.ar      1 <0>        -0.1070
     10 C10         0.3726    8.4832    2.7459 C.ar      1 <0>        -0.1180
     11 C11         1.4367    8.3325    3.6154 C.ar      1 <0>        -0.1194
     12 C12         2.4473    7.4361    3.3221 C.ar      1 <0>        -0.1172
     13 C13         2.3934    6.6897    2.1598 C.ar      1 <0>        -0.1126
     14 C14         0.1290    5.0467    0.1076 C.ar      1 <0>        -0.0492
     15 C15        -1.1545    5.4983    0.1496 C.ar      1 <0>        -0.1146
     16 C16        -2.2273    4.6089    0.2278 C.ar      1 <0>         0.0859
     17 C17        -2.0109    3.2458    0.2649 C.ar      1 <0>         0.0884
     18 C18        -0.6926    2.7534    0.2228 C.ar      1 <0>        -0.0602
     19 C19         0.3888    3.6665    0.1430 C.ar      1 <0>        -0.0366
     20 C20         1.7045    3.1727    0.1011 C.ar      1 <0>        -0.1094
     21 C21         1.9216    1.8299    0.1376 C.ar      1 <0>        -0.1089
     22 C22         0.8578    0.9325    0.2161 C.ar      1 <0>        -0.1133
     23 C23        -0.4293    1.3736    0.2528 C.ar      1 <0>        -0.0982
     24 O1         -3.0617    2.3866    0.3410 O.3       1 <0>        -0.4799
     25 O2         -3.4990    5.0900    0.2682 O.3       1 <0>        -0.4855
     26 H1          0.5193    9.2854   -4.1549 H         1 <0>         0.1214
     27 H2          1.8716   10.0333   -2.2379 H         1 <0>         0.1220
     28 H3          2.2172    8.5340   -0.3154 H         1 <0>         0.1222
     29 H4         -0.1332    5.5352   -2.2316 H         1 <0>         0.1217
     30 H5         -0.4865    7.0379   -4.1500 H         1 <0>         0.1220
     31 H6          2.2072    5.4836   -0.1035 H         1 <0>         0.1040
     32 H7         -0.5078    7.8614    0.8997 H         1 <0>         0.1212
     33 H8         -0.4167    9.1839    2.9748 H         1 <0>         0.1222
     34 H9          1.4786    8.9154    4.5236 H         1 <0>         0.1218
     35 H10         3.2787    7.3186    4.0013 H         1 <0>         0.1231
     36 H11         3.1830    5.9894    1.9308 H         1 <0>         0.1220
     37 H12        -1.3455    6.5609    0.1220 H         1 <0>         0.1354
     38 H13         2.5388    3.8558    0.0399 H         1 <0>         0.1310
     39 H14         2.9334    1.4536    0.1056 H         1 <0>         0.1263
     40 H15         1.0576   -0.1285    0.2436 H         1 <0>         0.1263
     41 H16        -1.2438    0.6666    0.3087 H         1 <0>         0.1319
     42 H17        -3.3263    2.1680    1.2451 H         1 <0>         0.3869
     43 H18        -3.8272    5.2594    1.1619 H         1 <0>         0.3872
@<TRIPOS>BOND
     1    1    6 ar
     2    1    2 ar
     3    1   26 1
     4    2    3 ar
     5    2   27 1
     6    3    4 ar
     7    3   28 1
     8    4    5 ar
     9    4    7 1
    10    5    6 ar
    11    5   29 1
    12    6   30 1
    13    7    8 1
    14    7   14 1
    15    7   31 1
    16    8   13 ar
    17    8    9 ar
    18    9   10 ar
    19    9   32 1
    20   10   11 ar
    21   10   33 1
    22   11   12 ar
    23   11   34 1
    24   12   13 ar
    25   12   35 1
    26   13   36 1
    27   14   19 ar
    28   14   15 ar
    29   15   16 ar
    30   15   37 1
    31   16   17 ar
    32   16   25 1
    33   17   18 ar
    34   17   24 1
    35   18   23 ar
    36   18   19 ar
    37   19   20 ar
    38   20   21 ar
    39   20   38 1
    40   21   22 ar
    41   21   39 1
    42   22   23 ar
    43   22   40 1
    44   23   41 1
    45   24   42 1
    46   25   43 1
@<TRIPOS>MOLECULE
ZINC16977173
   42    44     0     0     0
SMALL
USER_CHARGES

@<TRIPOS>ATOM
      1 C1         -0.0213    1.2392   -0.3479 C.ar      1 <0>        -0.1101
      2 C2          1.1147    2.0208   -0.3889 C.ar      1 <0>        -0.1369
      3 C3          2.3583    1.4598   -0.0957 C.ar      1 <0>         0.0920
      4 C4          2.4419    0.0924    0.2413 C.ar      1 <0>         0.0978
      5 C5          1.2798   -0.6792    0.2765 C.ar      1 <0>        -0.1370
      6 C6          0.0608   -0.1039   -0.0170 C.ar      1 <0>        -0.1072
      7 N1          3.6508   -0.4717    0.5302 N.2       1 <0>        -0.4598
      8 C7          4.0000   -1.5930   -0.0381 C.2       1 <0>         0.2037
      9 C8          5.2472   -2.2620    0.3604 C.ar      1 <0>        -0.0711
     10 C9          5.6266   -3.4621   -0.2521 C.ar      1 <0>        -0.0966
     11 C10         6.7990   -4.0857    0.1264 C.ar      1 <0>         0.0735
     12 C11         7.6017   -3.5203    1.1168 C.ar      1 <0>         0.1025
     13 C12         7.2263   -2.3304    1.7246 C.ar      1 <0>        -0.1397
     14 C13         6.0609   -1.6981    1.3486 C.ar      1 <0>        -0.0584
     15 O1          8.7542   -4.1363    1.4879 O.3       1 <0>        -0.4874
     16 O2          7.1708   -5.2518   -0.4665 O.3       1 <0>        -0.4856
     17 N2          3.4856    2.2283   -0.1352 N.2       1 <0>        -0.4617
     18 C14         3.5093    3.3834    0.4710 C.2       1 <0>         0.2028
     19 C15         4.7484    4.1746    0.4976 C.ar      1 <0>        -0.0703
     20 C16         4.7776    5.4114    1.1522 C.ar      1 <0>        -0.0970
     21 C17         5.9442    6.1498    1.1737 C.ar      1 <0>         0.0735
     22 C18         7.0894    5.6634    0.5440 C.ar      1 <0>         0.1023
     23 C19         7.0614    4.4371   -0.1054 C.ar      1 <0>        -0.1397
     24 C20         5.9030    3.6907   -0.1264 C.ar      1 <0>        -0.0579
     25 O3          8.2356    6.3922    0.5658 O.3       1 <0>        -0.4874
     26 O4          5.9762    7.3519    1.8088 O.3       1 <0>        -0.4856
     27 H1         -0.9824    1.6784   -0.5711 H         1 <0>         0.1291
     28 H2          1.0416    3.0666   -0.6482 H         1 <0>         0.1288
     29 H3          1.3347   -1.7268    0.5335 H         1 <0>         0.1296
     30 H4         -0.8361   -0.7047    0.0115 H         1 <0>         0.1295
     31 H5          3.3729   -2.0298   -0.8012 H         1 <0>         0.1117
     32 H6          5.0038   -3.8994   -1.0184 H         1 <0>         0.1403
     33 H7          7.8513   -1.8966    2.4911 H         1 <0>         0.1380
     34 H8          5.7737   -0.7697    1.8199 H         1 <0>         0.1426
     35 H9          9.5289   -3.8609    0.9789 H         1 <0>         0.3913
     36 H10         7.7189   -5.1350   -1.2545 H         1 <0>         0.3889
     37 H11         2.6187    3.7585    0.9533 H         1 <0>         0.1108
     38 H12         3.8898    5.7874    1.6389 H         1 <0>         0.1401
     39 H13         7.9510    4.0647   -0.5916 H         1 <0>         0.1379
     40 H14         5.8855    2.7345   -0.6283 H         1 <0>         0.1426
     41 H15         8.8086    6.2015    1.3210 H         1 <0>         0.3913
     42 H16         6.2261    7.2975    2.7413 H         1 <0>         0.3888
@<TRIPOS>BOND
     1    1    6 ar
     2    1    2 ar
     3    1   27 1
     4    2    3 ar
     5    2   28 1
     6    3    4 ar
     7    3   17 1
     8    4    5 ar
     9    4    7 1
    10    5    6 ar
    11    5   29 1
    12    6   30 1
    13    7    8 2
    14    8    9 1
    15    8   31 1
    16    9   14 ar
    17    9   10 ar
    18   10   11 ar
    19   10   32 1
    20   11   12 ar
    21   11   16 1
    22   12   13 ar
    23   12   15 1
    24   13   14 ar
    25   13   33 1
    26   14   34 1
    27   15   35 1
    28   16   36 1
    29   17   18 2
    30   18   19 1
    31   18   37 1
    32   19   24 ar
    33   19   20 ar
    34   20   21 ar
    35   20   38 1
    36   21   22 ar
    37   21   26 1
    38   22   23 ar
    39   22   25 1
    40   23   24 ar
    41   23   39 1
    42   24   40 1
    43   25   41 1
    44   26   42 1
@<TRIPOS>MOLECULE
ZINC01678641
   52    54     0     0     0
SMALL
USER_CHARGES
1,2,3-trimethoxy-7-(3,4,5-trimethoxyphenyl)-naphthalene
@<TRIPOS>ATOM
      1 C1         -2.3808    0.0609    0.1977 C.3       1 <0>         0.0224
      2 O1         -1.1787   -0.7043    0.0908 O.3       1 <0>        -0.3025
      3 C2         -0.0091   -0.0130    0.0446 C.ar      1 <0>         0.1343
      4 C3         -0.0290    1.3614    0.1012 C.ar      1 <0>        -0.2075
      5 C4          1.1762    2.0809    0.0534 C.ar      1 <0>        -0.0001
      6 C5          1.1802    3.4869    0.1093 C.ar      1 <0>        -0.1127
      7 C6          2.3557    4.1652    0.0617 C.ar      1 <0>        -0.0864
      8 C7          3.5779    3.4815   -0.0440 C.ar      1 <0>        -0.0580
      9 C8          3.6079    2.1004   -0.1011 C.ar      1 <0>        -0.0655
     10 C9          2.4048    1.3806   -0.0530 C.ar      1 <0>        -0.0865
     11 C10         2.3998   -0.0281   -0.1094 C.ar      1 <0>         0.1290
     12 C11         1.2020   -0.7082   -0.0605 C.ar      1 <0>         0.0601
     13 O2          1.1962   -2.0679   -0.1144 O.3       1 <0>        -0.3205
     14 C12         1.0935   -2.6655   -1.4084 C.3       1 <0>         0.0380
     15 O3          3.5702   -0.7120   -0.2119 O.3       1 <0>        -0.3248
     16 C13         4.1785   -1.1432    1.0072 C.3       1 <0>         0.0347
     17 C14         4.8471    4.2474   -0.0945 C.ar      1 <0>         0.0325
     18 C15         6.0640    3.5752   -0.1932 C.ar      1 <0>        -0.2265
     19 C16         7.2473    4.2917   -0.2455 C.ar      1 <0>         0.1548
     20 C17         7.2229    5.6811   -0.1886 C.ar      1 <0>         0.0286
     21 C18         6.0097    6.3531   -0.0847 C.ar      1 <0>         0.1539
     22 C19         4.8243    5.6398   -0.0375 C.ar      1 <0>        -0.2258
     23 O4          5.9879    7.7118   -0.0291 O.3       1 <0>        -0.3009
     24 C20         4.7071    8.3363    0.0776 C.3       1 <0>         0.0230
     25 O5          8.3873    6.3837   -0.2340 O.3       1 <0>        -0.3121
     26 C21         9.0228    6.6676    1.0140 C.3       1 <0>         0.0352
     27 O6          8.4347    3.6364   -0.3466 O.3       1 <0>        -0.3007
     28 C22         8.3855    2.2092   -0.4005 C.3       1 <0>         0.0229
     29 H1         -2.3543    0.6532    1.1124 H         1 <0>         0.0596
     30 H2         -2.4667    0.7247   -0.6626 H         1 <0>         0.0588
     31 H3         -3.2383   -0.6114    0.2249 H         1 <0>         0.1049
     32 H4         -0.9698    1.8862    0.1777 H         1 <0>         0.1425
     33 H5          0.2483    4.0267    0.1899 H         1 <0>         0.1339
     34 H6          2.3506    5.2443    0.1054 H         1 <0>         0.1289
     35 H7          4.5506    1.5796   -0.1816 H         1 <0>         0.1346
     36 H8          0.1269   -2.4180   -1.8471 H         1 <0>         0.0475
     37 H9          1.8906   -2.2864   -2.0480 H         1 <0>         0.0494
     38 H10         1.1847   -3.7478   -1.3171 H         1 <0>         0.0957
     39 H11         4.3208   -0.2860    1.6653 H         1 <0>         0.0485
     40 H12         3.5341   -1.8737    1.4962 H         1 <0>         0.0565
     41 H13         5.1446   -1.5987    0.7898 H         1 <0>         0.0989
     42 H14         6.0835    2.4961   -0.2330 H         1 <0>         0.1385
     43 H15         3.8824    6.1619    0.0439 H         1 <0>         0.1391
     44 H16         4.8323    9.4185    0.1128 H         1 <0>         0.1045
     45 H17         4.0993    8.0688   -0.7868 H         1 <0>         0.0587
     46 H18         4.2126    7.9979    0.9882 H         1 <0>         0.0574
     47 H19         9.2644    5.7327    1.5197 H         1 <0>         0.0443
     48 H20         9.9385    7.2313    0.8356 H         1 <0>         0.0932
     49 H21         8.3503    7.2553    1.6388 H         1 <0>         0.0443
     50 H22         9.3980    1.8135   -0.4801 H         1 <0>         0.1048
     51 H23         7.9165    1.8274    0.5063 H         1 <0>         0.0571
     52 H24         7.8045    1.8982   -1.2687 H         1 <0>         0.0595
@<TRIPOS>BOND
     1    1    2 1
     2    1   29 1
     3    1   30 1
     4    1   31 1
     5    2    3 1
     6    3   12 ar
     7    3    4 ar
     8    4    5 ar
     9    4   32 1
    10    5   10 ar
    11    5    6 ar
    12    6    7 ar
    13    6   33 1
    14    7    8 ar
    15    7   34 1
    16    8    9 ar
    17    8   17 1
    18    9   10 ar
    19    9   35 1
    20   10   11 ar
    21   11   12 ar
    22   11   15 1
    23   12   13 1
    24   13   14 1
    25   14   36 1
    26   14   37 1
    27   14   38 1
    28   15   16 1
    29   16   39 1
    30   16   40 1
    31   16   41 1
    32   17   22 ar
    33   17   18 ar
    34   18   19 ar
    35   18   42 1
    36   19   20 ar
    37   19   27 1
    38   20   21 ar
    39   20   25 1
    40   21   22 ar
    41   21   23 1
    42   22   43 1
    43   23   24 1
    44   24   44 1
    45   24   45 1
    46   24   46 1
    47   25   26 1
    48   26   47 1
    49   26   48 1
    50   26   49 1
    51   27   28 1
    52   28   50 1
    53   28   51 1
    54   28   52 1
@<TRIPOS>MOLECULE
ZINC01557545
   39    42     0     0     0
SMALL
USER_CHARGES
1-(2-methoxy-1-naphthyl)naphthalen-2-ol
@<TRIPOS>ATOM
      1 C1         -2.3735    0.0739    0.0251 C.3       1 <0>         0.0245
      2 O1         -1.1683   -0.6937    0.0095 O.3       1 <0>        -0.3041
      3 C2          0.0021   -0.0041    0.0020 C.ar      1 <0>         0.1530
      4 C3         -0.0168    1.3908    0.0097 C.ar      1 <0>        -0.1914
      5 C4          1.1389    2.1096    0.0025 C.ar      1 <0>        -0.0597
      6 C5          2.3813    1.4508   -0.0129 C.ar      1 <0>        -0.0840
      7 C6          3.5865    2.1741   -0.0205 C.ar      1 <0>        -0.0910
      8 C7          4.7730    1.5067   -0.0350 C.ar      1 <0>        -0.1294
      9 C8          4.8118    0.1142   -0.0419 C.ar      1 <0>        -0.1004
     10 C9          3.6631   -0.6182   -0.0358 C.ar      1 <0>        -0.1168
     11 C10         2.4228    0.0353   -0.0204 C.ar      1 <0>         0.0017
     12 C11         1.2090   -0.6942   -0.0127 C.ar      1 <0>        -0.0803
     13 C12         1.2250   -2.1712   -0.0198 C.ar      1 <0>        -0.0428
     14 C13         1.2503   -2.8931    1.1983 C.ar      1 <0>        -0.0208
     15 C14         1.2608   -2.2318    2.4345 C.ar      1 <0>        -0.0993
     16 C15         1.2852   -2.9569    3.5876 C.ar      1 <0>        -0.1130
     17 C16         1.2999   -4.3496    3.5573 C.ar      1 <0>        -0.1177
     18 C17         1.2809   -5.0245    2.3751 C.ar      1 <0>        -0.1033
     19 C18         1.2603   -4.3088    1.1655 C.ar      1 <0>        -0.0599
     20 C19         1.2548   -4.9753   -0.0729 C.ar      1 <0>        -0.0882
     21 C20         1.2357   -4.2637   -1.2330 C.ar      1 <0>        -0.1379
     22 C21         1.2212   -2.8688   -1.2226 C.ar      1 <0>         0.1238
     23 O2          1.2027   -2.1865   -2.3971 O.3       1 <0>        -0.4900
     24 H1         -2.4124    0.7072   -0.8612 H         1 <0>         0.0568
     25 H2         -3.2320   -0.5978    0.0296 H         1 <0>         0.1014
     26 H3         -2.3955    0.6976    0.9187 H         1 <0>         0.0561
     27 H4         -0.9644    1.9089    0.0170 H         1 <0>         0.1333
     28 H5          1.1018    3.1890    0.0087 H         1 <0>         0.1328
     29 H6          3.5713    3.2540   -0.0153 H         1 <0>         0.1276
     30 H7          5.6975    2.0649   -0.0409 H         1 <0>         0.1237
     31 H8          5.7659   -0.3918   -0.0527 H         1 <0>         0.1236
     32 H9          3.7077   -1.6973   -0.0412 H         1 <0>         0.1233
     33 H10         1.2500   -1.1525    2.4725 H         1 <0>         0.1225
     34 H11         1.2930   -2.4449    4.5385 H         1 <0>         0.1228
     35 H12         1.3192   -4.9019    4.4852 H         1 <0>         0.1237
     36 H13         1.2924   -6.1044    2.3666 H         1 <0>         0.1282
     37 H14         1.2662   -6.0548   -0.1035 H         1 <0>         0.1321
     38 H15         1.2321   -4.7877   -2.1773 H         1 <0>         0.1314
     39 H16         2.0807   -1.9793   -2.7455 H         1 <0>         0.3877
@<TRIPOS>BOND
     1    1    2 1
     2    1   24 1
     3    1   25 1
     4    1   26 1
     5    2    3 1
     6    3   12 ar
     7    3    4 ar
     8    4    5 ar
     9    4   27 1
    10    5    6 ar
    11    5   28 1
    12    6   11 ar
    13    6    7 ar
    14    7    8 ar
    15    7   29 1
    16    8    9 ar
    17    8   30 1
    18    9   10 ar
    19    9   31 1
    20   10   11 ar
    21   10   32 1
    22   11   12 ar
    23   12   13 1
    24   13   22 ar
    25   13   14 ar
    26   14   19 ar
    27   14   15 ar
    28   15   16 ar
    29   15   33 1
    30   16   17 ar
    31   16   34 1
    32   17   18 ar
    33   17   35 1
    34   18   19 ar
    35   18   36 1
    36   19   20 ar
    37   20   21 ar
    38   20   37 1
    39   21   22 ar
    40   21   38 1
    41   22   23 1
    42   23   39 1
@<TRIPOS>MOLECULE
ZINC04692031
   50    52     0     0     0
SMALL
USER_CHARGES
4-[bis(4-hydroxy-3-methoxy-phenyl)methyl]-2-methoxy-phenol
@<TRIPOS>ATOM
      1 C1          2.6262   -1.0215    3.6853 C.3       1 <0>         0.0241
      2 O1          3.6419   -0.4771    2.8403 O.3       1 <0>        -0.3064
      3 C2          3.2292    0.1779    1.7222 C.ar      1 <0>         0.1056
      4 C3          1.8766    0.2940    1.4448 C.ar      1 <0>        -0.1882
      5 C4          1.4588    0.9606    0.3081 C.ar      1 <0>        -0.0422
      6 C5          2.3881    1.5077   -0.5570 C.ar      1 <0>        -0.1278
      7 C6          3.7389    1.4004   -0.2833 C.ar      1 <0>        -0.1043
      8 C7          4.1644    0.7335    0.8544 C.ar      1 <0>         0.0752
      9 O2          5.4931    0.6226    1.1225 O.3       1 <0>        -0.4856
     10 C8         -0.0127    1.0858    0.0080 C.3       1 <0>         0.0341
     11 C9         -0.2849    0.5875   -1.3879 C.ar      1 <0>        -0.0473
     12 C10        -1.3719    1.0700   -2.0928 C.ar      1 <0>        -0.1265
     13 C11        -1.6227    0.6202   -3.3758 C.ar      1 <0>        -0.1040
     14 C12        -0.7901   -0.3248   -3.9536 C.ar      1 <0>         0.0754
     15 C13         0.3007   -0.8147   -3.2420 C.ar      1 <0>         0.1042
     16 C14         0.5496   -0.3554   -1.9586 C.ar      1 <0>        -0.1829
     17 O3          1.1209   -1.7419   -3.8050 O.3       1 <0>        -0.3064
     18 C15         2.2211   -2.1992   -3.0161 C.3       1 <0>         0.0252
     19 O4         -1.0383   -0.7721   -5.2137 O.3       1 <0>        -0.4867
     20 C16        -0.4259    2.5311    0.1149 C.ar      1 <0>        -0.0421
     21 C17         0.0577    3.4556   -0.7921 C.ar      1 <0>        -0.1252
     22 C18        -0.3229    4.7816   -0.7017 C.ar      1 <0>        -0.1027
     23 C19        -1.1819    5.1886    0.3065 C.ar      1 <0>         0.0761
     24 C20        -1.6642    4.2590    1.2228 C.ar      1 <0>         0.1056
     25 C21        -1.2833    2.9305    1.1231 C.ar      1 <0>        -0.1874
     26 O5         -2.5079    4.6535    2.2138 O.3       1 <0>        -0.3067
     27 C22        -2.9633    3.6449    3.1179 C.3       1 <0>         0.0243
     28 O6         -1.5533    6.4935    0.3999 O.3       1 <0>        -0.4865
     29 H1          2.0352   -1.7447    3.1234 H         1 <0>         0.0558
     30 H2          3.0900   -1.5159    4.5388 H         1 <0>         0.1028
     31 H3          1.9785   -0.2189    4.0383 H         1 <0>         0.0561
     32 H4          1.1487   -0.1366    2.1165 H         1 <0>         0.1331
     33 H5          2.0579    2.0238   -1.4464 H         1 <0>         0.1311
     34 H6          4.4627    1.8325   -0.9584 H         1 <0>         0.1380
     35 H7          5.9058   -0.1666    0.7459 H         1 <0>         0.3871
     36 H8         -0.5812    0.4915    0.7233 H         1 <0>         0.1010
     37 H9         -2.0241    1.8033   -1.6419 H         1 <0>         0.1298
     38 H10        -2.4699    1.0021   -3.9260 H         1 <0>         0.1373
     39 H11         1.3953   -0.7343   -1.4040 H         1 <0>         0.1351
     40 H12         2.8629   -1.3551   -2.7638 H         1 <0>         0.0563
     41 H13         1.8463   -2.6571   -2.1007 H         1 <0>         0.0541
     42 H14         2.7933   -2.9343   -3.5821 H         1 <0>         0.1020
     43 H15        -1.6148   -1.5476   -5.2493 H         1 <0>         0.3872
     44 H16         0.7308    3.1405   -1.5757 H         1 <0>         0.1300
     45 H17         0.0528    5.5010   -1.4142 H         1 <0>         0.1379
     46 H18        -1.6559    2.2072    1.8333 H         1 <0>         0.1326
     47 H19        -3.5018    2.8763    2.5635 H         1 <0>         0.0565
     48 H20        -2.1077    3.1965    3.6229 H         1 <0>         0.0551
     49 H21        -3.6277    4.0926    3.8570 H         1 <0>         0.1024
     50 H22        -0.9688    7.0302    0.9526 H         1 <0>         0.3878
@<TRIPOS>BOND
     1    1    2 1
     2    1   29 1
     3    1   30 1
     4    1   31 1
     5    2    3 1
     6    3    8 ar
     7    3    4 ar
     8    4    5 ar
     9    4   32 1
    10    5    6 ar
    11    5   10 1
    12    6    7 ar
    13    6   33 1
    14    7    8 ar
    15    7   34 1
    16    8    9 1
    17    9   35 1
    18   10   11 1
    19   10   20 1
    20   10   36 1
    21   11   16 ar
    22   11   12 ar
    23   12   13 ar
    24   12   37 1
    25   13   14 ar
    26   13   38 1
    27   14   15 ar
    28   14   19 1
    29   15   16 ar
    30   15   17 1
    31   16   39 1
    32   17   18 1
    33   18   40 1
    34   18   41 1
    35   18   42 1
    36   19   43 1
    37   20   25 ar
    38   20   21 ar
    39   21   22 ar
    40   21   44 1
    41   22   23 ar
    42   22   45 1
    43   23   24 ar
    44   23   28 1
    45   24   25 ar
    46   24   26 1
    47   25   46 1
    48   26   27 1
    49   27   47 1
    50   27   48 1
    51   27   49 1
    52   28   50 1
@<TRIPOS>MOLECULE
ZINC01625619
   41    42     0     0     0
SMALL
USER_CHARGES
2,6-dimethoxy-4-[2-(4-methoxyphenyl)ethyl]phenol
@<TRIPOS>ATOM
      1 C1          1.1604   11.2232   -5.1837 C.3       1 <0>         0.0268
      2 O1          1.3062    9.8208   -5.4160 O.3       1 <0>        -0.3183
      3 C2          0.7858    8.9832   -4.4809 C.ar      1 <0>         0.1237
      4 C3          0.8915    7.6094   -4.6428 C.ar      1 <0>        -0.1494
      5 C4          0.3621    6.7601   -3.6905 C.ar      1 <0>        -0.0759
      6 C5         -0.2728    7.2781   -2.5769 C.ar      1 <0>        -0.1211
      7 C6         -0.3845    8.6468   -2.4160 C.ar      1 <0>        -0.0756
      8 C7          0.1482    9.5004   -3.3625 C.ar      1 <0>        -0.2059
      9 C8         -0.8495    6.3493   -1.5397 C.3       1 <0>        -0.0691
     10 C9          0.2110    6.0479   -0.4789 C.3       1 <0>        -0.0763
     11 C10        -0.3657    5.1191    0.5583 C.ar      1 <0>        -0.0095
     12 C11        -0.9998    5.6377    1.6717 C.ar      1 <0>        -0.2289
     13 C12        -1.5314    4.7865    2.6286 C.ar      1 <0>         0.1445
     14 C13        -1.4309    3.4101    2.4642 C.ar      1 <0>         0.0338
     15 C14        -0.7875    2.8927    1.3463 C.ar      1 <0>         0.1449
     16 C15        -0.2586    3.7508    0.3940 C.ar      1 <0>        -0.2286
     17 O2         -0.6816    1.5467    1.1837 O.3       1 <0>        -0.3037
     18 C16        -0.0127    1.0858    0.0080 C.3       1 <0>         0.0249
     19 O3         -1.9566    2.5712    3.3981 O.3       1 <0>        -0.4733
     20 O4         -2.1556    5.2977    3.7234 O.3       1 <0>        -0.3037
     21 C17        -2.2275    6.7214    3.8234 C.3       1 <0>         0.0250
     22 H1          0.1012   11.4733   -5.1236 H         1 <0>         0.0558
     23 H2          1.6503   11.4893   -4.2471 H         1 <0>         0.0558
     24 H3          1.6184   11.7768   -6.0034 H         1 <0>         0.1012
     25 H4          1.3870    7.2043   -5.5127 H         1 <0>         0.1309
     26 H5          0.4444    5.6905   -3.8159 H         1 <0>         0.1289
     27 H6         -0.8851    9.0489   -1.5476 H         1 <0>         0.1241
     28 H7          0.0647   10.5695   -3.2342 H         1 <0>         0.1279
     29 H8         -1.1604    5.4199   -2.0169 H         1 <0>         0.0748
     30 H9         -1.7113    6.8215   -1.0680 H         1 <0>         0.0739
     31 H10         0.5219    6.9773   -0.0016 H         1 <0>         0.0771
     32 H11         1.0728    5.5757   -0.9505 H         1 <0>         0.0779
     33 H12        -1.0811    6.7074    1.7966 H         1 <0>         0.1342
     34 H13         0.2374    3.3495   -0.4774 H         1 <0>         0.1347
     35 H14         0.0021   -0.0041    0.0020 H         1 <0>         0.1034
     36 H15         1.0099    1.4631    0.0003 H         1 <0>         0.0574
     37 H16        -0.5399    1.4469   -0.8751 H         1 <0>         0.0579
     38 H17        -1.3415    2.3359    4.1062 H         1 <0>         0.3814
     39 H18        -2.7488    6.9953    4.7407 H         1 <0>         0.1033
     40 H19        -1.2195    7.1358    3.8408 H         1 <0>         0.0572
     41 H20        -2.7691    7.1191    2.9651 H         1 <0>         0.0577
@<TRIPOS>BOND
     1    1    2 1
     2    1   22 1
     3    1   23 1
     4    1   24 1
     5    2    3 1
     6    3    8 ar
     7    3    4 ar
     8    4    5 ar
     9    4   25 1
    10    5    6 ar
    11    5   26 1
    12    6    7 ar
    13    6    9 1
    14    7    8 ar
    15    7   27 1
    16    8   28 1
    17    9   10 1
    18    9   29 1
    19    9   30 1
    20   10   11 1
    21   10   31 1
    22   10   32 1
    23   11   16 ar
    24   11   12 ar
    25   12   13 ar
    26   12   33 1
    27   13   14 ar
    28   13   20 1
    29   14   15 ar
    30   14   19 1
    31   15   16 ar
    32   15   17 1
    33   16   34 1
    34   17   18 1
    35   18   35 1
    36   18   36 1
    37   18   37 1
    38   19   38 1
    39   20   21 1
    40   21   39 1
    41   21   40 1
    42   21   41 1
@<TRIPOS>MOLECULE
ZINC05699410
   46    49     0     0     0
SMALL
USER_CHARGES
4-benzhydryl-2-methoxy-naphthalen-1-ol
@<TRIPOS>ATOM
      1 C1         -3.6577    6.5091    0.2255 C.3       1 <0>         0.0231
      2 O1         -3.4994    5.0896    0.2684 O.3       1 <0>        -0.3044
      3 C2         -2.2276    4.6086    0.2292 C.ar      1 <0>         0.1064
      4 C3         -1.1546    5.4983    0.1502 C.ar      1 <0>        -0.1672
      5 C4          0.1287    5.0469    0.1095 C.ar      1 <0>        -0.0257
      6 C5          0.3888    3.6665    0.1461 C.ar      1 <0>        -0.0598
      7 C6          1.7044    3.1729    0.1050 C.ar      1 <0>        -0.1013
      8 C7          1.9218    1.8300    0.1427 C.ar      1 <0>        -0.1194
      9 C8          0.8581    0.9327    0.2220 C.ar      1 <0>        -0.1068
     10 C9         -0.4290    1.3738    0.2580 C.ar      1 <0>        -0.1046
     11 C10        -0.6924    2.7534    0.2263 C.ar      1 <0>        -0.0354
     12 C11        -2.0111    3.2459    0.2675 C.ar      1 <0>         0.0697
     13 O2         -3.0618    2.3866    0.3440 O.3       1 <0>        -0.4779
     14 C12         1.2703    6.0271    0.0252 C.3       1 <0>         0.0267
     15 C13         1.0594    6.9439   -1.1521 C.ar      1 <0>        -0.0788
     16 C14         0.3058    6.5210   -2.2311 C.ar      1 <0>        -0.1101
     17 C15         0.1083    7.3638   -3.3089 C.ar      1 <0>        -0.1188
     18 C16         0.6728    8.6256   -3.3121 C.ar      1 <0>        -0.1188
     19 C17         1.4311    9.0463   -2.2356 C.ar      1 <0>        -0.1190
     20 C18         1.6243    8.2056   -1.1555 C.ar      1 <0>        -0.1059
     21 C19         1.3277    6.8414    1.2920 C.ar      1 <0>        -0.0714
     22 C20         0.3197    7.7421    1.5810 C.ar      1 <0>        -0.1073
     23 C21         0.3700    8.4855    2.7454 C.ar      1 <0>        -0.1179
     24 C22         1.4333    8.3355    3.6158 C.ar      1 <0>        -0.1187
     25 C23         2.4442    7.4389    3.3241 C.ar      1 <0>        -0.1162
     26 C24         2.3913    6.6917    2.1623 C.ar      1 <0>        -0.1118
     27 H1         -3.1487    6.9574    1.0787 H         1 <0>         0.0549
     28 H2         -3.2270    6.8950   -0.6985 H         1 <0>         0.0564
     29 H3         -4.7183    6.7577    0.2635 H         1 <0>         0.1032
     30 H4         -1.3457    6.5608    0.1213 H         1 <0>         0.1366
     31 H5          2.5386    3.8561    0.0435 H         1 <0>         0.1290
     32 H6          2.9337    1.4539    0.1110 H         1 <0>         0.1249
     33 H7          1.0580   -0.1282    0.2508 H         1 <0>         0.1256
     34 H8         -1.2435    0.6669    0.3146 H         1 <0>         0.1321
     35 H9         -3.3267    2.1687    1.2481 H         1 <0>         0.3844
     36 H10         2.2070    5.4840   -0.1004 H         1 <0>         0.1053
     37 H11        -0.1318    5.5337   -2.2303 H         1 <0>         0.1221
     38 H12        -0.4838    7.0349   -4.1501 H         1 <0>         0.1220
     39 H13         0.5216    9.2827   -4.1558 H         1 <0>         0.1216
     40 H14         1.8724   10.0321   -2.2383 H         1 <0>         0.1223
     41 H15         2.2167    8.5343   -0.3145 H         1 <0>         0.1226
     42 H16        -0.5090    7.8623    0.8989 H         1 <0>         0.1177
     43 H17        -0.4196    9.1862    2.9731 H         1 <0>         0.1219
     44 H18         1.4744    8.9190    4.5237 H         1 <0>         0.1222
     45 H19         3.2751    7.3219    4.0040 H         1 <0>         0.1237
     46 H20         3.1811    5.9912    1.9343 H         1 <0>         0.1226
@<TRIPOS>BOND
     1    1    2 1
     2    1   27 1
     3    1   28 1
     4    1   29 1
     5    2    3 1
     6    3   12 ar
     7    3    4 ar
     8    4    5 ar
     9    4   30 1
    10    5    6 ar
    11    5   14 1
    12    6   11 ar
    13    6    7 ar
    14    7    8 ar
    15    7   31 1
    16    8    9 ar
    17    8   32 1
    18    9   10 ar
    19    9   33 1
    20   10   11 ar
    21   10   34 1
    22   11   12 ar
    23   12   13 1
    24   13   35 1
    25   14   15 1
    26   14   21 1
    27   14   36 1
    28   15   20 ar
    29   15   16 ar
    30   16   17 ar
    31   16   37 1
    32   17   18 ar
    33   17   38 1
    34   18   19 ar
    35   18   39 1
    36   19   20 ar
    37   19   40 1
    38   20   41 1
    39   21   26 ar
    40   21   22 ar
    41   22   23 ar
    42   22   42 1
    43   23   24 ar
    44   23   43 1
    45   24   25 ar
    46   24   44 1
    47   25   26 ar
    48   25   45 1
    49   26   46 1
@<TRIPOS>MOLECULE
ZINC16978836
   42    44     0     0     0
SMALL
USER_CHARGES
1-(4-methoxyphenyl)-1-phenyl-N-(p-tolyl)methanimine
@<TRIPOS>ATOM
      1 C1         -5.2997   -0.3903    3.2119 C.3       1 <0>        -0.1163
      2 C2         -4.1364    0.3027    2.5504 C.ar      1 <0>        -0.0968
      3 C3         -3.3512    1.1781    3.2799 C.ar      1 <0>        -0.1043
      4 C4         -2.2850    1.8160    2.6815 C.ar      1 <0>        -0.1202
      5 C5         -1.9982    1.5763    1.3345 C.ar      1 <0>         0.0905
      6 C6         -2.7994    0.6950    0.6027 C.ar      1 <0>        -0.1307
      7 C7         -3.8584    0.0599    1.2165 C.ar      1 <0>        -0.1015
      8 N1         -0.9441    2.2041    0.7352 N.2       1 <0>        -0.4787
      9 C8          0.0089    1.4962    0.1741 C.2       1 <0>         0.2819
     10 C9          0.0182    0.0242    0.3164 C.ar      1 <0>        -0.1075
     11 C10         0.3079   -0.7847   -0.7839 C.ar      1 <0>        -0.0927
     12 C11         0.3200   -2.1569   -0.6430 C.ar      1 <0>        -0.1230
     13 C12         0.0351   -2.7322    0.5827 C.ar      1 <0>        -0.1015
     14 C13        -0.2580   -1.9364    1.6760 C.ar      1 <0>        -0.1182
     15 C14        -0.2683   -0.5627    1.5501 C.ar      1 <0>        -0.0817
     16 C15         1.0684    2.1697   -0.6044 C.ar      1 <0>        -0.1076
     17 C16         2.1856    1.4499   -1.0358 C.ar      1 <0>        -0.0454
     18 C17         3.1690    2.0806   -1.7656 C.ar      1 <0>        -0.2163
     19 C18         3.0563    3.4331   -2.0638 C.ar      1 <0>         0.1514
     20 C19         1.9493    4.1538   -1.6321 C.ar      1 <0>        -0.1609
     21 C20         0.9589    3.5294   -0.9064 C.ar      1 <0>        -0.0262
     22 O1          4.0301    4.0521   -2.7793 O.3       1 <0>        -0.3134
     23 C21         5.1402    3.2522   -3.1915 C.3       1 <0>         0.0209
     24 H1         -5.3638   -0.0757    4.2640 H         1 <0>         0.0654
     25 H2         -5.1536   -1.4795    3.1631 H         1 <0>         0.0689
     26 H3         -6.2308   -0.1215    2.6914 H         1 <0>         0.0693
     27 H4         -3.5738    1.3620    4.3206 H         1 <0>         0.1253
     28 H5         -1.6728    2.4987    3.2522 H         1 <0>         0.1255
     29 H6         -2.5866    0.5083   -0.4396 H         1 <0>         0.1182
     30 H7         -4.4754   -0.6248    0.6537 H         1 <0>         0.1220
     31 H8          0.5260   -0.3370   -1.7422 H         1 <0>         0.1292
     32 H9          0.5477   -2.7837   -1.4925 H         1 <0>         0.1275
     33 H10         0.0419   -3.8072    0.6867 H         1 <0>         0.1254
     34 H11        -0.4795   -2.3917    2.6300 H         1 <0>         0.1256
     35 H12        -0.4980    0.0574    2.4041 H         1 <0>         0.1233
     36 H13         2.2761    0.3998   -0.8006 H         1 <0>         0.1348
     37 H14         4.0309    1.5240   -2.1029 H         1 <0>         0.1343
     38 H15         1.8652    5.2047   -1.8663 H         1 <0>         0.1371
     39 H16         0.0987    4.0901   -0.5715 H         1 <0>         0.1433
     40 H17         5.8494    3.8734   -3.7582 H         1 <0>         0.1045
     41 H18         4.7829    2.4296   -3.8285 H         1 <0>         0.0593
     42 H19         5.6428    2.8379   -2.3051 H         1 <0>         0.0593
@<TRIPOS>BOND
     1    1    2 1
     2    1   24 1
     3    1   25 1
     4    1   26 1
     5    2    7 ar
     6    2    3 ar
     7    3    4 ar
     8    3   27 1
     9    4    5 ar
    10    4   28 1
    11    5    6 ar
    12    5    8 1
    13    6    7 ar
    14    6   29 1
    15    7   30 1
    16    8    9 2
    17    9   10 1
    18    9   16 1
    19   10   15 ar
    20   10   11 ar
    21   11   12 ar
    22   11   31 1
    23   12   13 ar
    24   12   32 1
    25   13   14 ar
    26   13   33 1
    27   14   15 ar
    28   14   34 1
    29   15   35 1
    30   16   21 ar
    31   16   17 ar
    32   17   18 ar
    33   17   36 1
    34   18   19 ar
    35   18   37 1
    36   19   20 ar
    37   19   22 1
    38   20   21 ar
    39   20   38 1
    40   21   39 1
    41   22   23 1
    42   23   40 1
    43   23   41 1
    44   23   42 1
