@<TRIPOS>MOLECULE
ZINC03815700
   43    46     0     0     0
SMALL
USER_CHARGES

@<TRIPOS>ATOM
      1 C1         -0.4417    2.5108    0.1274 C.3       1 <0>        -0.4980
      2 S1         -0.2285    0.7138    0.0013 S.o       1 <0>         1.3317
      3 O1          0.3381    0.2184    1.2066 O.2       1 <0>        -0.8500
      4 C2         -1.8753    0.0872    0.0153 C.ar      1 <0>        -0.4539
      5 C3         -2.4807   -0.2316    1.2179 C.ar      1 <0>        -0.0505
      6 C4         -3.7698   -0.7226    1.2359 C.ar      1 <0>        -0.0905
      7 C5         -4.4635   -0.8973    0.0374 C.ar      1 <0>         0.0183
      8 C6         -3.8471   -0.5733   -1.1722 C.ar      1 <0>        -0.1282
      9 C7         -2.5593   -0.0786   -1.1759 C.ar      1 <0>        -0.0372
     10 C8         -5.8450   -1.4235    0.0492 C.2       1 <0>         0.2539
     11 N1         -6.6187   -1.6414   -1.0552 N.pl3     1 <0>        -0.5494
     12 H1         -6.3641   -1.4808   -1.9773 H         1 <0>         0.4258
     13 C9         -7.8254   -2.1307   -0.6157 C.2       1 <0>         0.0559
     14 C10        -7.7421   -2.1946    0.7659 C.2       1 <0>         0.0600
     15 N2         -6.5217   -1.7612    1.1224 N.2       1 <0>        -0.4460
     16 C11        -8.8052   -2.6624    1.6841 C.ar      1 <0>         0.0397
     17 C12        -9.5683   -3.7960    1.3824 C.ar      1 <0>        -0.1547
     18 C13       -10.5481   -4.1969    2.2660 C.ar      1 <0>         0.1020
     19 N3        -10.7699   -3.5273    3.3814 N.ar      1 <0>        -0.4829
     20 C14       -10.0734   -2.4536    3.7038 C.ar      1 <0>         0.1009
     21 C15        -9.0708   -1.9865    2.8804 C.ar      1 <0>        -0.1469
     22 C16        -8.9814   -2.5126   -1.4503 C.ar      1 <0>        -0.0400
     23 C17       -10.2631   -2.0665   -1.1192 C.ar      1 <0>        -0.0563
     24 C18       -11.3392   -2.4265   -1.9026 C.ar      1 <0>        -0.1471
     25 C19       -11.1511   -3.2299   -3.0163 C.ar      1 <0>         0.1129
     26 C20        -9.8817   -3.6756   -3.3498 C.ar      1 <0>        -0.1491
     27 C21        -8.7972   -3.3169   -2.5775 C.ar      1 <0>        -0.0765
     28 F1        -12.2093   -3.5802   -3.7797 F         1 <0>        -0.1335
     29 H2          0.5355    2.9936    0.1264 H         1 <0>         0.1086
     30 H3         -1.0243    2.8681   -0.7218 H         1 <0>         0.1118
     31 H4         -0.9645    2.7506    1.0533 H         1 <0>         0.0820
     32 H5         -1.9427   -0.0960    2.1446 H         1 <0>         0.1340
     33 H6         -4.2409   -0.9717    2.1752 H         1 <0>         0.1409
     34 H7         -4.3783   -0.7065   -2.1030 H         1 <0>         0.1252
     35 H8         -2.0825    0.1760   -2.1109 H         1 <0>         0.1447
     36 H9         -9.3927   -4.3483    0.4711 H         1 <0>         0.1333
     37 H10       -11.1422   -5.0705    2.0420 H         1 <0>         0.1579
     38 H11       -10.2890   -1.9361    4.6268 H         1 <0>         0.1588
     39 H12        -8.5017   -1.1100    3.1527 H         1 <0>         0.1379
     40 H13       -10.4110   -1.4411   -0.2513 H         1 <0>         0.1357
     41 H14       -12.3306   -2.0822   -1.6477 H         1 <0>         0.1434
     42 H15        -9.7412   -4.3013   -4.2187 H         1 <0>         0.1424
     43 H16        -7.8079   -3.6609   -2.8410 H         1 <0>         0.1331
@<TRIPOS>BOND
     1    1    2 1
     2    1   29 1
     3    1   30 1
     4    1   31 1
     5    2    3 2
     6    2    4 1
     7    4    9 ar
     8    4    5 ar
     9    5    6 ar
    10    5   32 1
    11    6    7 ar
    12    6   33 1
    13    7    8 ar
    14    7   10 1
    15    8    9 ar
    16    8   34 1
    17    9   35 1
    18   10   15 2
    19   10   11 1
    20   11   12 1
    21   11   13 1
    22   13   14 2
    23   13   22 1
    24   14   15 1
    25   14   16 1
    26   16   21 ar
    27   16   17 ar
    28   17   18 ar
    29   17   36 1
    30   18   19 ar
    31   18   37 1
    32   19   20 ar
    33   20   21 ar
    34   20   38 1
    35   21   39 1
    36   22   27 ar
    37   22   23 ar
    38   23   24 ar
    39   23   40 1
    40   24   25 ar
    41   24   41 1
    42   25   26 ar
    43   25   28 1
    44   26   27 ar
    45   26   42 1
    46   27   43 1
@<TRIPOS>MOLECULE
ZINC18274812
   43    46     0     0     0
SMALL
USER_CHARGES

@<TRIPOS>ATOM
      1 C1          0.0458    2.4645   -0.3714 C.3       1 <0>        -0.4977
      2 S1          0.1034    0.6635   -0.1624 S.o       1 <0>         1.3328
      3 O1          0.9995    0.3374    0.8912 O.2       1 <0>        -0.8522
      4 C2          0.9248    0.0922   -1.6127 C.ar      1 <0>        -0.4531
      5 C3          0.1894   -0.2245   -2.7411 C.ar      1 <0>        -0.0385
      6 C4          0.8263   -0.6720   -3.8801 C.ar      1 <0>        -0.0921
      7 C5          2.2157   -0.8050   -3.8925 C.ar      1 <0>         0.0171
      8 C6          2.9515   -0.4838   -2.7508 C.ar      1 <0>        -0.1253
      9 C7          2.3027   -0.0324   -1.6200 C.ar      1 <0>        -0.0497
     10 C8          2.9049   -1.2844   -5.1094 C.2       1 <0>         0.2582
     11 N1          4.2515   -1.4590   -5.2384 N.pl3     1 <0>        -0.5486
     12 H1          4.9216   -1.2936   -4.5568 H         1 <0>         0.4252
     13 C9          4.4814   -1.9147   -6.5171 C.2       1 <0>         0.0337
     14 C10         3.2416   -2.0017   -7.1294 C.2       1 <0>         0.0807
     15 N2          2.3171   -1.6154   -6.2370 N.2       1 <0>        -0.4488
     16 C11         2.9826   -2.4473   -8.5186 C.ar      1 <0>        -0.0206
     17 C12         3.6496   -3.5590   -9.0325 C.ar      1 <0>        -0.0694
     18 C13         3.4051   -3.9700  -10.3265 C.ar      1 <0>        -0.1511
     19 C14         2.4988   -3.2799  -11.1154 C.ar      1 <0>         0.1060
     20 C15         1.8337   -2.1747  -10.6093 C.ar      1 <0>        -0.1526
     21 C16         2.0668   -1.7598   -9.3145 C.ar      1 <0>        -0.0599
     22 F1          2.2634   -3.6856  -12.3824 F         1 <0>        -0.1371
     23 C17         5.7881   -2.2443   -7.1163 C.ar      1 <0>         0.0226
     24 C18         6.1399   -1.7662   -8.3862 C.ar      1 <0>        -0.1423
     25 C19         7.3716   -2.0992   -8.9074 C.ar      1 <0>         0.1081
     26 N3          8.2131   -2.8565   -8.2286 N.ar      1 <0>        -0.4784
     27 C20         7.9224   -3.3278   -7.0303 C.ar      1 <0>         0.1071
     28 C21         6.7158   -3.0398   -6.4296 C.ar      1 <0>        -0.1652
     29 H2          1.0609    2.8540   -0.4489 H         1 <0>         0.0810
     30 H3         -0.5069    2.7075   -1.2790 H         1 <0>         0.1130
     31 H4         -0.4514    2.9143    0.4881 H         1 <0>         0.1088
     32 H5         -0.8856   -0.1215   -2.7301 H         1 <0>         0.1470
     33 H6          0.2512   -0.9192   -4.7602 H         1 <0>         0.1462
     34 H7          4.0268   -0.5845   -2.7539 H         1 <0>         0.1202
     35 H8          2.8713    0.2203   -0.7373 H         1 <0>         0.1322
     36 H9          4.3566   -4.0971   -8.4186 H         1 <0>         0.1287
     37 H10         3.9211   -4.8308  -10.7253 H         1 <0>         0.1387
     38 H11         1.1282   -1.6400  -11.2280 H         1 <0>         0.1401
     39 H12         1.5446   -0.9009   -8.9194 H         1 <0>         0.1377
     40 H13         5.4562   -1.1467   -8.9476 H         1 <0>         0.1400
     41 H14         7.6520   -1.7358   -9.8850 H         1 <0>         0.1626
     42 H15         8.6418   -3.9441   -6.5116 H         1 <0>         0.1610
     43 H16         6.4868   -3.4248   -5.4469 H         1 <0>         0.1340
@<TRIPOS>BOND
     1    1    2 1
     2    1   29 1
     3    1   30 1
     4    1   31 1
     5    2    3 2
     6    2    4 1
     7    4    9 ar
     8    4    5 ar
     9    5    6 ar
    10    5   32 1
    11    6    7 ar
    12    6   33 1
    13    7    8 ar
    14    7   10 1
    15    8    9 ar
    16    8   34 1
    17    9   35 1
    18   10   15 2
    19   10   11 1
    20   11   12 1
    21   11   13 1
    22   13   14 2
    23   13   23 1
    24   14   15 1
    25   14   16 1
    26   16   21 ar
    27   16   17 ar
    28   17   18 ar
    29   17   36 1
    30   18   19 ar
    31   18   37 1
    32   19   20 ar
    33   19   22 1
    34   20   21 ar
    35   20   38 1
    36   21   39 1
    37   23   28 ar
    38   23   24 ar
    39   24   25 ar
    40   24   40 1
    41   25   26 ar
    42   25   41 1
    43   26   27 ar
    44   27   28 ar
    45   27   42 1
    46   28   43 1
@<TRIPOS>MOLECULE
ZINC18274812
   43    46     0     0     0
SMALL
USER_CHARGES

@<TRIPOS>ATOM
      1 C1          0.0761    2.5207   -0.3946 C.3       1 <0>        -0.4977
      2 S1          0.1067    0.7194   -0.1829 S.o       1 <0>         1.3328
      3 O1          0.9925    0.3819    0.8757 O.2       1 <0>        -0.8523
      4 C2          0.9273    0.1342   -1.6283 C.ar      1 <0>        -0.4535
      5 C3          0.1933   -0.1734   -2.7600 C.ar      1 <0>        -0.0382
      6 C4          0.8295   -0.6320   -3.8950 C.ar      1 <0>        -0.0929
      7 C5          2.2169   -0.7850   -3.8999 C.ar      1 <0>         0.0183
      8 C6          2.9514   -0.4724   -2.7550 C.ar      1 <0>        -0.1257
      9 C7          2.3033   -0.0102   -1.6282 C.ar      1 <0>        -0.0496
     10 C8          2.9053   -1.2765   -5.1125 C.2       1 <0>         0.2536
     11 N1          4.2517   -1.4710   -5.2346 N.pl3     1 <0>        -0.5504
     12 H1          4.9205   -1.3136   -4.5499 H         1 <0>         0.4255
     13 C9          4.4817   -1.9314   -6.5089 C.2       1 <0>         0.0556
     14 C10         3.2446   -2.0022   -7.1288 C.2       1 <0>         0.0602
     15 N2          2.3192   -1.6008   -6.2417 N.2       1 <0>        -0.4443
     16 C11         2.9879   -2.4463   -8.5176 C.ar      1 <0>         0.0401
     17 C12         3.6482   -3.5593   -9.0502 C.ar      1 <0>        -0.1549
     18 C13         3.3789   -3.9386  -10.3482 C.ar      1 <0>         0.1021
     19 N3          2.5133   -3.2676  -11.0845 N.ar      1 <0>        -0.4831
     20 C14         1.8693   -2.2129  -10.6212 C.ar      1 <0>         0.1008
     21 C15         2.0741   -1.7682   -9.3321 C.ar      1 <0>        -0.1466
     22 C16         5.7882   -2.2812   -7.1001 C.ar      1 <0>        -0.0406
     23 C17         6.1350   -1.8042   -8.3665 C.ar      1 <0>        -0.0561
     24 C18         7.3568   -2.1344   -8.9137 C.ar      1 <0>        -0.1471
     25 C19         8.2399   -2.9383   -8.2101 C.ar      1 <0>         0.1131
     26 C20         7.9012   -3.4146   -6.9533 C.ar      1 <0>        -0.1492
     27 C21         6.6848   -3.0860   -6.3932 C.ar      1 <0>        -0.0767
     28 F1          9.4352   -3.2593   -8.7516 F         1 <0>        -0.1334
     29 H2          1.0971    2.8954   -0.4674 H         1 <0>         0.0810
     30 H3         -0.4683    2.7703   -1.3054 H         1 <0>         0.1130
     31 H4         -0.4189    2.9788    0.4616 H         1 <0>         0.1087
     32 H5         -0.8802   -0.0546   -2.7549 H         1 <0>         0.1468
     33 H6          0.2554   -0.8725   -4.7775 H         1 <0>         0.1457
     34 H7          4.0251   -0.5889   -2.7522 H         1 <0>         0.1204
     35 H8          2.8708    0.2356   -0.7429 H         1 <0>         0.1321
     36 H9          4.3583   -4.1127   -8.4536 H         1 <0>         0.1329
     37 H10         3.8834   -4.7962  -10.7681 H         1 <0>         0.1577
     38 H11         1.1696   -1.6933  -11.2591 H         1 <0>         0.1590
     39 H12         1.5402   -0.9072   -8.9580 H         1 <0>         0.1385
     40 H13         5.4474   -1.1783   -8.9159 H         1 <0>         0.1360
     41 H14         7.6261   -1.7662   -9.8926 H         1 <0>         0.1436
     42 H15         8.5933   -4.0406   -6.4097 H         1 <0>         0.1423
     43 H16         6.4240   -3.4537   -5.4118 H         1 <0>         0.1327
@<TRIPOS>BOND
     1    1    2 1
     2    1   29 1
     3    1   30 1
     4    1   31 1
     5    2    3 2
     6    2    4 1
     7    4    9 ar
     8    4    5 ar
     9    5    6 ar
    10    5   32 1
    11    6    7 ar
    12    6   33 1
    13    7    8 ar
    14    7   10 1
    15    8    9 ar
    16    8   34 1
    17    9   35 1
    18   10   15 2
    19   10   11 1
    20   11   12 1
    21   11   13 1
    22   13   14 2
    23   13   22 1
    24   14   15 1
    25   14   16 1
    26   16   21 ar
    27   16   17 ar
    28   17   18 ar
    29   17   36 1
    30   18   19 ar
    31   18   37 1
    32   19   20 ar
    33   20   21 ar
    34   20   38 1
    35   21   39 1
    36   22   27 ar
    37   22   23 ar
    38   23   24 ar
    39   23   40 1
    40   24   25 ar
    41   24   41 1
    42   25   26 ar
    43   25   28 1
    44   26   27 ar
    45   26   42 1
    46   27   43 1
@<TRIPOS>MOLECULE
ZINC01546302
   56    59     0     0     0
SMALL
USER_CHARGES
4-[4-(4-fluorophenyl)-1-(3-phenylpropyl)-5-(4-pyridyl)imidazol-2-yl]but-3-yn-1-ol
@<TRIPOS>ATOM
      1 C1         -5.7818    0.5805    5.4994 C.ar      1 <0>        -0.1212
      2 C2         -5.9543    1.7910    4.8545 C.ar      1 <0>        -0.1165
      3 C3         -5.5233    1.9469    3.5504 C.ar      1 <0>        -0.1154
      4 C4         -4.9202    0.8922    2.8910 C.ar      1 <0>        -0.0856
      5 C5         -4.7529   -0.3200    3.5340 C.ar      1 <0>        -0.1163
      6 C6         -5.1791   -0.4743    4.8399 C.ar      1 <0>        -0.1172
      7 C7         -4.4507    1.0620    1.4691 C.3       1 <0>        -0.0754
      8 C8         -3.0032    1.5576    1.4657 C.3       1 <0>        -0.1273
      9 C9         -2.5266    1.7301    0.0221 C.3       1 <0>         0.0954
     10 N1         -1.1405    2.2046    0.0188 N.pl3     1 <0>        -0.4306
     11 C10        -0.0173    1.4278    0.0099 C.2       1 <0>         0.3301
     12 N2          1.0441    2.2054    0.0039 N.2       1 <0>        -0.4441
     13 C11         0.6599    3.4902    0.0137 C.2       1 <0>         0.0795
     14 C12        -0.7257    3.5174    0.0265 C.2       1 <0>         0.0332
     15 C13        -1.5856    4.7154    0.0406 C.ar      1 <0>         0.0296
     16 C14        -2.7013    4.8118   -0.8027 C.ar      1 <0>        -0.1694
     17 C15        -3.4795    5.9483   -0.7530 C.ar      1 <0>         0.1082
     18 N3         -3.1808    6.9396    0.0658 N.ar      1 <0>        -0.4787
     19 C16        -2.1375    6.8924    0.8731 C.ar      1 <0>         0.1089
     20 C17        -1.3071    5.7925    0.8936 C.ar      1 <0>        -0.1442
     21 C18         1.5566    4.6699    0.0116 C.ar      1 <0>        -0.0198
     22 C19         1.1894    5.8264   -0.6757 C.ar      1 <0>        -0.0719
     23 C20         2.0251    6.9239   -0.6703 C.ar      1 <0>        -0.1512
     24 C21         3.2327    6.8746    0.0075 C.ar      1 <0>         0.1051
     25 C22         3.6043    5.7260    0.6875 C.ar      1 <0>        -0.1525
     26 C23         2.7729    4.6251    0.6923 C.ar      1 <0>        -0.0594
     27 F1          4.0506    7.9499    0.0049 F         1 <0>        -0.1374
     28 C24         0.0021   -0.0041    0.0020 C.1       1 <0>        -0.1182
     29 C25         0.0180   -1.1779   -0.0044 C.1       1 <0>        -0.0923
     30 C26         0.0380   -2.6498   -0.0125 C.3       1 <0>        -0.0122
     31 C27        -1.3974   -3.1794   -0.0017 C.3       1 <0>         0.0816
     32 O1         -1.3780   -4.6082   -0.0095 O.3       1 <0>        -0.5711
     33 H1         -6.1182    0.4588    6.5185 H         1 <0>         0.1227
     34 H2         -6.4254    2.6150    5.3697 H         1 <0>         0.1230
     35 H3         -5.6580    2.8926    3.0465 H         1 <0>         0.1203
     36 H4         -4.2857   -1.1454    3.0173 H         1 <0>         0.1196
     37 H5         -5.0447   -1.4202    5.3436 H         1 <0>         0.1228
     38 H6         -5.0848    1.7889    0.9615 H         1 <0>         0.0776
     39 H7         -4.5083    0.1049    0.9507 H         1 <0>         0.0770
     40 H8         -2.3691    0.8307    1.9733 H         1 <0>         0.0745
     41 H9         -2.9456    2.5147    1.9841 H         1 <0>         0.0744
     42 H10        -3.1607    2.4569   -0.4855 H         1 <0>         0.1013
     43 H11        -2.5841    0.7730   -0.4963 H         1 <0>         0.0999
     44 H12        -2.9493    4.0065   -1.4782 H         1 <0>         0.1337
     45 H13        -4.3433    6.0307   -1.3961 H         1 <0>         0.1602
     46 H14        -1.9315    7.7274    1.5264 H         1 <0>         0.1621
     47 H15        -0.4552    5.7609    1.5567 H         1 <0>         0.1403
     48 H16         0.2504    5.8641   -1.2080 H         1 <0>         0.1295
     49 H17         1.7396    7.8216   -1.1986 H         1 <0>         0.1387
     50 H18         4.5465    5.6923    1.2143 H         1 <0>         0.1398
     51 H19         3.0637    3.7300    1.2220 H         1 <0>         0.1388
     52 H20         0.5481   -3.0013   -0.9093 H         1 <0>         0.1044
     53 H21         0.5651   -3.0109    0.8705 H         1 <0>         0.1055
     54 H22        -1.9076   -2.8278    0.8951 H         1 <0>         0.0519
     55 H23        -1.9246   -2.8183   -0.8847 H         1 <0>         0.0509
     56 H24        -2.2560   -5.0135   -0.0033 H         1 <0>         0.3873
@<TRIPOS>BOND
     1    1    6 ar
     2    1    2 ar
     3    1   33 1
     4    2    3 ar
     5    2   34 1
     6    3    4 ar
     7    3   35 1
     8    4    5 ar
     9    4    7 1
    10    5    6 ar
    11    5   36 1
    12    6   37 1
    13    7    8 1
    14    7   38 1
    15    7   39 1
    16    8    9 1
    17    8   40 1
    18    8   41 1
    19    9   10 1
    20    9   42 1
    21    9   43 1
    22   10   14 1
    23   10   11 1
    24   11   12 2
    25   11   28 1
    26   12   13 1
    27   13   14 2
    28   13   21 1
    29   14   15 1
    30   15   20 ar
    31   15   16 ar
    32   16   17 ar
    33   16   44 1
    34   17   18 ar
    35   17   45 1
    36   18   19 ar
    37   19   20 ar
    38   19   46 1
    39   20   47 1
    40   21   26 ar
    41   21   22 ar
    42   22   23 ar
    43   22   48 1
    44   23   24 ar
    45   23   49 1
    46   24   25 ar
    47   24   27 1
    48   25   26 ar
    49   25   50 1
    50   26   51 1
    51   28   29 3
    52   29   30 1
    53   30   31 1
    54   30   52 1
    55   30   53 1
    56   31   32 1
    57   31   54 1
    58   31   55 1
    59   32   56 1
@<TRIPOS>MOLECULE
ZINC01546302
   57    60     0     0     0
SMALL
USER_CHARGES
4-[4-(4-fluorophenyl)-1-(3-phenylpropyl)-5-(4-pyridyl)imidazol-2-yl]but-3-yn-1-ol
@<TRIPOS>ATOM
      1 C1         -5.7818    0.5805    5.4994 C.ar      1 <0>        -0.1143
      2 C2         -5.9543    1.7910    4.8545 C.ar      1 <0>        -0.1145
      3 C3         -5.5233    1.9469    3.5504 C.ar      1 <0>        -0.1142
      4 C4         -4.9202    0.8922    2.8910 C.ar      1 <0>        -0.0961
      5 C5         -4.7529   -0.3200    3.5340 C.ar      1 <0>        -0.1161
      6 C6         -5.1791   -0.4743    4.8399 C.ar      1 <0>        -0.1159
      7 C7         -4.4507    1.0620    1.4691 C.3       1 <0>        -0.0731
      8 C8         -3.0032    1.5576    1.4657 C.3       1 <0>        -0.1325
      9 C9         -2.5266    1.7301    0.0221 C.3       1 <0>         0.0839
     10 N1         -1.1405    2.2046    0.0188 N.pl3     1 <0>        -0.3857
     11 C10        -0.0173    1.4278    0.0099 C.cat     1 <0>         0.4528
     12 C11         0.6599    3.4902    0.0137 C.2       1 <0>         0.1207
     13 C12        -0.7257    3.5174    0.0265 C.2       1 <0>         0.1113
     14 C13        -1.5856    4.7154    0.0406 C.ar      1 <0>        -0.0141
     15 C14        -2.7013    4.8118   -0.8027 C.ar      1 <0>        -0.1537
     16 C15        -3.4795    5.9483   -0.7530 C.ar      1 <0>         0.1188
     17 N2         -3.1808    6.9396    0.0658 N.ar      1 <0>        -0.4574
     18 C16        -2.1375    6.8924    0.8731 C.ar      1 <0>         0.1188
     19 C17        -1.3071    5.7925    0.8936 C.ar      1 <0>        -0.1323
     20 C18         1.5566    4.6699    0.0116 C.ar      1 <0>        -0.0831
     21 C19         1.1894    5.8264   -0.6757 C.ar      1 <0>        -0.0456
     22 C20         2.0251    6.9239   -0.6703 C.ar      1 <0>        -0.1457
     23 C21         3.2327    6.8746    0.0075 C.ar      1 <0>         0.1431
     24 C22         3.6043    5.7260    0.6875 C.ar      1 <0>        -0.1464
     25 C23         2.7729    4.6251    0.6923 C.ar      1 <0>        -0.0619
     26 F1          4.0506    7.9499    0.0049 F         1 <0>        -0.1205
     27 C24         0.0021   -0.0041    0.0020 C.1       1 <0>        -0.2361
     28 C25         0.0180   -1.1779   -0.0044 C.1       1 <0>         0.0563
     29 C26         0.0380   -2.6498   -0.0125 C.3       1 <0>        -0.0414
     30 C27        -1.3974   -3.1794   -0.0017 C.3       1 <0>         0.0813
     31 O1         -1.3780   -4.6082   -0.0095 O.3       1 <0>        -0.5666
     32 H1         -6.1182    0.4588    6.5185 H         1 <0>         0.1263
     33 H2         -6.4254    2.6150    5.3697 H         1 <0>         0.1260
     34 H3         -5.6580    2.8926    3.0465 H         1 <0>         0.1208
     35 H4         -4.2857   -1.1454    3.0173 H         1 <0>         0.1190
     36 H5         -5.0447   -1.4202    5.3436 H         1 <0>         0.1254
     37 H6         -5.0848    1.7889    0.9615 H         1 <0>         0.0828
     38 H7         -4.5083    0.1049    0.9507 H         1 <0>         0.0812
     39 H8         -2.3691    0.8307    1.9733 H         1 <0>         0.0804
     40 H9         -2.9456    2.5147    1.9841 H         1 <0>         0.0834
     41 H10        -3.1607    2.4569   -0.4855 H         1 <0>         0.1273
     42 H11        -2.5841    0.7730   -0.4963 H         1 <0>         0.1228
     43 H12        -2.9493    4.0065   -1.4782 H         1 <0>         0.1411
     44 H13        -4.3433    6.0307   -1.3961 H         1 <0>         0.1713
     45 H14        -1.9315    7.7274    1.5264 H         1 <0>         0.1721
     46 H15        -0.4552    5.7609    1.5567 H         1 <0>         0.1465
     47 H16         0.2504    5.8641   -1.2080 H         1 <0>         0.1403
     48 H17         1.7396    7.8216   -1.1986 H         1 <0>         0.1532
     49 H18         4.5465    5.6923    1.2143 H         1 <0>         0.1530
     50 H19         3.0637    3.7300    1.2220 H         1 <0>         0.1378
     51 H20         0.5481   -3.0013   -0.9093 H         1 <0>         0.1255
     52 H21         0.5651   -3.0109    0.8705 H         1 <0>         0.1254
     53 H22        -1.9076   -2.8278    0.8951 H         1 <0>         0.0559
     54 H23        -1.9246   -2.8183   -0.8847 H         1 <0>         0.0554
     55 H24        -2.2560   -5.0135   -0.0033 H         1 <0>         0.3962
     56 N3          1.0447    2.2052    0.0039 N.pl3     1 <0>        -0.4693
     57 H25         2.0180    1.8784   -0.0067 H         1 <0>         0.4808
@<TRIPOS>BOND
     1    1    6 ar
     2    1    2 ar
     3    1   32 1
     4    2    3 ar
     5    2   33 1
     6    3    4 ar
     7    3   34 1
     8    4    5 ar
     9    4    7 1
    10    5    6 ar
    11    5   35 1
    12    6   36 1
    13    7    8 1
    14    7   37 1
    15    7   38 1
    16    8    9 1
    17    8   39 1
    18    8   40 1
    19    9   10 1
    20    9   41 1
    21    9   42 1
    22   10   13 1
    23   10   11 1
    24   11   27 1
    25   11   56 2
    26   12   13 2
    27   12   20 1
    28   12   56 1
    29   13   14 1
    30   14   19 ar
    31   14   15 ar
    32   15   16 ar
    33   15   43 1
    34   16   17 ar
    35   16   44 1
    36   17   18 ar
    37   18   19 ar
    38   18   45 1
    39   19   46 1
    40   20   25 ar
    41   20   21 ar
    42   21   22 ar
    43   21   47 1
    44   22   23 ar
    45   22   48 1
    46   23   24 ar
    47   23   26 1
    48   24   25 ar
    49   24   49 1
    50   25   50 1
    51   27   28 3
    52   28   29 1
    53   29   30 1
    54   29   51 1
    55   29   52 1
    56   30   31 1
    57   30   53 1
    58   30   54 1
    59   31   55 1
    60   56   57 1
