@<TRIPOS>MOLECULE
ZINC17838260
   26    28     0     0     0
SMALL
USER_CHARGES
2-anilino-1,9-dihydropurin-6-one
@<TRIPOS>ATOM
      1 C1         -0.0100    1.0762   -0.0297 C.ar      1 <0>        -0.1281
      2 C2          0.9132    1.7684    0.7326 C.ar      1 <0>        -0.1002
      3 C3          0.9000    3.1493    0.7501 C.ar      1 <0>        -0.1383
      4 C4         -0.0490    3.8426    0.0100 C.ar      1 <0>         0.1093
      5 C5         -0.9785    3.1443   -0.7500 C.ar      1 <0>        -0.1025
      6 C6         -0.9562    1.7635   -0.7677 C.ar      1 <0>        -0.1044
      7 N1         -0.0691    5.2408    0.0304 N.pl3     1 <0>        -0.5511
      8 C7         -1.2644    5.9120   -0.0583 C.2       1 <0>         0.5846
      9 N2         -1.2547    7.2724   -0.1476 N.am      1 <0>        -0.6370
     10 H1         -0.3845    7.7650   -0.1443 H         1 <0>         0.4337
     11 C8         -2.4154    7.9584   -0.2406 C.2       1 <0>         0.5899
     12 O1         -2.4172    9.1747   -0.3251 O.2       1 <0>        -0.5000
     13 C9         -3.6284    7.2305   -0.2321 C.2       1 <0>        -0.1199
     14 C10        -3.5719    5.8356   -0.1329 C.2       1 <0>         0.2799
     15 N3         -2.3845    5.2245   -0.0491 N.2       1 <0>        -0.5436
     16 N4         -4.8697    5.4011   -0.1471 N.pl3     1 <0>        -0.5605
     17 H2         -5.1759    4.4508   -0.0913 H         1 <0>         0.4381
     18 C11        -5.6694    6.5021   -0.2513 C.2       1 <0>         0.2230
     19 N5         -4.9369    7.5761   -0.3011 N.2       1 <0>        -0.4251
     20 H3          0.0053   -0.0036   -0.0452 H         1 <0>         0.1246
     21 H4          1.6478    1.2285    1.3116 H         1 <0>         0.1290
     22 H5          1.6241    3.6893    1.3421 H         1 <0>         0.1292
     23 H6         -1.7179    3.6804   -1.3263 H         1 <0>         0.1349
     24 H7         -1.6788    1.2199   -1.3582 H         1 <0>         0.1254
     25 H8          0.3283    5.5674    0.8880 H         1 <0>         0.3802
     26 H9         -6.7487    6.4843   -0.2876 H         1 <0>         0.2292
@<TRIPOS>BOND
     1    1    6 ar
     2    1    2 ar
     3    1   20 1
     4    2    3 ar
     5    2   21 1
     6    3    4 ar
     7    3   22 1
     8    4    5 ar
     9    4    7 1
    10    5    6 ar
    11    5   23 1
    12    6   24 1
    13    7    8 1
    14    7   25 1
    15    8   15 2
    16    8    9 1
    17    9   10 1
    18    9   11 am
    19   11   12 2
    20   11   13 1
    21   13   19 1
    22   13   14 2
    23   14   15 1
    24   14   16 1
    25   16   17 1
    26   16   18 1
    27   18   19 2
    28   18   26 1
