@<TRIPOS>MOLECULE
ZINC13739903
   32    34     0     0     0
SMALL
USER_CHARGES
(1R)-6-chloro-1-phenyl-1,2,3,4-tetrahydroisoquinolin-7-ol
@<TRIPOS>ATOM
      1 C1         -3.9731   -1.4712    0.5427 C.ar      1 <0>        -0.1164
      2 C2         -3.1232   -2.0919   -0.3535 C.ar      1 <0>        -0.1216
      3 C3         -1.8367   -1.6173   -0.5283 C.ar      1 <0>        -0.1157
      4 C4         -1.4004   -0.5215    0.1926 C.ar      1 <0>        -0.0803
      5 C5         -2.2488    0.0963    1.0924 C.ar      1 <0>        -0.0829
      6 C6         -3.5367   -0.3757    1.2639 C.ar      1 <0>        -0.1242
      7 C7          0.0021   -0.0041    0.0020 C.3       1 <0>         0.1613
      8 H1          0.4077   -0.3215   -0.9700 H         1 <0>         0.0647
      9 C8          0.8793   -0.5261    1.1098 C.ar      1 <0>        -0.0244
     10 C9          0.7395   -1.8520    1.4914 C.ar      1 <0>        -0.1422
     11 C10         1.5265   -2.3756    2.5032 C.ar      1 <0>         0.1689
     12 C11         2.4607   -1.5675    3.1375 C.ar      1 <0>        -0.1294
     13 C12         2.5966   -0.2481    2.7556 C.ar      1 <0>        -0.0704
     14 C13         1.8056    0.2750    1.7431 C.ar      1 <0>        -0.0979
     15 C14         1.9880    1.7231    1.3661 C.3       1 <0>        -0.0744
     16 C15         1.3557    1.9902   -0.0002 C.3       1 <0>         0.0442
     17 N1         -0.0178    1.4620    0.0101 N.3       1 <0>        -0.6627
     18 Cl1         3.4544   -2.2143    4.4055 Cl        1 <0>        -0.0629
     19 O1          1.3854   -3.6757    2.8738 O.3       1 <0>        -0.5004
     20 H2         -4.9783   -1.8420    0.6793 H         1 <0>         0.1210
     21 H3         -3.4642   -2.9479   -0.9170 H         1 <0>         0.1222
     22 H4         -1.1726   -2.1025   -1.2283 H         1 <0>         0.1199
     23 H5         -1.9064    0.9497    1.6588 H         1 <0>         0.1303
     24 H6         -4.2008    0.1095    1.9639 H         1 <0>         0.1218
     25 H7          0.0122   -2.4793    0.9975 H         1 <0>         0.1391
     26 H8          3.3230    0.3811    3.2484 H         1 <0>         0.1358
     27 H9          1.5048    2.3619    2.1201 H         1 <0>         0.0860
     28 H10         3.0617    1.9577    1.3205 H         1 <0>         0.0799
     29 H11         1.3401    3.0733   -0.1916 H         1 <0>         0.0874
     30 H12         1.9453    1.4883   -0.7815 H         1 <0>         0.0388
     31 H13        -0.5499    1.8264   -0.8810 H         1 <0>         0.3526
     32 H14         2.0117   -4.0895    3.6779 H         1 <0>         0.4318
@<TRIPOS>BOND
     1    1    6 ar
     2    1    2 ar
     3    1   20 1
     4    2    3 ar
     5    2   21 1
     6    3    4 ar
     7    3   22 1
     8    4    5 ar
     9    4    7 1
    10    5    6 ar
    11    5   23 1
    12    6   24 1
    13    7    8 1
    14    7   17 1
    15    7    9 1
    16    9   14 ar
    17    9   10 ar
    18   10   11 ar
    19   10   25 1
    20   11   12 ar
    21   11   19 1
    22   12   13 ar
    23   12   18 1
    24   13   14 ar
    25   13   26 1
    26   14   15 1
    27   15   16 1
    28   15   27 1
    29   15   28 1
    30   16   17 1
    31   16   29 1
    32   16   30 1
    33   17   31 1
    34   19   32 1
@<TRIPOS>MOLECULE
ZINC02516058
   36    38     0     0     0
SMALL
USER_CHARGES
10-chloro-6-phenyl-4-azabicyclo[5.4.0]undeca-7,9,11-trien-9-ol
@<TRIPOS>ATOM
      1 C1          6.6758   -0.2307    1.8253 C.ar      1 <0>        -0.1008
      2 C2          6.8162    0.1032    0.4912 C.ar      1 <0>        -0.1125
      3 C3          5.8538    0.8743   -0.1333 C.ar      1 <0>        -0.1078
      4 C4          4.7510    1.3115    0.5763 C.ar      1 <0>        -0.1089
      5 C5          4.6132    0.9821    1.9117 C.ar      1 <0>        -0.1047
      6 C6          5.5730    0.2066    2.5349 C.ar      1 <0>        -0.1111
      7 C7          3.7020    2.1526   -0.1044 C.3       1 <0>        -0.0111
      8 H1          3.9808    2.2948   -1.1485 H         1 <0>         0.1084
      9 C8          3.6292    3.5151    0.5831 C.3       1 <0>        -0.0086
     10 C9          1.9516    4.2460   -1.0046 C.3       1 <0>        -0.0041
     11 C10         1.0800    3.5989    0.0753 C.3       1 <0>        -0.1059
     12 C11         1.1701    2.0973    0.0022 C.ar      1 <0>        -0.0991
     13 C12         2.3756    1.4360   -0.0401 C.ar      1 <0>        -0.0709
     14 C13         2.3983    0.0473   -0.0421 C.ar      1 <0>        -0.1147
     15 C14         1.2176   -0.6745   -0.0173 C.ar      1 <0>         0.1347
     16 C15         0.0021   -0.0041    0.0020 C.ar      1 <0>        -0.0565
     17 C16        -0.0166    1.3758    0.0096 C.ar      1 <0>        -0.0837
     18 Cl1        -1.4867   -0.8969    0.0159 Cl        1 <0>        -0.0332
     19 O1          1.2480   -2.0334   -0.0122 O.3       1 <0>        -0.4820
     20 H2          7.4279   -0.8328    2.3133 H         1 <0>         0.1305
     21 H3          7.6780   -0.2382   -0.0630 H         1 <0>         0.1307
     22 H4          5.9636    1.1354   -1.1755 H         1 <0>         0.1251
     23 H5          3.7538    1.3274    2.4672 H         1 <0>         0.1220
     24 H6          5.4635   -0.0539    3.5772 H         1 <0>         0.1300
     25 H7          2.8748    3.4883    1.3693 H         1 <0>         0.1439
     26 H8          4.6004    3.7605    1.0127 H         1 <0>         0.1437
     27 H9          1.4922    5.1755   -1.3411 H         1 <0>         0.1421
     28 H10         2.0630    3.5630   -1.8467 H         1 <0>         0.1340
     29 H11         1.4183    3.9313    1.0567 H         1 <0>         0.1029
     30 H12         0.0436    3.9041   -0.0690 H         1 <0>         0.1190
     31 H13         3.3443   -0.4732   -0.0636 H         1 <0>         0.1458
     32 H14        -0.9616    1.8987    0.0169 H         1 <0>         0.1452
     33 H15         1.2408   -2.4303   -0.8939 H         1 <0>         0.4022
     34 N1          3.2708    4.5367   -0.4206 N.4       1 <0>        -0.5183
     35 H16         3.9768    4.5401   -1.1660 H         1 <0>         0.4361
     36 H17         3.2447    5.4587    0.0304 H         1 <0>         0.4375
@<TRIPOS>BOND
     1    1    6 ar
     2    1    2 ar
     3    1   20 1
     4    2    3 ar
     5    2   21 1
     6    3    4 ar
     7    3   22 1
     8    4    5 ar
     9    4    7 1
    10    5    6 ar
    11    5   23 1
    12    6   24 1
    13    7    8 1
    14    7   13 1
    15    7    9 1
    16    9   25 1
    17    9   26 1
    18    9   34 1
    19   10   11 1
    20   10   27 1
    21   10   28 1
    22   10   34 1
    23   11   12 1
    24   11   29 1
    25   11   30 1
    26   12   17 ar
    27   12   13 ar
    28   13   14 ar
    29   14   15 ar
    30   14   31 1
    31   15   16 ar
    32   15   19 1
    33   16   17 ar
    34   16   18 1
    35   17   32 1
    36   19   33 1
    37   34   35 1
    38   34   36 1
@<TRIPOS>MOLECULE
ZINC02539831
   36    38     0     0     0
SMALL
USER_CHARGES
10-chloro-6-phenyl-4-azabicyclo[5.4.0]undeca-7,9,11-trien-9-ol
@<TRIPOS>ATOM
      1 C1          0.6642    3.4549   -5.4278 C.ar      1 <0>        -0.1007
      2 C2          1.5138    2.3792   -5.6068 C.ar      1 <0>        -0.1126
      3 C3          2.5078    2.1221   -4.6812 C.ar      1 <0>        -0.1076
      4 C4          2.6522    2.9407   -3.5767 C.ar      1 <0>        -0.1092
      5 C5          1.7992    4.0132   -3.3950 C.ar      1 <0>        -0.1044
      6 C6          0.8085    4.2734   -4.3233 C.ar      1 <0>        -0.1113
      7 C7          3.7356    2.6601   -2.5674 C.3       1 <0>        -0.0110
      8 H1          4.2852    1.7698   -2.8730 H         1 <0>         0.1086
      9 C8          4.6947    3.8485   -2.5190 C.3       1 <0>        -0.0086
     10 C9          6.0743    2.6935   -0.8968 C.3       1 <0>        -0.0042
     11 C10         5.0696    3.4019    0.0160 C.3       1 <0>        -0.1058
     12 C11         3.7307    2.7140   -0.0332 C.ar      1 <0>        -0.0991
     13 C12         3.1037    2.4128   -1.2196 C.ar      1 <0>        -0.0709
     14 C13         1.8429    1.8304   -1.2026 C.ar      1 <0>        -0.1150
     15 C14         1.2230    1.5325   -0.0014 C.ar      1 <0>         0.1347
     16 C15         1.8652    1.8236    1.1945 C.ar      1 <0>        -0.0564
     17 C16         3.1159    2.4062    1.1737 C.ar      1 <0>        -0.0838
     18 Cl1         1.1018    1.4499    2.7082 Cl        1 <0>        -0.0331
     19 O1         -0.0110    0.9628    0.0073 O.3       1 <0>        -0.4820
     20 H2         -0.1127    3.6555   -6.1508 H         1 <0>         0.1305
     21 H3          1.4008    1.7395   -6.4696 H         1 <0>         0.1307
     22 H4          3.1714    1.2816   -4.8209 H         1 <0>         0.1251
     23 H5          1.9093    4.6501   -2.5297 H         1 <0>         0.1220
     24 H6          0.1445    5.1135   -4.1832 H         1 <0>         0.1300
     25 H7          4.3718    4.5478   -1.7477 H         1 <0>         0.1438
     26 H8          4.7067    4.3484   -3.4875 H         1 <0>         0.1436
     27 H9          7.0751    2.7684   -0.4716 H         1 <0>         0.1420
     28 H10         5.7977    1.6448   -1.0057 H         1 <0>         0.1340
     29 H11         4.9545    4.4356   -0.3102 H         1 <0>         0.1029
     30 H12         5.4430    3.3885    1.0399 H         1 <0>         0.1190
     31 H13         1.3423    1.6086   -2.1335 H         1 <0>         0.1458
     32 H14         3.6185    2.6295    2.1032 H         1 <0>         0.1452
     33 H15         0.0021   -0.0041    0.0020 H         1 <0>         0.4024
     34 N1          6.0515    3.3551   -2.2113 N.4       1 <0>        -0.5182
     35 H16         6.7049    4.1470   -2.2022 H         1 <0>         0.4375
     36 H17         6.3382    2.6830   -2.9327 H         1 <0>         0.4361
@<TRIPOS>BOND
     1    1    6 ar
     2    1    2 ar
     3    1   20 1
     4    2    3 ar
     5    2   21 1
     6    3    4 ar
     7    3   22 1
     8    4    5 ar
     9    4    7 1
    10    5    6 ar
    11    5   23 1
    12    6   24 1
    13    7    8 1
    14    7   13 1
    15    7    9 1
    16    9   25 1
    17    9   26 1
    18    9   34 1
    19   10   11 1
    20   10   27 1
    21   10   28 1
    22   10   34 1
    23   11   12 1
    24   11   29 1
    25   11   30 1
    26   12   17 ar
    27   12   13 ar
    28   13   14 ar
    29   14   15 ar
    30   14   31 1
    31   15   16 ar
    32   15   19 1
    33   16   17 ar
    34   16   18 1
    35   17   32 1
    36   19   33 1
    37   34   35 1
    38   34   36 1
@<TRIPOS>MOLECULE
ZINC01572556
   37    39     0     0     0
SMALL
USER_CHARGES

@<TRIPOS>ATOM
      1 C1         -0.0167    1.3781    0.0096 C.ar      1 <0>        -0.1021
      2 C2          1.1709    2.0855    0.0021 C.ar      1 <0>        -0.1116
      3 C3          2.3773    1.4107   -0.0130 C.ar      1 <0>        -0.1074
      4 C4          2.3960    0.0285   -0.0201 C.ar      1 <0>        -0.1062
      5 C5          1.2084   -0.6789   -0.0117 C.ar      1 <0>        -0.1069
      6 C6          0.0021   -0.0041    0.0020 C.ar      1 <0>        -0.1130
      7 C7          3.7112   -0.7071   -0.0376 C.3       1 <0>        -0.0112
      8 H1          4.5257    0.0172   -0.0425 H         1 <0>         0.1069
      9 C8          3.7915   -1.5603   -1.3031 C.3       1 <0>        -0.0144
     10 N1          5.1916   -1.6165   -1.7368 N.4       1 <0>        -0.5063
     11 C9          6.0187   -2.2475   -0.7081 C.3       1 <0>        -0.0089
     12 C10         5.1683   -3.3128   -0.0089 C.3       1 <0>        -0.1074
     13 C11         4.5156   -2.7482    1.2263 C.ar      1 <0>        -0.0936
     14 C12         3.8165   -1.5619    1.2015 C.ar      1 <0>        -0.0841
     15 C13         3.1852   -1.1114    2.3534 C.ar      1 <0>        -0.1103
     16 C14         3.2766   -1.8307    3.5311 C.ar      1 <0>         0.0980
     17 C15         4.0097   -3.0132    3.5615 C.ar      1 <0>         0.0987
     18 C16         4.6249   -3.4646    2.4096 C.ar      1 <0>        -0.1190
     19 O1          4.1218   -3.7189    4.7186 O.3       1 <0>        -0.4834
     20 O2          2.6533   -1.3843    4.6544 O.3       1 <0>        -0.4835
     21 H2         -0.9591    1.9053    0.0259 H         1 <0>         0.1302
     22 H3          1.1563    3.1654    0.0076 H         1 <0>         0.1307
     23 H4          3.3051    1.9634   -0.0196 H         1 <0>         0.1253
     24 H5          1.2231   -1.7588   -0.0176 H         1 <0>         0.1218
     25 H6         -0.9258   -0.5567    0.0082 H         1 <0>         0.1293
     26 H7          3.4334   -2.5674   -1.0894 H         1 <0>         0.1460
     27 H8          3.1827   -1.1105   -2.0875 H         1 <0>         0.1444
     28 H9          5.2555   -2.1506   -2.5905 H         1 <0>         0.4320
     29 H10         6.8888   -2.7145   -1.1695 H         1 <0>         0.1435
     30 H11         6.3413   -1.4994    0.0160 H         1 <0>         0.1353
     31 H12         4.3966   -3.6628   -0.6945 H         1 <0>         0.1021
     32 H13         5.8044   -4.1518    0.2729 H         1 <0>         0.1175
     33 H14         2.6187   -0.1922    2.3295 H         1 <0>         0.1410
     34 H15         5.1924   -4.3832    2.4301 H         1 <0>         0.1414
     35 H16         3.4269   -4.3793    4.8454 H         1 <0>         0.3971
     36 H17         1.7486   -1.7097    4.7579 H         1 <0>         0.3966
     37 H18         5.5265   -0.6799   -1.9063 H         1 <0>         0.4313
@<TRIPOS>BOND
     1    1    6 ar
     2    1    2 ar
     3    1   21 1
     4    2    3 ar
     5    2   22 1
     6    3    4 ar
     7    3   23 1
     8    4    5 ar
     9    4    7 1
    10    5    6 ar
    11    5   24 1
    12    6   25 1
    13    7    8 1
    14    7   14 1
    15    7    9 1
    16    9   10 1
    17    9   26 1
    18    9   27 1
    19   10   11 1
    20   10   28 1
    21   10   37 1
    22   11   12 1
    23   11   29 1
    24   11   30 1
    25   12   13 1
    26   12   31 1
    27   12   32 1
    28   13   18 ar
    29   13   14 ar
    30   14   15 ar
    31   15   16 ar
    32   15   33 1
    33   16   17 ar
    34   16   20 1
    35   17   18 ar
    36   17   19 1
    37   18   34 1
    38   19   35 1
    39   20   36 1
@<TRIPOS>MOLECULE
ZINC01996374
   37    39     0     0     0
SMALL
USER_CHARGES

@<TRIPOS>ATOM
      1 C1         -0.0167    1.3781    0.0096 C.ar      1 <0>        -0.1015
      2 C2          1.1709    2.0855    0.0021 C.ar      1 <0>        -0.1129
      3 C3          2.3773    1.4107   -0.0130 C.ar      1 <0>        -0.1085
      4 C4          2.3960    0.0285   -0.0201 C.ar      1 <0>        -0.1079
      5 C5          1.2084   -0.6789   -0.0117 C.ar      1 <0>        -0.1046
      6 C6          0.0021   -0.0041    0.0020 C.ar      1 <0>        -0.1114
      7 C7          3.7112   -0.7071   -0.0376 C.3       1 <0>        -0.0099
      8 H1          4.5257    0.0172   -0.0425 H         1 <0>         0.1065
      9 C8          3.8179   -1.5729    1.2175 C.3       1 <0>        -0.0152
     10 N1          5.2268   -1.6333    1.6211 N.4       1 <0>        -0.5063
     11 C9          6.0321   -2.2539    0.5690 C.3       1 <0>        -0.0080
     12 C10         5.1671   -3.3122   -0.1228 C.3       1 <0>        -0.1081
     13 C11         4.4887   -2.7354   -1.3383 C.ar      1 <0>        -0.0931
     14 C12         3.7905   -1.5495   -1.2871 C.ar      1 <0>        -0.0848
     15 C13         3.1351   -1.0876   -2.4209 C.ar      1 <0>        -0.1103
     16 C14         3.2017   -1.7951   -3.6074 C.ar      1 <0>         0.0976
     17 C15         3.9339   -2.9771   -3.6650 C.ar      1 <0>         0.0992
     18 C16         4.5731   -3.4399   -2.5308 C.ar      1 <0>        -0.1195
     19 O1          4.0217   -3.6712   -4.8311 O.3       1 <0>        -0.4837
     20 O2          2.5544   -1.3380   -4.7126 O.3       1 <0>        -0.4829
     21 H2         -0.9591    1.9053    0.0259 H         1 <0>         0.1303
     22 H3          1.1563    3.1654    0.0076 H         1 <0>         0.1303
     23 H4          3.3051    1.9634   -0.0196 H         1 <0>         0.1248
     24 H5          1.2231   -1.7588   -0.0176 H         1 <0>         0.1221
     25 H6         -0.9258   -0.5567    0.0082 H         1 <0>         0.1298
     26 H7          3.2258   -1.1310    2.0188 H         1 <0>         0.1448
     27 H8          3.4553   -2.5778    1.0012 H         1 <0>         0.1462
     28 H9          5.5652   -0.6983    1.7928 H         1 <0>         0.4310
     29 H10         6.3395   -1.4985   -0.1542 H         1 <0>         0.1347
     30 H11         6.9116   -2.7254    1.0074 H         1 <0>         0.1430
     31 H12         5.7971   -4.1483   -0.4262 H         1 <0>         0.1175
     32 H13         4.4099   -3.6692    0.5753 H         1 <0>         0.1026
     33 H14         2.5688   -0.1691   -2.3758 H         1 <0>         0.1411
     34 H15         5.1405   -4.3579   -2.5725 H         1 <0>         0.1414
     35 H16         4.7700   -3.4136   -5.3869 H         1 <0>         0.3970
     36 H17         3.0865   -0.7486   -5.2645 H         1 <0>         0.3962
     37 H18         5.3085   -2.1759    2.4679 H         1 <0>         0.4322
@<TRIPOS>BOND
     1    1    6 ar
     2    1    2 ar
     3    1   21 1
     4    2    3 ar
     5    2   22 1
     6    3    4 ar
     7    3   23 1
     8    4    5 ar
     9    4    7 1
    10    5    6 ar
    11    5   24 1
    12    6   25 1
    13    7    8 1
    14    7   14 1
    15    7    9 1
    16    9   10 1
    17    9   26 1
    18    9   27 1
    19   10   11 1
    20   10   28 1
    21   10   37 1
    22   11   12 1
    23   11   29 1
    24   11   30 1
    25   12   13 1
    26   12   31 1
    27   12   32 1
    28   13   18 ar
    29   13   14 ar
    30   14   15 ar
    31   15   16 ar
    32   15   33 1
    33   16   17 ar
    34   16   20 1
    35   17   18 ar
    36   17   19 1
    37   18   34 1
    38   19   35 1
    39   20   36 1
@<TRIPOS>MOLECULE
ZINC13675869
   33    35     0     0     0
SMALL
USER_CHARGES

@<TRIPOS>ATOM
      1 C1         -0.0167    1.3781    0.0096 C.ar      1 <0>        -0.0998
      2 C2          1.1709    2.0855    0.0021 C.ar      1 <0>        -0.1119
      3 C3          2.3773    1.4107   -0.0130 C.ar      1 <0>        -0.1037
      4 C4          2.3960    0.0285   -0.0201 C.ar      1 <0>        -0.1059
      5 C5          1.2084   -0.6789   -0.0117 C.ar      1 <0>        -0.1062
      6 C6          0.0021   -0.0041    0.0020 C.ar      1 <0>        -0.1120
      7 C7          3.7112   -0.7071   -0.0376 C.3       1 <0>        -0.0187
      8 C8          3.8194   -1.5846    1.2101 C.3       1 <0>        -0.0017
      9 N1          4.9981   -2.4536    1.0715 N.4       1 <0>        -0.5040
     10 C9          4.7135   -3.4868    0.0716 C.3       1 <0>         0.0485
     11 C10         4.2585   -2.8620   -1.2211 C.ar      1 <0>        -0.1349
     12 C11         3.7886   -1.5661   -1.2741 C.ar      1 <0>        -0.0639
     13 C12         3.3763   -1.0283   -2.4822 C.ar      1 <0>        -0.1099
     14 C13         3.4347   -1.7861   -3.6405 C.ar      1 <0>         0.1491
     15 C14         3.9095   -3.0894   -3.5866 C.ar      1 <0>        -0.0584
     16 C15         4.3189   -3.6215   -2.3802 C.ar      1 <0>        -0.0710
     17 Cl1         3.9879   -4.0478   -5.0320 Cl        1 <0>        -0.0256
     18 O1          3.0284   -1.2560   -4.8244 O.3       1 <0>        -0.4801
     19 H1         -0.9591    1.9053    0.0259 H         1 <0>         0.1309
     20 H2          1.1563    3.1654    0.0076 H         1 <0>         0.1315
     21 H3          3.3051    1.9634   -0.0196 H         1 <0>         0.1274
     22 H4          1.2231   -1.7588   -0.0176 H         1 <0>         0.1196
     23 H5         -0.9258   -0.5567    0.0082 H         1 <0>         0.1296
     24 H6          4.5292    0.0132   -0.0449 H         1 <0>         0.1191
     25 H7          3.9312   -0.9543    2.0923 H         1 <0>         0.1459
     26 H8          2.9227   -2.1968    1.3058 H         1 <0>         0.1380
     27 H9          5.7898   -1.9038    0.7730 H         1 <0>         0.4328
     28 H10         5.6162   -4.0702   -0.1093 H         1 <0>         0.1462
     29 H11         3.9303   -4.1450    0.4479 H         1 <0>         0.1441
     30 H12         3.0073   -0.0140   -2.5213 H         1 <0>         0.1493
     31 H13         4.6881   -4.6356   -2.3387 H         1 <0>         0.1504
     32 H14         3.7306   -0.8098   -5.3172 H         1 <0>         0.4060
     33 H15         5.2027   -2.8891    1.9584 H         1 <0>         0.4395
@<TRIPOS>BOND
     1    1    6 ar
     2    1    2 ar
     3    1   19 1
     4    2    3 ar
     5    2   20 1
     6    3    4 ar
     7    3   21 1
     8    4    5 ar
     9    4    7 1
    10    5    6 ar
    11    5   22 1
    12    6   23 1
    13    7   12 1
    14    7    8 1
    15    7   24 1
    16    8    9 1
    17    8   25 1
    18    8   26 1
    19    9   10 1
    20    9   27 1
    21    9   33 1
    22   10   11 1
    23   10   28 1
    24   10   29 1
    25   11   16 ar
    26   11   12 ar
    27   12   13 ar
    28   13   14 ar
    29   13   30 1
    30   14   15 ar
    31   14   18 1
    32   15   16 ar
    33   15   17 1
    34   16   31 1
    35   18   32 1
@<TRIPOS>MOLECULE
ZINC13675869
   32    34     0     0     0
SMALL
USER_CHARGES
(4R)-7-chloro-4-phenyl-1,2,3,4-tetrahydroisoquinolin-6-ol
@<TRIPOS>ATOM
      1 C1         -2.7144    4.7491   -4.4210 C.ar      1 <0>        -0.1125
      2 C2         -3.4520    4.7366   -3.2520 C.ar      1 <0>        -0.1172
      3 C3         -2.9223    4.1723   -2.1066 C.ar      1 <0>        -0.1091
      4 C4         -1.6550    3.6206   -2.1302 C.ar      1 <0>        -0.0802
      5 C5         -0.9154    3.6379   -3.2979 C.ar      1 <0>        -0.1005
      6 C6         -1.4471    4.1974   -4.4447 C.ar      1 <0>        -0.1163
      7 C7         -1.0774    3.0059   -0.8814 C.3       1 <0>        -0.0204
      8 H1         -1.7998    3.1066   -0.0580 H         1 <0>         0.1026
      9 C8         -0.7778    1.5281   -1.1347 C.3       1 <0>         0.0107
     10 N1         -0.0116    1.0048    0.0076 N.4       1 <0>        -0.5283
     11 C9          1.3500    1.5489   -0.0025 C.3       1 <0>         0.0798
     12 C10         1.3168    3.0522   -0.0931 C.ar      1 <0>        -0.2923
     13 C11         0.1898    3.7311   -0.5067 C.ar      1 <0>        -0.0353
     14 C12         0.2047    5.1148   -0.5811 C.ar      1 <0>        -0.2285
     15 C13         1.3454    5.8215   -0.2373 C.ar      1 <0>         0.2886
     16 C14         2.4780    5.1372    0.1822 C.ar      1 <0>        -0.1610
     17 C15         2.4599    3.7587    0.2521 C.ar      1 <0>        -0.0376
     18 Cl1         3.9126    6.0124    0.6180 Cl        1 <0>        -0.0909
     19 O1          1.3558    7.1787   -0.3109 O.3       1 <0>        -0.6682
     20 H2         -3.1280    5.1902   -5.3158 H         1 <0>         0.1237
     21 H3         -4.4419    5.1679   -3.2334 H         1 <0>         0.1246
     22 H4         -3.4984    4.1629   -1.1931 H         1 <0>         0.1225
     23 H5          0.0764    3.2108   -3.3152 H         1 <0>         0.1200
     24 H6         -0.8707    4.2075   -5.3579 H         1 <0>         0.1239
     25 H7         -1.7229    0.9749   -1.2380 H         1 <0>         0.1287
     26 H8         -0.1904    1.4262   -2.0591 H         1 <0>         0.1273
     27 H9         -0.5077    1.2948    0.9456 H         1 <0>         0.4492
     28 H10         1.8679    1.2581    0.9234 H         1 <0>         0.1188
     29 H11         1.8976    1.1507   -0.8695 H         1 <0>         0.1120
     30 H12        -0.6777    5.6449   -0.9080 H         1 <0>         0.1106
     31 H13         3.3413    3.2265    0.5781 H         1 <0>         0.1102
     32 H14         0.0391   -0.0922   -0.0565 H         1 <0>         0.4451
@<TRIPOS>BOND
     1    1    6 ar
     2    1    2 ar
     3    1   20 1
     4    2    3 ar
     5    2   21 1
     6    3    4 ar
     7    3   22 1
     8    4    5 ar
     9    4    7 1
    10    5    6 ar
    11    5   23 1
    12    6   24 1
    13    7    8 1
    14    7   13 1
    15    7    9 1
    16    9   10 1
    17    9   25 1
    18    9   26 1
    19   10   11 1
    20   10   27 1
    21   10   32 1
    22   11   12 1
    23   11   28 1
    24   11   29 1
    25   12   17 ar
    26   12   13 ar
    27   13   14 ar
    28   14   15 ar
    29   14   30 1
    30   15   16 ar
    31   15   19 1
    32   16   17 ar
    33   16   18 1
    34   17   31 1
@<TRIPOS>MOLECULE
ZINC13675870
   32    34     0     0     0
SMALL
USER_CHARGES
(4S)-7-chloro-4-phenyl-1,2,3,4-tetrahydroisoquinolin-6-ol
@<TRIPOS>ATOM
      1 C1          1.1750    1.7832    0.0004 C.ar      1 <0>        -0.1193
      2 C2         -0.0126    1.0758    0.0080 C.ar      1 <0>        -0.1177
      3 C3         -1.2190    1.7507    0.0173 C.ar      1 <0>        -0.1071
      4 C4         -1.2377    3.1328    0.0290 C.ar      1 <0>        -0.0788
      5 C5         -0.0501    3.8402    0.0223 C.ar      1 <0>        -0.1126
      6 C6          1.1563    3.1654    0.0081 C.ar      1 <0>        -0.1173
      7 C7         -2.5529    3.8685    0.0441 C.3       1 <0>        -0.0049
      8 H1         -2.3639    4.9521    0.0351 H         1 <0>         0.1033
      9 C8         -3.3350    3.4843    1.3004 C.3       1 <0>         0.0530
     10 N1         -4.6974    4.0289    1.1866 N.3       1 <0>        -0.6669
     11 C9         -5.4572    3.2883    0.1747 C.3       1 <0>         0.0906
     12 C10        -4.6959    3.2374   -1.1243 C.ar      1 <0>        -0.1113
     13 C11        -3.3452    3.5024   -1.1848 C.ar      1 <0>        -0.0135
     14 C12        -2.6839    3.4371   -2.4009 C.ar      1 <0>        -0.1442
     15 C13        -3.3743    3.1078   -3.5557 C.ar      1 <0>         0.1717
     16 C14        -4.7354    2.8426   -3.4913 C.ar      1 <0>        -0.1315
     17 C15        -5.3881    2.9107   -2.2814 C.ar      1 <0>        -0.0658
     18 Cl1        -5.6114    2.4304   -4.9323 Cl        1 <0>        -0.0628
     19 O1         -2.7221    3.0449   -4.7466 O.3       1 <0>        -0.5001
     20 H2          2.1175    1.2560   -0.0111 H         1 <0>         0.1220
     21 H3          0.0021   -0.0041    0.0020 H         1 <0>         0.1217
     22 H4         -2.1469    1.1980    0.0188 H         1 <0>         0.1169
     23 H5         -0.0647    4.9201    0.0280 H         1 <0>         0.1237
     24 H6          2.0841    3.7181    0.0025 H         1 <0>         0.1235
     25 H7         -3.3746    2.3884    1.3868 H         1 <0>         0.0429
     26 H8         -2.8355    3.9041    2.1860 H         1 <0>         0.0870
     27 H9         -5.2095    3.9413    2.1562 H         1 <0>         0.3525
     28 H10        -5.6322    2.2609    0.5267 H         1 <0>         0.0480
     29 H11        -6.4228    3.7867    0.0036 H         1 <0>         0.0925
     30 H12        -1.6249    3.6437   -2.4484 H         1 <0>         0.1374
     31 H13        -6.4470    2.7038   -2.2327 H         1 <0>         0.1356
     32 H14        -3.2728    2.7831   -5.6621 H         1 <0>         0.4317
@<TRIPOS>BOND
     1    1    6 ar
     2    1    2 ar
     3    1   20 1
     4    2    3 ar
     5    2   21 1
     6    3    4 ar
     7    3   22 1
     8    4    5 ar
     9    4    7 1
    10    5    6 ar
    11    5   23 1
    12    6   24 1
    13    7    8 1
    14    7   13 1
    15    7    9 1
    16    9   10 1
    17    9   25 1
    18    9   26 1
    19   10   11 1
    20   10   27 1
    21   11   12 1
    22   11   28 1
    23   11   29 1
    24   12   17 ar
    25   12   13 ar
    26   13   14 ar
    27   14   15 ar
    28   14   30 1
    29   15   16 ar
    30   15   19 1
    31   16   17 ar
    32   16   18 1
    33   17   31 1
    34   19   32 1
@<TRIPOS>MOLECULE
ZINC13675870
   32    34     0     0     0
SMALL
USER_CHARGES
(4S)-7-chloro-4-phenyl-1,2,3,4-tetrahydroisoquinolin-6-ol
@<TRIPOS>ATOM
      1 C1          1.1750    1.7832    0.0004 C.ar      1 <0>        -0.1126
      2 C2         -0.0126    1.0758    0.0080 C.ar      1 <0>        -0.1163
      3 C3         -1.2190    1.7507    0.0173 C.ar      1 <0>        -0.1007
      4 C4         -1.2377    3.1328    0.0290 C.ar      1 <0>        -0.0801
      5 C5         -0.0501    3.8402    0.0223 C.ar      1 <0>        -0.1090
      6 C6          1.1563    3.1654    0.0081 C.ar      1 <0>        -0.1172
      7 C7         -2.5529    3.8685    0.0441 C.3       1 <0>        -0.0203
      8 H1         -2.3639    4.9521    0.0351 H         1 <0>         0.1027
      9 C8         -3.3350    3.4843    1.3004 C.3       1 <0>         0.0106
     10 N1         -4.6974    4.0289    1.1866 N.4       1 <0>        -0.5282
     11 C9         -5.4572    3.2883    0.1747 C.3       1 <0>         0.0796
     12 C10        -4.6959    3.2374   -1.1243 C.ar      1 <0>        -0.2925
     13 C11        -3.3452    3.5024   -1.1848 C.ar      1 <0>        -0.0347
     14 C12        -2.6839    3.4371   -2.4009 C.ar      1 <0>        -0.2300
     15 C13        -3.3743    3.1078   -3.5557 C.ar      1 <0>         0.2886
     16 C14        -4.7354    2.8426   -3.4913 C.ar      1 <0>        -0.1597
     17 C15        -5.3881    2.9107   -2.2814 C.ar      1 <0>        -0.0379
     18 Cl1        -5.6114    2.4304   -4.9323 Cl        1 <0>        -0.0908
     19 O1         -2.7221    3.0449   -4.7466 O.3       1 <0>        -0.6680
     20 H2          2.1175    1.2560   -0.0111 H         1 <0>         0.1237
     21 H3          0.0021   -0.0041    0.0020 H         1 <0>         0.1239
     22 H4         -2.1469    1.1980    0.0188 H         1 <0>         0.1199
     23 H5         -0.0647    4.9201    0.0280 H         1 <0>         0.1225
     24 H6          2.0841    3.7181    0.0025 H         1 <0>         0.1246
     25 H7         -3.3746    2.3884    1.3868 H         1 <0>         0.1274
     26 H8         -2.8355    3.9041    2.1860 H         1 <0>         0.1287
     27 H9         -5.2095    3.9413    2.1562 H         1 <0>         0.4451
     28 H10        -5.6322    2.2609    0.5267 H         1 <0>         0.1120
     29 H11        -6.4228    3.7867    0.0036 H         1 <0>         0.1188
     30 H12        -1.6249    3.6437   -2.4484 H         1 <0>         0.1104
     31 H13        -6.4470    2.7038   -2.2327 H         1 <0>         0.1099
     32 H14        -4.6457    5.0879    0.8937 H         1 <0>         0.4492
@<TRIPOS>BOND
     1    1    6 ar
     2    1    2 ar
     3    1   20 1
     4    2    3 ar
     5    2   21 1
     6    3    4 ar
     7    3   22 1
     8    4    5 ar
     9    4    7 1
    10    5    6 ar
    11    5   23 1
    12    6   24 1
    13    7    8 1
    14    7   13 1
    15    7    9 1
    16    9   10 1
    17    9   25 1
    18    9   26 1
    19   10   11 1
    20   10   27 1
    21   10   32 1
    22   11   12 1
    23   11   28 1
    24   11   29 1
    25   12   17 ar
    26   12   13 ar
    27   13   14 ar
    28   14   15 ar
    29   14   30 1
    30   15   16 ar
    31   15   19 1
    32   16   17 ar
    33   16   18 1
    34   17   31 1
@<TRIPOS>MOLECULE
ZINC00033882
   23    23     0     0     0
SMALL
USER_CHARGES

@<TRIPOS>ATOM
      1 C1         -0.0167    1.3779    0.0096 C.ar      1 <0>        -0.1006
      2 C2          1.1696    2.0886    0.0021 C.ar      1 <0>        -0.1264
      3 C3          2.3802    1.4154   -0.0130 C.ar      1 <0>         0.0999
      4 C4          2.3990    0.0236   -0.0206 C.ar      1 <0>         0.0875
      5 C5          1.2071   -0.6822   -0.0130 C.ar      1 <0>        -0.1216
      6 C6          0.0021   -0.0041    0.0020 C.ar      1 <0>        -0.1052
      7 C7         -1.2936   -0.7736    0.0102 C.3       1 <0>        -0.1010
      8 C8         -1.7458   -1.0263   -1.4294 C.3       1 <0>        -0.0078
      9 N1         -3.0088   -1.7764   -1.4215 N.4       1 <0>        -0.6379
     10 O1          3.5850   -0.6417   -0.0359 O.3       1 <0>        -0.4857
     11 O2          3.5476    2.1129   -0.0209 O.3       1 <0>        -0.4857
     12 H1         -0.9598    1.9038    0.0259 H         1 <0>         0.1332
     13 H2          1.1522    3.1684    0.0077 H         1 <0>         0.1416
     14 H3          1.2190   -1.7621   -0.0189 H         1 <0>         0.1358
     15 H4         -1.1467   -1.7271    0.5175 H         1 <0>         0.0975
     16 H5         -2.0555   -0.1967    0.5344 H         1 <0>         0.0990
     17 H6         -1.8927   -0.0728   -1.9368 H         1 <0>         0.1365
     18 H7         -0.9839   -1.6032   -1.9536 H         1 <0>         0.1360
     19 H8         -2.8729   -2.6590   -0.9518 H         1 <0>         0.4357
     20 H9         -3.7141   -1.2424   -0.9362 H         1 <0>         0.4357
     21 H10         3.9367   -0.8389    0.8430 H         1 <0>         0.3958
     22 H11         3.8938    2.3101    0.8602 H         1 <0>         0.3975
     23 H12        -3.3071   -1.9430   -2.3709 H         1 <0>         0.4400
@<TRIPOS>BOND
     1    1    6 ar
     2    1    2 ar
     3    1   12 1
     4    2    3 ar
     5    2   13 1
     6    3    4 ar
     7    3   11 1
     8    4    5 ar
     9    4   10 1
    10    5    6 ar
    11    5   14 1
    12    6    7 1
    13    7    8 1
    14    7   15 1
    15    7   16 1
    16    8    9 1
    17    8   17 1
    18    8   18 1
    19    9   19 1
    20    9   20 1
    21    9   23 1
    22   10   21 1
    23   11   22 1
@<TRIPOS>MOLECULE
ZINC02017838
   39    41     0     0     0
SMALL
USER_CHARGES

@<TRIPOS>ATOM
      1 C1         -0.6937    1.1592   -0.0446 C.3       1 <0>        -0.0565
      2 N1         -0.3969   -0.2790   -0.0054 N.4       1 <0>        -0.3850
      3 C2         -1.6538   -1.0043   -0.0501 C.3       1 <0>        -0.0076
      4 C3         -1.4199   -2.4952   -0.3132 C.3       1 <0>        -0.1241
      5 C4         -1.1505   -3.1735    1.0151 C.ar      1 <0>        -0.0918
      6 C5         -2.0820   -4.0505    1.5403 C.ar      1 <0>        -0.0811
      7 C6         -1.8332   -4.6676    2.7530 C.ar      1 <0>        -0.0563
      8 C7         -0.6533   -4.4051    3.4363 C.ar      1 <0>         0.1329
      9 C8          0.2760   -3.5241    2.9016 C.ar      1 <0>        -0.1156
     10 C9          0.0175   -2.9133    1.6891 C.ar      1 <0>        -0.0810
     11 C10         1.0293   -1.9515    1.0995 C.3       1 <0>        -0.0159
     12 H1          1.9511   -1.9857    1.6803 H         1 <0>         0.1371
     13 C11         0.4364   -0.5401    1.1546 C.3       1 <0>        -0.0043
     14 C12         1.3158   -2.3287   -0.3312 C.ar      1 <0>        -0.1097
     15 C13         1.8000   -1.3802   -1.2124 C.ar      1 <0>        -0.1733
     16 C14         2.0628   -1.7262   -2.5247 C.ar      1 <0>        -0.0962
     17 C15         1.8417   -3.0209   -2.9556 C.ar      1 <0>        -0.1047
     18 C16         1.3582   -3.9697   -2.0742 C.ar      1 <0>        -0.0974
     19 C17         1.0996   -3.6247   -0.7608 C.ar      1 <0>        -0.0998
     20 O1         -0.4084   -5.0112    4.6281 O.3       1 <0>        -0.4829
     21 Cl1        -2.9964   -5.7696    3.4209 Cl        1 <0>        -0.0327
     22 H2          0.2376    1.7205   -0.1192 H         1 <0>         0.1249
     23 H3         -1.3197    1.3775   -0.9098 H         1 <0>         0.1261
     24 H4         -1.2194    1.4467    0.8659 H         1 <0>         0.1243
     25 H5         -2.1695   -0.8858    0.9029 H         1 <0>         0.1287
     26 H6         -2.2756   -0.5939   -0.8458 H         1 <0>         0.1374
     27 H7         -2.3059   -2.9306   -0.7754 H         1 <0>         0.1178
     28 H8         -0.5608   -2.6221   -0.9718 H         1 <0>         0.1192
     29 H9         -2.9990   -4.2523    1.0065 H         1 <0>         0.1469
     30 H10         1.1951   -3.3169    3.4296 H         1 <0>         0.1482
     31 H11         1.2473    0.1878    1.1838 H         1 <0>         0.1401
     32 H12        -0.1658   -0.4399    2.0576 H         1 <0>         0.1368
     33 H13         1.9728   -0.3686   -0.8757 H         1 <0>         0.1276
     34 H14         2.4405   -0.9849   -3.2133 H         1 <0>         0.1374
     35 H15         2.0463   -3.2910   -3.9811 H         1 <0>         0.1370
     36 H16         1.1852   -4.9811   -2.4110 H         1 <0>         0.1371
     37 H17         0.7254   -4.3669   -0.0712 H         1 <0>         0.1352
     38 H18         0.0553   -5.8562    4.5517 H         1 <0>         0.4036
     39 H19         0.1305   -0.5139   -0.8329 H         1 <0>         0.4177
@<TRIPOS>BOND
     1    1    2 1
     2    1   22 1
     3    1   23 1
     4    1   24 1
     5    2   13 1
     6    2    3 1
     7    2   39 1
     8    3    4 1
     9    3   25 1
    10    3   26 1
    11    4    5 1
    12    4   27 1
    13    4   28 1
    14    5   10 ar
    15    5    6 ar
    16    6    7 ar
    17    6   29 1
    18    7    8 ar
    19    7   21 1
    20    8    9 ar
    21    8   20 1
    22    9   10 ar
    23    9   30 1
    24   10   11 1
    25   11   12 1
    26   11   13 1
    27   11   14 1
    28   13   31 1
    29   13   32 1
    30   14   19 ar
    31   14   15 ar
    32   15   16 ar
    33   15   33 1
    34   16   17 ar
    35   16   34 1
    36   17   18 ar
    37   17   35 1
    38   18   19 ar
    39   18   36 1
    40   19   37 1
    41   20   38 1
@<TRIPOS>MOLECULE
ZINC13739904
   32    34     0     0     0
SMALL
USER_CHARGES
(1S)-6-chloro-1-phenyl-1,2,3,4-tetrahydroisoquinolin-7-ol
@<TRIPOS>ATOM
      1 C1          2.1738   -2.2967    2.6734 C.ar      1 <0>        -0.1190
      2 C2          1.9960   -2.4933    1.3167 C.ar      1 <0>        -0.1158
      3 C3          2.0925   -1.4249    0.4449 C.ar      1 <0>        -0.1125
      4 C4          2.3664   -0.1597    0.9299 C.ar      1 <0>        -0.0696
      5 C5          2.5494    0.0360    2.2861 C.ar      1 <0>        -0.1042
      6 C6          2.4485   -1.0317    3.1583 C.ar      1 <0>        -0.1158
      7 C7          2.4716    1.0051   -0.0204 C.3       1 <0>         0.1586
      8 H1          2.6764    0.6578   -1.0438 H         1 <0>         0.1064
      9 C8          1.1811    1.7818    0.0004 C.ar      1 <0>        -0.0612
     10 C9         -0.0126    1.0758    0.0080 C.ar      1 <0>        -0.1384
     11 C10        -1.2230    1.7480    0.0173 C.ar      1 <0>         0.1705
     12 C11        -1.2398    3.1365    0.0284 C.ar      1 <0>        -0.1298
     13 C12        -0.0499    3.8358    0.0210 C.ar      1 <0>        -0.0667
     14 C13         1.1618    3.1604    0.0085 C.ar      1 <0>        -0.1099
     15 C14         2.4339    3.9690    0.0070 C.3       1 <0>        -0.1149
     16 C15         3.6100    3.0912   -0.4218 C.3       1 <0>         0.0431
     17 N1          3.5920    1.8601    0.3842 N.3       1 <0>        -0.6538
     18 Cl1        -2.7517    3.9894    0.0449 Cl        1 <0>        -0.0617
     19 O1         -2.3902    1.0514    0.0205 O.3       1 <0>        -0.4997
     20 H2          2.0976   -3.1314    3.3545 H         1 <0>         0.1223
     21 H3          1.7813   -3.4817    0.9378 H         1 <0>         0.1237
     22 H4          1.9536   -1.5785   -0.6150 H         1 <0>         0.1227
     23 H5          2.7677    1.0237    2.6645 H         1 <0>         0.1189
     24 H6          2.5871   -0.8781    4.2183 H         1 <0>         0.1229
     25 H7          0.0021   -0.0041    0.0020 H         1 <0>         0.1402
     26 H8         -0.0622    4.9157    0.0245 H         1 <0>         0.1355
     27 H9          2.3336    4.8089   -0.6962 H         1 <0>         0.0841
     28 H10         2.6223    4.3581    1.0185 H         1 <0>         0.0810
     29 H11         3.5122    2.8428   -1.4889 H         1 <0>         0.0780
     30 H12         4.5522    3.6343   -0.2567 H         1 <0>         0.0905
     31 H13         3.4848    2.1269    1.4460 H         1 <0>         0.3425
     32 H14        -3.3507    1.5875    0.0279 H         1 <0>         0.4322
@<TRIPOS>BOND
     1    1    6 ar
     2    1    2 ar
     3    1   20 1
     4    2    3 ar
     5    2   21 1
     6    3    4 ar
     7    3   22 1
     8    4    5 ar
     9    4    7 1
    10    5    6 ar
    11    5   23 1
    12    6   24 1
    13    7    8 1
    14    7   17 1
    15    7    9 1
    16    9   14 ar
    17    9   10 ar
    18   10   11 ar
    19   10   25 1
    20   11   12 ar
    21   11   19 1
    22   12   13 ar
    23   12   18 1
    24   13   14 ar
    25   13   26 1
    26   14   15 1
    27   15   16 1
    28   15   27 1
    29   15   28 1
    30   16   17 1
    31   16   29 1
    32   16   30 1
    33   17   31 1
    34   19   32 1
@<TRIPOS>MOLECULE
ZINC00044027
   41    43     0     0     0
SMALL
USER_CHARGES

@<TRIPOS>ATOM
      1 C1         -4.8538   -4.0638    0.9108 C.3       1 <0>        -0.0548
      2 N1         -4.6244   -2.8061    1.6344 N.4       1 <0>        -0.3863
      3 C2         -4.0000   -3.0949    2.9324 C.3       1 <0>        -0.0478
      4 C3         -3.7364   -1.9420    0.8453 C.3       1 <0>        -0.0093
      5 C4         -4.4383   -1.5396   -0.4533 C.3       1 <0>        -0.1865
      6 C5         -3.5134   -0.6397   -1.2752 C.3       1 <0>         0.1190
      7 N2         -4.1855   -0.2544   -2.5186 N.pl3     1 <0>        -0.5621
      8 C6         -4.9466    0.9115   -2.5039 C.ar      1 <0>         0.1833
      9 C7         -5.4466    1.3707   -1.2896 C.ar      1 <0>        -0.1632
     10 C8         -6.2007    2.5274   -1.2376 C.ar      1 <0>        -0.0789
     11 C9         -6.4648    3.2382   -2.3930 C.ar      1 <0>        -0.1269
     12 C10        -5.9746    2.7903   -3.6059 C.ar      1 <0>        -0.0533
     13 C11        -5.2180    1.6285   -3.6658 C.ar      1 <0>        -0.1513
     14 S1         -4.6102    1.0681   -5.2211 S.3       1 <0>         0.0418
     15 C12        -4.1728   -0.6126   -4.9268 C.ar      1 <0>        -0.1476
     16 C13        -4.0101   -1.0788   -3.6268 C.ar      1 <0>         0.2001
     17 C14        -3.6645   -2.4105   -3.4235 C.ar      1 <0>        -0.1605
     18 C15        -3.4778   -3.2563   -4.5018 C.ar      1 <0>         0.0017
     19 C16        -3.6338   -2.7836   -5.7916 C.ar      1 <0>        -0.1199
     20 C17        -3.9865   -1.4684   -6.0025 C.ar      1 <0>        -0.0415
     21 Cl1        -3.0468   -4.9167   -4.2348 Cl        1 <0>        -0.0547
     22 H1         -5.5127   -4.7049    1.4964 H         1 <0>         0.1270
     23 H2         -5.3171   -3.8495   -0.0523 H         1 <0>         0.1230
     24 H3         -3.9018   -4.5701    0.7514 H         1 <0>         0.1245
     25 H4         -3.0479   -3.6012    2.7730 H         1 <0>         0.1232
     26 H5         -3.8297   -2.1617    3.4693 H         1 <0>         0.1245
     27 H6         -4.6589   -3.7360    3.5180 H         1 <0>         0.1260
     28 H7         -3.4947   -1.0479    1.4199 H         1 <0>         0.1356
     29 H8         -2.8190   -2.4818    0.6102 H         1 <0>         0.1342
     30 H9         -4.6799   -2.4338   -1.0279 H         1 <0>         0.0966
     31 H10        -5.3556   -0.9999   -0.2183 H         1 <0>         0.0979
     32 H11        -3.2718    0.2545   -0.7007 H         1 <0>         0.0984
     33 H12        -2.5960   -1.1794   -1.5103 H         1 <0>         0.0962
     34 H13        -5.2447    0.8199   -0.3828 H         1 <0>         0.1245
     35 H14        -6.5853    2.8770   -0.2909 H         1 <0>         0.1332
     36 H15        -7.0538    4.1423   -2.3487 H         1 <0>         0.1374
     37 H16        -6.1810    3.3459   -4.5088 H         1 <0>         0.1390
     38 H17        -3.5416   -2.7862   -2.4184 H         1 <0>         0.1339
     39 H18        -3.4863   -3.4459   -6.6318 H         1 <0>         0.1476
     40 H19        -4.1082   -1.1006   -7.0106 H         1 <0>         0.1483
     41 H20        -5.5056   -2.3374    1.7820 H         1 <0>         0.4275
@<TRIPOS>BOND
     1    1    2 1
     2    1   22 1
     3    1   23 1
     4    1   24 1
     5    2    3 1
     6    2    4 1
     7    2   41 1
     8    3   25 1
     9    3   26 1
    10    3   27 1
    11    4    5 1
    12    4   28 1
    13    4   29 1
    14    5    6 1
    15    5   30 1
    16    5   31 1
    17    6    7 1
    18    6   32 1
    19    6   33 1
    20    7   16 1
    21    7    8 1
    22    8   13 ar
    23    8    9 ar
    24    9   10 ar
    25    9   34 1
    26   10   11 ar
    27   10   35 1
    28   11   12 ar
    29   11   36 1
    30   12   13 ar
    31   12   37 1
    32   13   14 1
    33   14   15 1
    34   15   20 ar
    35   15   16 ar
    36   16   17 ar
    37   17   18 ar
    38   17   38 1
    39   18   19 ar
    40   18   21 1
    41   19   20 ar
    42   19   39 1
    43   20   40 1
@<TRIPOS>MOLECULE
ZINC19203912
   57    60     0     0     0
SMALL
USER_CHARGES

@<TRIPOS>ATOM
      1 C1          3.4437   -4.9771    0.0368 C.ar      1 <0>        -0.0771
      2 C2          4.3861   -4.5771    0.9651 C.ar      1 <0>        -0.1269
      3 C3          4.2792   -3.3364    1.5664 C.ar      1 <0>        -0.0516
      4 C4          3.2267   -2.4926    1.2411 C.ar      1 <0>        -0.1551
      5 C5          2.2729   -2.8934    0.3097 C.ar      1 <0>         0.1852
      6 C6          2.3926   -4.1422   -0.2915 C.ar      1 <0>        -0.1628
      7 N1          1.1945   -2.0826   -0.0347 N.pl3     1 <0>        -0.5629
      8 C7          1.1709   -0.6955    0.0853 C.ar      1 <0>         0.1857
      9 C8          0.3025    0.0332   -0.7210 C.ar      1 <0>        -0.1188
     10 C9          0.2496    1.4106   -0.6236 C.ar      1 <0>        -0.1465
     11 C10         1.0603    2.0760    0.2765 C.ar      1 <0>        -0.0780
     12 C11         1.9293    1.3621    1.0812 C.ar      1 <0>        -0.0563
     13 C12         1.9888   -0.0211    0.9875 C.ar      1 <0>        -0.1199
     14 S1          3.1095   -0.9136    2.0128 S.3       1 <0>         0.0509
     15 C13        -0.6948    2.1899   -1.5021 C.3       1 <0>         0.5116
     16 F1         -1.9265    2.3299   -0.8537 F         1 <0>        -0.1708
     17 F2         -0.1562    3.4554   -1.7584 F         1 <0>        -0.1684
     18 F3         -0.8783    1.5079   -2.7097 F         1 <0>        -0.1835
     19 C14        -0.0045   -2.7378   -0.5632 C.3       1 <0>         0.1189
     20 C15         0.1003   -2.8415   -2.0861 C.3       1 <0>        -0.1867
     21 C16        -1.1519   -3.5258   -2.6381 C.3       1 <0>        -0.0069
     22 N2         -1.0512   -3.6254   -4.1003 N.4       1 <0>        -0.3853
     23 C17        -1.0537   -2.2775   -4.6839 C.3       1 <0>        -0.0077
     24 C18        -0.9298   -2.3801   -6.2057 C.3       1 <0>         0.0276
     25 N3         -2.0555   -3.1635   -6.7342 N.3       1 <0>        -0.5292
     26 C19        -2.0806   -4.5075   -6.1400 C.3       1 <0>         0.0210
     27 C20        -2.1949   -4.3874   -4.6187 C.3       1 <0>        -0.0006
     28 C21        -2.0033   -3.2371   -8.2004 C.3       1 <0>         0.0537
     29 C22        -3.3078   -3.8378   -8.7277 C.3       1 <0>         0.0765
     30 O1         -4.3924   -2.9556   -8.4318 O.3       1 <0>        -0.5623
     31 H1          3.5314   -5.9436   -0.4370 H         1 <0>         0.1336
     32 H2          5.2052   -5.2329    1.2209 H         1 <0>         0.1378
     33 H3          5.0162   -3.0236    2.2912 H         1 <0>         0.1394
     34 H4          1.6604   -4.4608   -1.0187 H         1 <0>         0.1253
     35 H5         -0.3339   -0.4802   -1.4266 H         1 <0>         0.1363
     36 H6          1.0153    3.1525    0.3512 H         1 <0>         0.1503
     37 H7          2.5627    1.8822    1.7845 H         1 <0>         0.1518
     38 H8         -0.0908   -3.7369   -0.1361 H         1 <0>         0.1000
     39 H9         -0.8850   -2.1522   -0.2987 H         1 <0>         0.0969
     40 H10         0.1866   -1.8424   -2.5133 H         1 <0>         0.0961
     41 H11         0.9808   -3.4271   -2.3506 H         1 <0>         0.0983
     42 H12        -1.2382   -4.5248   -2.2109 H         1 <0>         0.1366
     43 H13        -2.0324   -2.9402   -2.3736 H         1 <0>         0.1359
     44 H14        -1.9853   -1.7726   -4.4284 H         1 <0>         0.1410
     45 H15        -0.2120   -1.7088   -4.2884 H         1 <0>         0.1346
     46 H16        -0.9466   -1.3806   -6.6402 H         1 <0>         0.1248
     47 H17         0.0081   -2.8727   -6.4619 H         1 <0>         0.0594
     48 H18        -2.9369   -5.0601   -6.5265 H         1 <0>         0.1240
     49 H19        -1.1616   -5.0352   -6.3950 H         1 <0>         0.0595
     50 H20        -2.1994   -5.3829   -4.1749 H         1 <0>         0.1362
     51 H21        -3.1207   -3.8717   -4.3635 H         1 <0>         0.1397
     52 H22        -1.8729   -2.2354   -8.6100 H         1 <0>         0.0976
     53 H23        -1.1655   -3.8653   -8.5031 H         1 <0>         0.0611
     54 H24        -3.2348   -3.9748   -9.8066 H         1 <0>         0.0597
     55 H25        -3.4830   -4.8019   -8.2501 H         1 <0>         0.0455
     56 H26        -5.2528   -3.2736   -8.7380 H         1 <0>         0.3848
     57 H27        -0.1938   -4.0966   -4.3468 H         1 <0>         0.4201
@<TRIPOS>BOND
     1    1    6 ar
     2    1    2 ar
     3    1   31 1
     4    2    3 ar
     5    2   32 1
     6    3    4 ar
     7    3   33 1
     8    4   14 1
     9    4    5 ar
    10    5    6 ar
    11    5    7 1
    12    6   34 1
    13    7    8 1
    14    7   19 1
    15    8   13 ar
    16    8    9 ar
    17    9   10 ar
    18    9   35 1
    19   10   11 ar
    20   10   15 1
    21   11   12 ar
    22   11   36 1
    23   12   13 ar
    24   12   37 1
    25   13   14 1
    26   15   16 1
    27   15   17 1
    28   15   18 1
    29   19   20 1
    30   19   38 1
    31   19   39 1
    32   20   21 1
    33   20   40 1
    34   20   41 1
    35   21   22 1
    36   21   42 1
    37   21   43 1
    38   22   27 1
    39   22   23 1
    40   22   57 1
    41   23   24 1
    42   23   44 1
    43   23   45 1
    44   24   25 1
    45   24   46 1
    46   24   47 1
    47   25   26 1
    48   25   28 1
    49   26   27 1
    50   26   48 1
    51   26   49 1
    52   27   50 1
    53   27   51 1
    54   28   29 1
    55   28   52 1
    56   28   53 1
    57   29   30 1
    58   29   54 1
    59   29   55 1
    60   30   56 1
@<TRIPOS>MOLECULE
ZINC19203912
   56    59     0     0     0
SMALL
USER_CHARGES

@<TRIPOS>ATOM
      1 C1          3.4437   -4.9771    0.0368 C.ar      1 <0>        -0.0761
      2 C2          4.3861   -4.5771    0.9651 C.ar      1 <0>        -0.1361
      3 C3          4.2791   -3.3364    1.5665 C.ar      1 <0>        -0.0570
      4 C4          3.2267   -2.4926    1.2411 C.ar      1 <0>        -0.1593
      5 C5          2.2729   -2.8934    0.3097 C.ar      1 <0>         0.1939
      6 C6          2.3926   -4.1423   -0.2915 C.ar      1 <0>        -0.1569
      7 N1          1.1945   -2.0826   -0.0347 N.pl3     1 <0>        -0.5619
      8 C7          1.1709   -0.6955    0.0853 C.ar      1 <0>         0.1955
      9 C8          0.3025    0.0332   -0.7210 C.ar      1 <0>        -0.1146
     10 C9          0.2496    1.4106   -0.6236 C.ar      1 <0>        -0.1450
     11 C10         1.0603    2.0760    0.2765 C.ar      1 <0>        -0.0881
     12 C11         1.9293    1.3621    1.0812 C.ar      1 <0>        -0.0606
     13 C12         1.9888   -0.0211    0.9875 C.ar      1 <0>        -0.1248
     14 S1          3.1095   -0.9136    2.0128 S.3       1 <0>         0.0333
     15 C13        -0.6948    2.1899   -1.5021 C.3       1 <0>         0.5100
     16 F1         -1.9265    2.3299   -0.8538 F         1 <0>        -0.1736
     17 F2         -0.1562    3.4554   -1.7585 F         1 <0>        -0.1731
     18 F3         -0.8783    1.5079   -2.7098 F         1 <0>        -0.1757
     19 C14        -0.0045   -2.7378   -0.5632 C.3       1 <0>         0.1110
     20 C15         0.1003   -2.8415   -2.0861 C.3       1 <0>        -0.1461
     21 C16        -1.1519   -3.5258   -2.6381 C.3       1 <0>         0.0578
     22 N2         -1.0512   -3.6254   -4.1003 N.3       1 <0>        -0.5385
     23 C17        -1.0812   -2.2942   -4.7221 C.3       1 <0>         0.0549
     24 C18        -0.8944   -2.4363   -6.2345 C.3       1 <0>         0.0578
     25 N3         -1.9576   -3.2926   -6.7785 N.3       1 <0>        -0.5305
     26 C19        -1.9276   -4.6238   -6.1566 C.3       1 <0>         0.0544
     27 C20        -2.1144   -4.4817   -4.6442 C.3       1 <0>         0.0587
     28 C21        -1.8569   -3.3922   -8.2407 C.3       1 <0>         0.0540
     29 C22        -3.1092   -4.0765   -8.7927 C.3       1 <0>         0.0795
     30 O1         -4.2499   -3.2515   -8.5476 O.3       1 <0>        -0.5595
     31 H1          3.5314   -5.9437   -0.4370 H         1 <0>         0.1321
     32 H2          5.2051   -5.2329    1.2210 H         1 <0>         0.1329
     33 H3          5.0162   -3.0236    2.2912 H         1 <0>         0.1343
     34 H4          1.6604   -4.4608   -1.0187 H         1 <0>         0.1361
     35 H5         -0.3339   -0.4802   -1.4266 H         1 <0>         0.1444
     36 H6          1.0154    3.1525    0.3511 H         1 <0>         0.1457
     37 H7          2.5627    1.8822    1.7845 H         1 <0>         0.1470
     38 H8         -0.0908   -3.7369   -0.1361 H         1 <0>         0.0906
     39 H9         -0.8850   -2.1522   -0.2987 H         1 <0>         0.0854
     40 H10         0.1866   -1.8424   -2.5133 H         1 <0>         0.0726
     41 H11         0.9808   -3.4271   -2.3506 H         1 <0>         0.0833
     42 H12        -1.2382   -4.5248   -2.2109 H         1 <0>         0.0786
     43 H13        -2.0324   -2.9402   -2.3736 H         1 <0>         0.0388
     44 H14        -2.0403   -1.8186   -4.5173 H         1 <0>         0.0453
     45 H15        -0.2770   -1.6831   -4.3122 H         1 <0>         0.0803
     46 H16        -0.9452   -1.4526   -6.7012 H         1 <0>         0.0803
     47 H17         0.0765   -2.8870   -6.4403 H         1 <0>         0.0414
     48 H18        -2.7318   -5.2348   -6.5666 H         1 <0>         0.0801
     49 H19        -0.9685   -5.0993   -6.3615 H         1 <0>         0.0413
     50 H20        -2.0636   -5.4654   -4.1775 H         1 <0>         0.0795
     51 H21        -3.0853   -4.0310   -4.4385 H         1 <0>         0.0447
     52 H22        -1.7706   -2.3931   -8.6678 H         1 <0>         0.0833
     53 H23        -0.9764   -3.9778   -8.5052 H         1 <0>         0.0490
     54 H24        -2.9959   -4.2305   -9.8658 H         1 <0>         0.0487
     55 H25        -3.2443   -5.0392   -8.2997 H         1 <0>         0.0452
     56 H26        -5.0815   -3.6238   -8.8718 H         1 <0>         0.3752
@<TRIPOS>BOND
     1    1    6 ar
     2    1    2 ar
     3    1   31 1
     4    2    3 ar
     5    2   32 1
     6    3    4 ar
     7    3   33 1
     8    4   14 1
     9    4    5 ar
    10    5    6 ar
    11    5    7 1
    12    6   34 1
    13    7    8 1
    14    7   19 1
    15    8   13 ar
    16    8    9 ar
    17    9   10 ar
    18    9   35 1
    19   10   11 ar
    20   10   15 1
    21   11   12 ar
    22   11   36 1
    23   12   13 ar
    24   12   37 1
    25   13   14 1
    26   15   16 1
    27   15   17 1
    28   15   18 1
    29   19   20 1
    30   19   38 1
    31   19   39 1
    32   20   21 1
    33   20   40 1
    34   20   41 1
    35   21   22 1
    36   21   42 1
    37   21   43 1
    38   22   27 1
    39   22   23 1
    40   23   24 1
    41   23   44 1
    42   23   45 1
    43   24   25 1
    44   24   46 1
    45   24   47 1
    46   25   26 1
    47   25   28 1
    48   26   27 1
    49   26   48 1
    50   26   49 1
    51   27   50 1
    52   27   51 1
    53   28   29 1
    54   28   52 1
    55   28   53 1
    56   29   30 1
    57   29   54 1
    58   29   55 1
    59   30   56 1
