@<TRIPOS>MOLECULE
ZINC12375863
   21    21     0     0     0
SMALL
USER_CHARGES

@<TRIPOS>ATOM
      1 C1         -0.0167    1.3798    0.0096 C.ar      1 <0>        -0.0979
      2 C2          1.1680    2.0953    0.0022 C.ar      1 <0>        -0.1353
      3 C3          2.3774    1.4332   -0.0134 C.ar      1 <0>        -0.0672
      4 C4          2.4048    0.0349   -0.0211 C.ar      1 <0>        -0.1587
      5 C5          1.2034   -0.6808   -0.0130 C.ar      1 <0>        -0.0741
      6 C6          0.0021   -0.0041    0.0020 C.ar      1 <0>        -0.1336
      7 C7          3.6913   -0.6795   -0.0381 C.2       1 <0>         0.3824
      8 O1          4.7311   -0.0559   -0.0455 O.2       1 <0>        -0.4180
      9 C8          3.7163   -2.1863   -0.0464 C.3       1 <0>        -0.2118
     10 C9          5.1452   -2.6649   -0.0637 C.2       1 <0>         0.2901
     11 C10         5.4424   -4.1285   -0.0745 C.2       1 <0>         0.4695
     12 O2          6.5996   -4.5161   -0.0885 O.co2     1 <0>        -0.6521
     13 O3          4.5281   -4.9369   -0.0694 O.co2     1 <0>        -0.6689
     14 O4          6.0500   -1.8649   -0.0687 O.2       1 <0>        -0.4222
     15 H1         -0.9607    1.9041    0.0260 H         1 <0>         0.1235
     16 H2          1.1452    3.1750    0.0081 H         1 <0>         0.1254
     17 H3          3.3011    1.9929   -0.0199 H         1 <0>         0.1320
     18 H4          1.2164   -1.7607   -0.0192 H         1 <0>         0.1376
     19 H5         -0.9266   -0.5553    0.0082 H         1 <0>         0.1278
     20 H6          3.2178   -2.5629    0.8468 H         1 <0>         0.1258
     21 H7          3.1995   -2.5534   -0.9331 H         1 <0>         0.1258
@<TRIPOS>BOND
     1    1    6 ar
     2    1    2 ar
     3    1   15 1
     4    2    3 ar
     5    2   16 1
     6    3    4 ar
     7    3   17 1
     8    4    5 ar
     9    4    7 1
    10    5    6 ar
    11    5   18 1
    12    6   19 1
    13    7    8 2
    14    7    9 1
    15    9   10 1
    16    9   20 1
    17    9   21 1
    18   10   11 1
    19   10   14 2
    20   11   12 2
    21   11   13 1
@<TRIPOS>MOLECULE
ZINC13588429
   40    43     0     0     0
SMALL
USER_CHARGES
1-cyclohexyl-2-(2-thienyl)benzimidazole-5-carboxylic acid
@<TRIPOS>ATOM
      1 C1         -0.0142    0.0084   -0.2376 C.2       1 <0>        -0.1517
      2 C2         -0.0244    1.3829   -0.2249 C.2       1 <0>        -0.1108
      3 C3          1.1780    2.0487   -0.0717 C.2       1 <0>        -0.0869
      4 S1          2.3333    0.6933    0.0552 S.3       1 <0>         0.0644
      5 C4          1.1675   -0.6494   -0.1004 C.2       1 <0>        -0.1779
      6 C5          1.4373    3.4951   -0.0258 C.2       1 <0>         0.3278
      7 N1          0.5287    4.4197    0.1854 N.2       1 <0>        -0.4562
      8 C6          1.1131    5.6433    0.1629 C.ar      1 <0>         0.0323
      9 C7          0.6236    6.9396    0.3265 C.ar      1 <0>        -0.0256
     10 C8          1.4996    8.0186    0.2457 C.ar      1 <0>        -0.1229
     11 C9          2.8627    7.8028    0.0014 C.ar      1 <0>        -0.0406
     12 C10         3.3449    6.5361   -0.1591 C.ar      1 <0>        -0.1429
     13 C11         2.4858    5.4459   -0.0814 C.ar      1 <0>         0.0712
     14 N2          2.6657    4.0827   -0.1912 N.pl3     1 <0>        -0.4820
     15 C12         3.9328    3.3911   -0.4412 C.3       1 <0>         0.1428
     16 C13         4.8901    3.6430    0.7255 C.3       1 <0>        -0.1336
     17 C14         6.2134    2.9208    0.4644 C.3       1 <0>        -0.1142
     18 C15         6.8361    3.4490   -0.8294 C.3       1 <0>        -0.1240
     19 C16         5.8789    3.1971   -1.9961 C.3       1 <0>        -0.1143
     20 C17         4.5556    3.9194   -1.7350 C.3       1 <0>        -0.1344
     21 C18         0.9915    9.3931    0.4173 C.2       1 <0>         0.4939
     22 O1         -0.1899    9.5820    0.6288 O.co2     1 <0>        -0.6291
     23 H1         -0.9354   -0.5431   -0.3551 H         1 <0>         0.1398
     24 H2         -0.9489    1.9299   -0.3364 H         1 <0>         0.1470
     25 H3          1.3534   -1.7132   -0.0881 H         1 <0>         0.1884
     26 H4         -0.4269    7.1046    0.5147 H         1 <0>         0.1368
     27 H5          3.5364    8.6447   -0.0599 H         1 <0>         0.1406
     28 H6          4.3970    6.3801   -0.3466 H         1 <0>         0.1177
     29 H7          3.7500    2.3208   -0.5365 H         1 <0>         0.0972
     30 H8          5.0730    4.7133    0.8208 H         1 <0>         0.0783
     31 H9          4.4465    3.2667    1.6472 H         1 <0>         0.0696
     32 H10         6.0305    1.8505    0.3691 H         1 <0>         0.0648
     33 H11         6.8954    3.1003    1.2956 H         1 <0>         0.0706
     34 H12         7.7789    2.9345   -1.0154 H         1 <0>         0.0663
     35 H13         7.0190    4.5193   -0.7341 H         1 <0>         0.0667
     36 H14         5.6960    2.1268   -2.0914 H         1 <0>         0.0646
     37 H15         6.3225    3.5735   -2.9178 H         1 <0>         0.0707
     38 H16         3.8736    3.7399   -2.5662 H         1 <0>         0.0701
     39 H17         4.7384    4.9897   -1.6397 H         1 <0>         0.0803
     40 O2          1.8377   10.4387    0.3395 O.co2     1 <0>        -0.7548
@<TRIPOS>BOND
     1    1    5 2
     2    1    2 1
     3    1   23 1
     4    2    3 2
     5    2   24 1
     6    3    4 1
     7    3    6 1
     8    4    5 1
     9    5   25 1
    10    6   14 1
    11    6    7 2
    12    7    8 1
    13    8   13 ar
    14    8    9 ar
    15    9   10 ar
    16    9   26 1
    17   10   11 ar
    18   10   21 1
    19   11   12 ar
    20   11   27 1
    21   12   13 ar
    22   12   28 1
    23   13   14 1
    24   14   15 1
    25   15   20 1
    26   15   16 1
    27   15   29 1
    28   16   17 1
    29   16   30 1
    30   16   31 1
    31   17   18 1
    32   17   32 1
    33   17   33 1
    34   18   19 1
    35   18   34 1
    36   18   35 1
    37   19   20 1
    38   19   36 1
    39   19   37 1
    40   20   38 1
    41   20   39 1
    42   21   22 2
    43   21   40 1
@<TRIPOS>MOLECULE
ZINC13531955
   31    31     0     0     0
SMALL
USER_CHARGES

@<TRIPOS>ATOM
      1 C1         -0.0187    1.5258    0.0104 C.3       1 <0>        -0.1473
      2 C2          0.0021   -0.0041    0.0020 C.3       1 <0>        -0.1250
      3 C3          0.7421   -0.5109    1.2415 C.3       1 <0>         0.0541
      4 O1          0.7614   -1.9398    1.2337 O.3       1 <0>        -0.2816
      5 C4          1.3838   -2.5527    2.2708 C.ar      1 <0>         0.1803
      6 C5          1.9609   -1.7984    3.2816 C.ar      1 <0>        -0.2280
      7 C6          2.5947   -2.4237    4.3367 C.ar      1 <0>        -0.0558
      8 C7          2.6605   -3.8071    4.3966 C.ar      1 <0>        -0.1732
      9 C8          2.0940   -4.5740    3.4035 C.ar      1 <0>        -0.0357
     10 C9          1.4423   -3.9547    2.3300 C.ar      1 <0>        -0.1944
     11 C10         0.8299   -4.7651    1.2704 C.2       1 <0>         0.3791
     12 O2          0.2710   -4.2242    0.3396 O.2       1 <0>        -0.4011
     13 C11         0.8957   -6.2691    1.3389 C.3       1 <0>        -0.2100
     14 C12         0.1974   -6.8576    0.1401 C.2       1 <0>         0.2900
     15 O3         -0.3022   -6.1306   -0.6849 O.2       1 <0>        -0.4210
     16 C13         0.1231   -8.3398   -0.0278 C.2       1 <0>         0.4695
     17 O4         -0.4425   -8.8163   -0.9986 O.co2     1 <0>        -0.6534
     18 O5          0.6279   -9.0744    0.8059 O.co2     1 <0>        -0.6699
     19 H1          1.0039    1.9031    0.0027 H         1 <0>         0.0556
     20 H2         -0.5459    1.8868   -0.8726 H         1 <0>         0.0640
     21 H3         -0.5289    1.8773    0.9072 H         1 <0>         0.0556
     22 H4         -1.0205   -0.3814    0.0098 H         1 <0>         0.0761
     23 H5          0.5123   -0.3556   -0.8948 H         1 <0>         0.0761
     24 H6          1.7647   -0.1336    1.2338 H         1 <0>         0.0606
     25 H7          0.2319   -0.1594    2.1383 H         1 <0>         0.0606
     26 H8          1.9148   -0.7201    3.2430 H         1 <0>         0.1298
     27 H9          3.0425   -1.8310    5.1206 H         1 <0>         0.1258
     28 H10         3.1591   -4.2857    5.2265 H         1 <0>         0.1292
     29 H11         2.1486   -5.6514    3.4543 H         1 <0>         0.1436
     30 H12         1.9381   -6.5873    1.3446 H         1 <0>         0.1231
     31 H13         0.4058   -6.6130    2.2499 H         1 <0>         0.1231
@<TRIPOS>BOND
     1    1    2 1
     2    1   19 1
     3    1   20 1
     4    1   21 1
     5    2    3 1
     6    2   22 1
     7    2   23 1
     8    3    4 1
     9    3   24 1
    10    3   25 1
    11    4    5 1
    12    5   10 ar
    13    5    6 ar
    14    6    7 ar
    15    6   26 1
    16    7    8 ar
    17    7   27 1
    18    8    9 ar
    19    8   28 1
    20    9   10 ar
    21    9   29 1
    22   10   11 1
    23   11   12 2
    24   11   13 1
    25   13   14 1
    26   13   30 1
    27   13   31 1
    28   14   15 2
    29   14   16 1
    30   16   17 2
    31   16   18 1
@<TRIPOS>MOLECULE
ZINC20315097
   24    24     0     0     0
SMALL
USER_CHARGES

@<TRIPOS>ATOM
      1 C1         -0.0184    1.5028    0.0103 C.3       1 <0>        -0.1171
      2 C2          0.0021   -0.0041    0.0020 C.ar      1 <0>        -0.0656
      3 C3          0.0056   -0.6858   -1.2025 C.ar      1 <0>        -0.1360
      4 C4          0.0238   -2.0645   -1.2184 C.ar      1 <0>        -0.0622
      5 C5          0.0392   -2.7739   -0.0132 C.ar      1 <0>        -0.1644
      6 C6          0.0359   -2.0776    1.1997 C.ar      1 <0>        -0.0693
      7 C7          0.0229   -0.6988    1.1989 C.ar      1 <0>        -0.1343
      8 C8          0.0582   -4.2454   -0.0213 C.2       1 <0>         0.3830
      9 O1          0.0605   -4.8459   -1.0747 O.2       1 <0>        -0.4192
     10 C9          0.0747   -5.0059    1.2796 C.3       1 <0>        -0.2118
     11 C10         0.0923   -6.4859    0.9961 C.2       1 <0>         0.2901
     12 O2          0.0916   -6.8822   -0.1448 O.2       1 <0>        -0.4222
     13 C11         0.1107   -7.4625    2.1259 C.2       1 <0>         0.4695
     14 O3          0.1251   -8.6611    1.8963 O.co2     1 <0>        -0.6522
     15 O4          0.1115   -7.0620    3.2788 O.co2     1 <0>        -0.6690
     16 H1          1.0042    1.8801    0.0026 H         1 <0>         0.0723
     17 H2         -0.5455    1.8639   -0.8728 H         1 <0>         0.0668
     18 H3         -0.5286    1.8543    0.9071 H         1 <0>         0.0680
     19 H4         -0.0062   -0.1366   -2.1323 H         1 <0>         0.1250
     20 H5          0.0259   -2.5951   -2.1591 H         1 <0>         0.1322
     21 H6          0.0473   -2.6184    2.1344 H         1 <0>         0.1378
     22 H7          0.0248   -0.1596    2.1346 H         1 <0>         0.1275
     23 H8          0.9641   -4.7342    1.8480 H         1 <0>         0.1255
     24 H9         -0.8157   -4.7572    1.8571 H         1 <0>         0.1255
@<TRIPOS>BOND
     1    1    2 1
     2    1   16 1
     3    1   17 1
     4    1   18 1
     5    2    7 ar
     6    2    3 ar
     7    3    4 ar
     8    3   19 1
     9    4    5 ar
    10    4   20 1
    11    5    6 ar
    12    5    8 1
    13    6    7 ar
    14    6   21 1
    15    7   22 1
    16    8    9 2
    17    8   10 1
    18   10   11 1
    19   10   23 1
    20   10   24 1
    21   11   12 2
    22   11   13 1
    23   13   14 2
    24   13   15 1
@<TRIPOS>MOLECULE
ZINC13586781
   40    43     0     0     0
SMALL
USER_CHARGES
1-cyclohexyl-2-(3-furyl)benzimidazole-5-carboxylic acid
@<TRIPOS>ATOM
      1 C1          2.2507    1.4525   -0.6443 C.ar      1 <0>        -0.0449
      2 C2          2.3138    0.0892   -0.6172 C.ar      1 <0>        -0.1421
      3 C3          1.1863   -0.6562   -0.2935 C.ar      1 <0>         0.0654
      4 C4         -0.0273   -0.0086    0.0077 C.ar      1 <0>         0.0308
      5 C5         -0.0883    1.3842   -0.0210 C.ar      1 <0>        -0.0279
      6 C6          1.0518    2.1142   -0.3471 C.ar      1 <0>        -0.1238
      7 C7          0.9972    3.5882   -0.3801 C.2       1 <0>         0.4938
      8 O1         -0.0416    4.1635   -0.1230 O.co2     1 <0>        -0.6299
      9 N1         -0.9401   -0.9748    0.2812 N.2       1 <0>        -0.4671
     10 C8         -0.3775   -2.1536    0.1698 C.2       1 <0>         0.3227
     11 N2          0.9377   -2.0086   -0.1839 N.pl3     1 <0>        -0.4839
     12 C9          1.9019   -3.0893   -0.4045 C.3       1 <0>         0.1400
     13 C10         3.0167   -2.9992    0.6395 C.3       1 <0>        -0.1361
     14 C11         4.0236   -4.1279    0.4091 C.3       1 <0>        -0.1144
     15 C12         4.6249   -3.9968   -0.9917 C.3       1 <0>        -0.1242
     16 C13         3.5101   -4.0869   -2.0357 C.3       1 <0>        -0.1141
     17 C14         2.5032   -2.9582   -1.8053 C.3       1 <0>        -0.1345
     18 C15        -1.0598   -3.4450    0.3926 C.2       1 <0>        -0.1082
     19 C16        -2.4853   -3.7407    0.1967 C.2       1 <0>        -0.1715
     20 C17        -2.6423   -5.0348    0.5184 C.2       1 <0>        -0.0381
     21 O2         -1.4577   -5.5397    0.8955 O.3       1 <0>        -0.1760
     22 C18        -0.4992   -4.6071    0.8278 C.2       1 <0>        -0.0181
     23 H1          3.1310    2.0252   -0.8964 H         1 <0>         0.1391
     24 H2          3.2425   -0.4116   -0.8475 H         1 <0>         0.1159
     25 H3         -1.0142    1.8929    0.2037 H         1 <0>         0.1350
     26 H4          1.3966   -4.0509   -0.3145 H         1 <0>         0.0972
     27 H5          3.5219   -2.0376    0.5495 H         1 <0>         0.0787
     28 H6          2.5883   -3.0926    1.6374 H         1 <0>         0.0691
     29 H7          3.5184   -5.0895    0.4991 H         1 <0>         0.0635
     30 H8          4.8178   -4.0637    1.1529 H         1 <0>         0.0703
     31 H9          5.3422   -4.8009   -1.1558 H         1 <0>         0.0657
     32 H10         5.1301   -3.0352   -1.0817 H         1 <0>         0.0666
     33 H11         3.0049   -5.0485   -1.9457 H         1 <0>         0.0636
     34 H12         3.9385   -3.9935   -3.0336 H         1 <0>         0.0698
     35 H13         1.7090   -3.0224   -2.5491 H         1 <0>         0.0696
     36 H14         3.0084   -1.9966   -1.8953 H         1 <0>         0.0793
     37 H15        -3.2506   -3.0572   -0.1403 H         1 <0>         0.1601
     38 H16        -3.5737   -5.5805    0.4836 H         1 <0>         0.2086
     39 H17         0.5417   -4.7519    1.0764 H         1 <0>         0.2054
     40 O3          2.0993    4.2963   -0.6955 O.co2     1 <0>        -0.7557
@<TRIPOS>BOND
     1    1    6 ar
     2    1    2 ar
     3    1   23 1
     4    2    3 ar
     5    2   24 1
     6    3   11 1
     7    3    4 ar
     8    4    5 ar
     9    4    9 1
    10    5    6 ar
    11    5   25 1
    12    6    7 1
    13    7    8 2
    14    7   40 1
    15    9   10 2
    16   10   11 1
    17   10   18 1
    18   11   12 1
    19   12   17 1
    20   12   13 1
    21   12   26 1
    22   13   14 1
    23   13   27 1
    24   13   28 1
    25   14   15 1
    26   14   29 1
    27   14   30 1
    28   15   16 1
    29   15   31 1
    30   15   32 1
    31   16   17 1
    32   16   33 1
    33   16   34 1
    34   17   35 1
    35   17   36 1
    36   18   22 2
    37   18   19 1
    38   19   20 2
    39   19   37 1
    40   20   21 1
    41   20   38 1
    42   21   22 1
    43   22   39 1
@<TRIPOS>MOLECULE
ZINC03596259
   48    51     0     0     0
SMALL
USER_CHARGES

@<TRIPOS>ATOM
      1 C1         -0.0187    1.5258    0.0104 C.3       1 <0>        -0.1433
      2 C2          0.0021   -0.0041    0.0020 C.3       1 <0>        -0.0941
      3 C3          0.7421   -0.5109    1.2415 C.3       1 <0>        -0.1469
      4 C4         -1.4333   -0.5336    0.0129 C.3       1 <0>        -0.1281
      5 C5         -1.4157   -2.0577   -0.1212 C.3       1 <0>         0.1082
      6 N1         -2.7901   -2.5647   -0.1108 N.pl3     1 <0>        -0.5245
      7 C6         -3.3736   -2.8968    1.0956 C.ar      1 <0>         0.2178
      8 C7         -2.6704   -2.7532    2.2876 C.ar      1 <0>        -0.1981
      9 C8         -3.2678   -3.0889    3.4831 C.ar      1 <0>        -0.0820
     10 C9         -4.5685   -3.5713    3.5131 C.ar      1 <0>        -0.1930
     11 C10        -5.2821   -3.7210    2.3447 C.ar      1 <0>        -0.0371
     12 C11        -4.6901   -3.3846    1.1269 C.ar      1 <0>        -0.1845
     13 C12        -5.4246   -3.5322   -0.1431 C.2       1 <0>         0.4185
     14 C13        -4.7563   -3.1700   -1.3429 C.2       1 <0>        -0.4057
     15 C14        -3.4543   -2.6894   -1.2839 C.2       1 <0>         0.4996
     16 O1         -2.8318   -2.3433   -2.4285 O.3       1 <0>        -0.6107
     17 C15        -5.4415   -3.2968   -2.6403 C.2       1 <0>         0.5474
     18 N2         -4.7764   -2.9550   -3.6997 N.2       1 <0>        -0.9483
     19 S1         -5.4644   -3.0520   -5.2051 S.o2      1 <0>         2.5895
     20 O2         -5.2831   -1.7845   -5.8214 O.2       1 <0>        -1.0195
     21 O3         -5.0006   -4.2607   -5.7909 O.2       1 <0>        -1.0289
     22 C16        -7.1968   -3.2434   -4.9347 C.ar      1 <0>        -0.7950
     23 C17        -8.0952   -3.0649   -5.9630 C.ar      1 <0>         0.0095
     24 C18        -9.4505   -3.2180   -5.7272 C.ar      1 <0>        -0.2487
     25 C19        -9.8995   -3.5490   -4.4615 C.ar      1 <0>        -0.0677
     26 C20        -9.0014   -3.7290   -3.4285 C.ar      1 <0>        -0.1749
     27 C21        -7.6391   -3.5784   -3.6597 C.ar      1 <0>         0.2809
     28 N3         -6.7222   -3.7696   -2.6281 N.2       1 <0>        -0.6833
     29 O4         -6.5693   -3.9522   -0.1628 O.2       1 <0>        -0.5035
     30 H1          1.0039    1.9031    0.0027 H         1 <0>         0.0476
     31 H2         -0.5459    1.8868   -0.8726 H         1 <0>         0.0558
     32 H3         -0.5289    1.8773    0.9072 H         1 <0>         0.0506
     33 H4          0.5123   -0.3556   -0.8948 H         1 <0>         0.0721
     34 H5          0.2319   -0.1594    2.1383 H         1 <0>         0.0522
     35 H6          0.7568   -1.6008    1.2356 H         1 <0>         0.0563
     36 H7          1.7647   -0.1336    1.2338 H         1 <0>         0.0475
     37 H8         -1.9156   -0.2570    0.9504 H         1 <0>         0.0588
     38 H9         -1.9862   -0.1019   -0.8214 H         1 <0>         0.0750
     39 H10        -0.9334   -2.3344   -1.0587 H         1 <0>         0.0910
     40 H11        -0.8628   -2.4894    0.7131 H         1 <0>         0.0687
     41 H12        -1.6572   -2.3794    2.2759 H         1 <0>         0.1194
     42 H13        -2.7182   -2.9758    4.4058 H         1 <0>         0.1105
     43 H14        -5.0235   -3.8310    4.4575 H         1 <0>         0.1103
     44 H15        -6.2944   -4.0963    2.3710 H         1 <0>         0.1266
     45 H16        -7.7433   -2.8058   -6.9507 H         1 <0>         0.0957
     46 H17       -10.1576   -3.0787   -6.5315 H         1 <0>         0.0964
     47 H18       -10.9577   -3.6667   -4.2804 H         1 <0>         0.0989
     48 H19        -9.3570   -3.9865   -2.4418 H         1 <0>         0.1130
@<TRIPOS>BOND
     1    1    2 1
     2    1   30 1
     3    1   31 1
     4    1   32 1
     5    2    3 1
     6    2    4 1
     7    2   33 1
     8    3   34 1
     9    3   35 1
    10    3   36 1
    11    4    5 1
    12    4   37 1
    13    4   38 1
    14    5    6 1
    15    5   39 1
    16    5   40 1
    17    6   15 1
    18    6    7 1
    19    7   12 ar
    20    7    8 ar
    21    8    9 ar
    22    8   41 1
    23    9   10 ar
    24    9   42 1
    25   10   11 ar
    26   10   43 1
    27   11   12 ar
    28   11   44 1
    29   12   13 1
    30   13   14 1
    31   13   29 2
    32   14   15 2
    33   14   17 1
    34   15   16 1
    35   17   28 1
    36   17   18 2
    37   18   19 1
    38   19   20 2
    39   19   21 2
    40   19   22 1
    41   22   27 ar
    42   22   23 ar
    43   23   24 ar
    44   23   45 1
    45   24   25 ar
    46   24   46 1
    47   25   26 ar
    48   25   47 1
    49   26   27 ar
    50   26   48 1
    51   27   28 1
@<TRIPOS>MOLECULE
ZINC13680355
   45    48     0     0     0
SMALL
USER_CHARGES

@<TRIPOS>ATOM
      1 C1         -0.0187    1.5258    0.0104 C.3       1 <0>        -0.1489
      2 C2          0.0021   -0.0041    0.0020 C.3       1 <0>        -0.1178
      3 C3         -1.4333   -0.5336    0.0129 C.3       1 <0>        -0.1342
      4 C4         -1.4126   -2.0635    0.0045 C.3       1 <0>         0.1086
      5 N1         -2.7870   -2.5706    0.0149 N.pl3     1 <0>        -0.5247
      6 C5         -3.4069   -2.8040    1.2262 C.ar      1 <0>         0.2176
      7 C6         -2.7399   -2.5621    2.4232 C.ar      1 <0>        -0.1982
      8 C7         -3.3734   -2.8000    3.6235 C.ar      1 <0>        -0.0820
      9 C8         -4.6746   -3.2807    3.6537 C.ar      1 <0>        -0.1930
     10 C9         -5.3527   -3.5268    2.4804 C.ar      1 <0>        -0.0371
     11 C10        -4.7240   -3.2900    1.2577 C.ar      1 <0>        -0.1844
     12 C11        -5.4199   -3.5423   -0.0176 C.2       1 <0>         0.4185
     13 C12        -4.7155   -3.2782   -1.2223 C.2       1 <0>        -0.4057
     14 C13        -3.4155   -2.7920   -1.1636 C.2       1 <0>         0.4996
     15 O1         -2.7586   -2.5394   -2.3134 O.3       1 <0>        -0.6107
     16 C14        -5.3612   -3.5119   -2.5251 C.2       1 <0>         0.5474
     17 N2         -4.6643   -3.2566   -3.5884 N.2       1 <0>        -0.9484
     18 S1         -5.3066   -3.4776   -5.1008 S.o2      1 <0>         2.5897
     19 O2         -5.1060   -2.2644   -5.8129 O.2       1 <0>        -1.0195
     20 O3         -4.8260   -4.7293   -5.5715 O.2       1 <0>        -1.0289
     21 C15        -7.0465   -3.6495   -4.8680 C.ar      1 <0>        -0.7952
     22 C16        -7.9133   -3.5574   -5.9341 C.ar      1 <0>         0.0096
     23 C17        -9.2752   -3.6932   -5.7275 C.ar      1 <0>        -0.2488
     24 C18        -9.7624   -3.9204   -4.4531 C.ar      1 <0>        -0.0676
     25 C19        -8.8960   -4.0137   -3.3822 C.ar      1 <0>        -0.1749
     26 C20        -7.5273   -3.8800   -3.5838 C.ar      1 <0>         0.2810
     27 N3         -6.6421   -3.9845   -2.5129 N.2       1 <0>        -0.6833
     28 O4         -6.5638   -3.9647   -0.0374 O.2       1 <0>        -0.5034
     29 H1          1.0039    1.9031    0.0027 H         1 <0>         0.0471
     30 H2         -0.5459    1.8868   -0.8726 H         1 <0>         0.0552
     31 H3         -0.5289    1.8773    0.9072 H         1 <0>         0.0501
     32 H4          0.5123   -0.3556   -0.8948 H         1 <0>         0.0635
     33 H5          0.5293   -0.3651    0.8851 H         1 <0>         0.0557
     34 H6         -1.9435   -0.1821    0.9097 H         1 <0>         0.0581
     35 H7         -1.9605   -0.1726   -0.8702 H         1 <0>         0.0749
     36 H8         -0.9024   -2.4150   -0.8923 H         1 <0>         0.0918
     37 H9         -0.8854   -2.4246    0.8875 H         1 <0>         0.0668
     38 H10        -1.7266   -2.1886    2.4115 H         1 <0>         0.1195
     39 H11        -2.8517   -2.6108    4.5501 H         1 <0>         0.1107
     40 H12        -5.1581   -3.4632    4.6020 H         1 <0>         0.1104
     41 H13        -6.3656   -3.9006    2.5068 H         1 <0>         0.1267
     42 H14        -7.5316   -3.3792   -6.9286 H         1 <0>         0.0957
     43 H15        -9.9576   -3.6214   -6.5615 H         1 <0>         0.0965
     44 H16       -10.8257   -4.0249   -4.2950 H         1 <0>         0.0989
     45 H17        -9.2814   -4.1904   -2.3889 H         1 <0>         0.1130
@<TRIPOS>BOND
     1    1    2 1
     2    1   29 1
     3    1   30 1
     4    1   31 1
     5    2    3 1
     6    2   32 1
     7    2   33 1
     8    3    4 1
     9    3   34 1
    10    3   35 1
    11    4    5 1
    12    4   36 1
    13    4   37 1
    14    5   14 1
    15    5    6 1
    16    6   11 ar
    17    6    7 ar
    18    7    8 ar
    19    7   38 1
    20    8    9 ar
    21    8   39 1
    22    9   10 ar
    23    9   40 1
    24   10   11 ar
    25   10   41 1
    26   11   12 1
    27   12   13 1
    28   12   28 2
    29   13   14 2
    30   13   16 1
    31   14   15 1
    32   16   27 1
    33   16   17 2
    34   17   18 1
    35   18   19 2
    36   18   20 2
    37   18   21 1
    38   21   26 ar
    39   21   22 ar
    40   22   23 ar
    41   22   42 1
    42   23   24 ar
    43   23   43 1
    44   24   25 ar
    45   24   44 1
    46   25   26 ar
    47   25   45 1
    48   26   27 1
@<TRIPOS>MOLECULE
ZINC08555900
   34    37     0     0     0
SMALL
USER_CHARGES
6,7-bis(4-fluorophenyl)pteridin-4-ol
@<TRIPOS>ATOM
      1 C1          1.6757    3.5345    0.5181 C.ar      1 <0>        -0.0687
      2 C2          0.6081    4.3725    0.7634 C.ar      1 <0>        -0.1523
      3 C3         -0.6594    3.8458    0.9547 C.ar      1 <0>         0.0963
      4 C4         -0.8588    2.4750    0.9122 C.ar      1 <0>        -0.1534
      5 C5          0.2036    1.6284    0.6733 C.ar      1 <0>        -0.0597
      6 C6          1.4802    2.1541    0.4743 C.ar      1 <0>        -0.0254
      7 C7          2.6243    1.2495    0.2169 C.ar      1 <0>         0.0518
      8 C8          3.5444    1.5523   -0.8175 C.ar      1 <0>         0.1891
      9 N1          4.5723    0.7543   -1.0527 N.ar      1 <0>        -0.4422
     10 C9          4.7358   -0.3477   -0.3168 C.ar      1 <0>         0.3364
     11 C10         3.8104   -0.6505    0.7138 C.ar      1 <0>        -0.0737
     12 N2          2.7799    0.1606    0.9492 N.ar      1 <0>        -0.3364
     13 C11         4.0187   -1.8282    1.4724 C.ar      1 <0>         0.4863
     14 N3          5.0649   -2.5855    1.1815 N.ar      1 <0>        -0.6315
     15 C12         5.9028   -2.2626    0.2096 C.ar      1 <0>         0.3743
     16 N4          5.7608   -1.1851   -0.5259 N.ar      1 <0>        -0.6013
     17 O1          3.1704   -2.1703    2.4691 O.3       1 <0>        -0.6214
     18 C13         3.3570    2.7717   -1.6357 C.ar      1 <0>        -0.0466
     19 C14         2.0946    3.0911   -2.1369 C.ar      1 <0>        -0.0565
     20 C15         1.9241    4.2309   -2.8941 C.ar      1 <0>        -0.1539
     21 C16         3.0064    5.0529   -3.1668 C.ar      1 <0>         0.1049
     22 C17         4.2634    4.7372   -2.6756 C.ar      1 <0>        -0.1570
     23 C18         4.4432    3.6023   -1.9130 C.ar      1 <0>        -0.0518
     24 F1          2.8355    6.1653   -3.9142 F         1 <0>        -0.1409
     25 F2         -1.7032    4.6710    1.1891 F         1 <0>        -0.1430
     26 H1          2.6623    3.9462    0.3646 H         1 <0>         0.1325
     27 H2          0.7594    5.4412    0.8023 H         1 <0>         0.1355
     28 H3         -1.8475    2.0689    1.0667 H         1 <0>         0.1364
     29 H4          0.0473    0.5603    0.6406 H         1 <0>         0.1379
     30 H5          6.7407   -2.9150    0.0126 H         1 <0>         0.1830
     31 H6          1.2516    2.4489   -1.9287 H         1 <0>         0.1357
     32 H7          0.9465    4.4814   -3.2788 H         1 <0>         0.1379
     33 H8          5.1036    5.3808   -2.8908 H         1 <0>         0.1381
     34 H9          5.4232    3.3568   -1.5313 H         1 <0>         0.1395
@<TRIPOS>BOND
     1    1    6 ar
     2    1    2 ar
     3    1   26 1
     4    2    3 ar
     5    2   27 1
     6    3    4 ar
     7    3   25 1
     8    4    5 ar
     9    4   28 1
    10    5    6 ar
    11    5   29 1
    12    6    7 1
    13    7   12 ar
    14    7    8 ar
    15    8    9 ar
    16    8   18 1
    17    9   10 ar
    18   10   16 ar
    19   10   11 ar
    20   11   12 ar
    21   11   13 ar
    22   13   14 ar
    23   13   17 1
    24   14   15 ar
    25   15   16 ar
    26   15   30 1
    27   18   23 ar
    28   18   19 ar
    29   19   20 ar
    30   19   31 1
    31   20   21 ar
    32   20   32 1
    33   21   22 ar
    34   21   24 1
    35   22   23 ar
    36   22   33 1
    37   23   34 1
@<TRIPOS>MOLECULE
ZINC38167261
   22    22     0     0     0
SMALL
USER_CHARGES

@<TRIPOS>ATOM
      1 C1         -0.0167    1.3787    0.0096 C.ar      1 <0>        -0.1156
      2 C2          1.1654    2.0894    0.0022 C.ar      1 <0>        -0.0820
      3 C3          2.3878    1.4104   -0.0132 C.ar      1 <0>        -0.1414
      4 C4          2.4039    0.0125   -0.0209 C.ar      1 <0>        -0.0923
      5 C5          1.2107   -0.6883   -0.0132 C.ar      1 <0>         0.0891
      6 C6          0.0021   -0.0041    0.0020 C.ar      1 <0>        -0.1223
      7 O1          1.2214   -2.0474   -0.0207 O.3       1 <0>        -0.4978
      8 C7          3.6520    2.1642   -0.0217 C.2       1 <0>         0.3825
      9 C8          3.6308    3.6710   -0.0139 C.3       1 <0>        -0.2113
     10 C9          5.0444    4.1933   -0.0250 C.2       1 <0>         0.2901
     11 O2          5.9732    3.4215   -0.0380 O.2       1 <0>        -0.4220
     12 C10         5.2966    5.6654   -0.0200 C.2       1 <0>         0.4698
     13 O3          6.4414    6.0884   -0.0291 O.co2     1 <0>        -0.6517
     14 O4          4.3580    6.4453   -0.0069 O.co2     1 <0>        -0.6687
     15 O5          4.7104    1.5728   -0.0350 O.2       1 <0>        -0.4145
     16 H1         -0.9602    1.9039    0.0260 H         1 <0>         0.1339
     17 H2          1.1470    3.1692    0.0078 H         1 <0>         0.1417
     18 H3          3.3442   -0.5186   -0.0331 H         1 <0>         0.1386
     19 H4         -0.9272   -0.5544    0.0080 H         1 <0>         0.1304
     20 H5          1.2330   -2.4454    0.8605 H         1 <0>         0.3896
     21 H6          3.1033    4.0316   -0.8970 H         1 <0>         0.1270
     22 H7          3.1206    4.0226    0.8829 H         1 <0>         0.1270
@<TRIPOS>BOND
     1    1    6 ar
     2    1    2 ar
     3    1   16 1
     4    2    3 ar
     5    2   17 1
     6    3    4 ar
     7    3    8 1
     8    4    5 ar
     9    4   18 1
    10    5    6 ar
    11    5    7 1
    12    6   19 1
    13    7   20 1
    14    8    9 1
    15    8   15 2
    16    9   10 1
    17    9   21 1
    18    9   22 1
    19   10   11 2
    20   10   12 1
    21   12   13 2
    22   12   14 1
@<TRIPOS>MOLECULE
ZINC02235791
   49    51     0     0     0
SMALL
USER_CHARGES

@<TRIPOS>ATOM
      1 C1         -0.0187    1.5258    0.0104 C.3       1 <0>        -0.1504
      2 C2          0.0021   -0.0041    0.0020 C.3       1 <0>         0.0557
      3 O1          0.6709   -0.4649   -1.1737 O.3       1 <0>        -0.3471
      4 C3          0.7760   -1.8001   -1.3349 C.2       1 <0>         0.5457
      5 O2          0.3117   -2.5521   -0.4990 O.2       1 <0>        -0.5059
      6 C4          1.4485   -2.3439   -2.5156 C.2       1 <0>        -0.2783
      7 C5          2.8756   -2.6194   -2.5152 C.2       1 <0>        -0.0512
      8 C6          3.3425   -3.1173   -3.6796 C.2       1 <0>        -0.2743
      9 S1          1.9224   -3.2118   -4.7300 S.3       1 <0>         0.3282
     10 C7          0.7500   -2.6240   -3.6813 C.2       1 <0>         0.1129
     11 N1         -0.6029   -2.4557   -3.9246 N.pl3     1 <0>        -0.6010
     12 C8         -1.1281   -2.7901   -5.1520 C.2       1 <0>         0.6770
     13 O3         -0.3239   -3.2826   -6.1195 O.3       1 <0>        -0.6985
     14 N2         -2.3987   -2.6320   -5.3806 N.2       1 <0>        -1.0898
     15 S2         -3.0307   -3.0343   -6.8574 S.o2      1 <0>         2.6838
     16 O4         -2.4685   -2.1312   -7.7995 O.2       1 <0>        -0.9988
     17 O5         -2.9030   -4.4440   -6.9834 O.2       1 <0>        -0.9987
     18 C9         -4.7574   -2.6885   -6.7968 C.ar      1 <0>        -0.6388
     19 C10        -5.6431   -3.6627   -6.3754 C.ar      1 <0>        -0.0173
     20 C11        -6.9977   -3.3914   -6.3279 C.ar      1 <0>        -0.1472
     21 C12        -7.4666   -2.1458   -6.7014 C.ar      1 <0>        -0.0490
     22 C13        -6.5809   -1.1713   -7.1219 C.ar      1 <0>        -0.1474
     23 C14        -5.2259   -1.4412   -7.1653 C.ar      1 <0>        -0.0175
     24 C15        -8.9435   -1.8503   -6.6505 C.3       1 <0>        -0.1171
     25 C16         4.7566   -3.4985   -3.9925 C.3       1 <0>        -0.0255
     26 C17         5.6695   -2.8877   -2.9191 C.3       1 <0>        -0.1133
     27 C18         5.0820   -3.1910   -1.5378 C.3       1 <0>        -0.1149
     28 C19         3.7990   -2.3832   -1.3291 C.3       1 <0>        -0.0594
     29 H1          1.0039    1.9031    0.0027 H         1 <0>         0.0649
     30 H2         -0.5459    1.8868   -0.8726 H         1 <0>         0.0671
     31 H3         -0.5289    1.8773    0.9072 H         1 <0>         0.0756
     32 H4          0.5293   -0.3651    0.8851 H         1 <0>         0.0636
     33 H5         -1.0205   -0.3814    0.0098 H         1 <0>         0.0654
     34 H6         -1.1803   -2.1021   -3.2300 H         1 <0>         0.4133
     35 H7         -5.2767   -4.6358   -6.0837 H         1 <0>         0.1377
     36 H8         -7.6897   -4.1527   -5.9994 H         1 <0>         0.1268
     37 H9         -6.9473   -0.1983   -7.4140 H         1 <0>         0.1267
     38 H10        -4.5335   -0.6787   -7.4903 H         1 <0>         0.1378
     39 H11        -9.2007   -1.4513   -5.6693 H         1 <0>         0.0735
     40 H12        -9.1941   -1.1177   -7.4177 H         1 <0>         0.0678
     41 H13        -9.5040   -2.7682   -6.8278 H         1 <0>         0.0678
     42 H14         4.8549   -4.5840   -3.9841 H         1 <0>         0.0746
     43 H15         5.0329   -3.1116   -4.9733 H         1 <0>         0.0755
     44 H16         6.6656   -3.3236   -2.9959 H         1 <0>         0.0664
     45 H17         5.7292   -1.8087   -3.0615 H         1 <0>         0.0655
     46 H18         4.8559   -4.2549   -1.4662 H         1 <0>         0.0652
     47 H19         5.8072   -2.9237   -0.7693 H         1 <0>         0.0627
     48 H20         4.0414   -1.3228   -1.2599 H         1 <0>         0.0731
     49 H21         3.3073   -2.7088   -0.4124 H         1 <0>         0.0671
@<TRIPOS>BOND
     1    1    2 1
     2    1   29 1
     3    1   30 1
     4    1   31 1
     5    2    3 1
     6    2   32 1
     7    2   33 1
     8    3    4 1
     9    4    5 2
    10    4    6 1
    11    6   10 2
    12    6    7 1
    13    7   28 1
    14    7    8 2
    15    8    9 1
    16    8   25 1
    17    9   10 1
    18   10   11 1
    19   11   12 1
    20   11   34 1
    21   12   13 1
    22   12   14 2
    23   14   15 1
    24   15   16 2
    25   15   17 2
    26   15   18 1
    27   18   23 ar
    28   18   19 ar
    29   19   20 ar
    30   19   35 1
    31   20   21 ar
    32   20   36 1
    33   21   22 ar
    34   21   24 1
    35   22   23 ar
    36   22   37 1
    37   23   38 1
    38   24   39 1
    39   24   40 1
    40   24   41 1
    41   25   26 1
    42   25   42 1
    43   25   43 1
    44   26   27 1
    45   26   44 1
    46   26   45 1
    47   27   28 1
    48   27   46 1
    49   27   47 1
    50   28   48 1
    51   28   49 1
@<TRIPOS>MOLECULE
ZINC00754199
   42    44     0     0     0
SMALL
USER_CHARGES
3-[(3-ethoxycarbonyl-4,5,6,7-tetrahydrobenzothiophen-2-yl)carbamoyl]pyrazine-2-carboxylic acid
@<TRIPOS>ATOM
      1 C1          8.1613    8.1250   -1.6230 C.3       1 <0>        -0.1509
      2 C2          7.9875    7.4002   -0.2869 C.3       1 <0>         0.0564
      3 O1          7.8127    5.9788   -0.5265 O.3       1 <0>        -0.3513
      4 C3          7.6453    5.1914    0.5558 C.2       1 <0>         0.5364
      5 O2          7.6455    5.6804    1.6696 O.2       1 <0>        -0.4951
      6 C4          7.4633    3.7479    0.3900 C.2       1 <0>        -0.2333
      7 C5          8.5987    2.8409    0.3806 C.2       1 <0>        -0.0576
      8 C6          8.2916    1.5364    0.2123 C.2       1 <0>        -0.2276
      9 S1          6.5269    1.5001    0.0759 S.3       1 <0>         0.2583
     10 C7          6.1984    3.1934    0.2396 C.2       1 <0>         0.1161
     11 N1          4.9734    3.8380    0.2194 N.am      1 <0>        -0.6102
     12 C8          3.8403    3.1268    0.0558 C.2       1 <0>         0.6130
     13 O3          3.8939    1.9199   -0.0740 O.2       1 <0>        -0.4607
     14 C9          2.5286    3.8170    0.0341 C.ar      1 <0>         0.0466
     15 C10         1.6871    3.7673    1.1566 C.ar      1 <0>         0.1048
     16 N2          0.5155    4.3939    1.1293 N.ar      1 <0>        -0.3913
     17 C11         0.1460    5.0542    0.0496 C.ar      1 <0>         0.0594
     18 C12         0.9766    5.0987   -1.0638 C.ar      1 <0>         0.0374
     19 N3          2.1416    4.4812   -1.0499 N.ar      1 <0>        -0.4176
     20 C13         2.1060    3.0245    2.3686 C.2       1 <0>         0.4950
     21 O4          3.1353    2.3807    2.3606 O.co2     1 <0>        -0.5920
     22 C14         9.2464    0.3839    0.1550 C.3       1 <0>        -0.0309
     23 C15        10.6622    0.9388   -0.0587 C.3       1 <0>        -0.1128
     24 C16        10.8978    2.0838    0.9307 C.3       1 <0>        -0.1174
     25 C17        10.0453    3.2923    0.5402 C.3       1 <0>        -0.0606
     26 H1          8.2925    9.1920   -1.4431 H         1 <0>         0.0782
     27 H2          9.0384    7.7328   -2.1377 H         1 <0>         0.0662
     28 H3          7.2768    7.9666   -2.2400 H         1 <0>         0.0670
     29 H4          7.1104    7.7924    0.2279 H         1 <0>         0.0689
     30 H5          8.8719    7.5586    0.3302 H         1 <0>         0.0693
     31 H6          4.9305    4.8015    0.3229 H         1 <0>         0.4157
     32 H7         -0.8067    5.5626    0.0301 H         1 <0>         0.1739
     33 H8          0.6662    5.6411   -1.9446 H         1 <0>         0.1752
     34 H9          9.2075   -0.1721    1.0917 H         1 <0>         0.0809
     35 H10         8.9800   -0.2729   -0.6731 H         1 <0>         0.0792
     36 H11        11.3939    0.1498    0.1147 H         1 <0>         0.0703
     37 H12        10.7593    1.3093   -1.0792 H         1 <0>         0.0671
     38 H13        10.6250    1.7572    1.9342 H         1 <0>         0.0679
     39 H14        11.9509    2.3648    0.9152 H         1 <0>         0.0666
     40 H15        10.1074    4.0508    1.3205 H         1 <0>         0.0707
     41 H16        10.4071    3.7060   -0.4011 H         1 <0>         0.0764
     42 O5          1.3450    3.0637    3.4790 O.co2     1 <0>        -0.7075
@<TRIPOS>BOND
     1    1    2 1
     2    1   26 1
     3    1   27 1
     4    1   28 1
     5    2    3 1
     6    2   29 1
     7    2   30 1
     8    3    4 1
     9    4    5 2
    10    4    6 1
    11    6   10 2
    12    6    7 1
    13    7   25 1
    14    7    8 2
    15    8    9 1
    16    8   22 1
    17    9   10 1
    18   10   11 1
    19   11   12 am
    20   11   31 1
    21   12   13 2
    22   12   14 1
    23   14   19 ar
    24   14   15 ar
    25   15   16 ar
    26   15   20 1
    27   16   17 ar
    28   17   18 ar
    29   17   32 1
    30   18   19 ar
    31   18   33 1
    32   20   21 2
    33   20   42 1
    34   22   23 1
    35   22   34 1
    36   22   35 1
    37   23   24 1
    38   23   36 1
    39   23   37 1
    40   24   25 1
    41   24   38 1
    42   24   39 1
    43   25   40 1
    44   25   41 1
@<TRIPOS>MOLECULE
ZINC01300995
   36    38     0     0     0
SMALL
USER_CHARGES

@<TRIPOS>ATOM
      1 C1          1.4869    1.2047   -0.1024 C.ar      1 <0>        -0.0548
      2 C2          2.5107    2.0483    0.2861 C.ar      1 <0>        -0.1343
      3 C3          3.7013    1.5219    0.7512 C.ar      1 <0>        -0.0043
      4 C4          3.8678    0.1517    0.8284 C.ar      1 <0>        -0.6745
      5 C5          2.8436   -0.6919    0.4408 C.ar      1 <0>        -0.0246
      6 C6          1.6536   -0.1654   -0.0257 C.ar      1 <0>        -0.1364
      7 S1          5.3857   -0.5193    1.4202 S.o2      1 <0>         2.6820
      8 O1          5.4876   -1.8303    0.8815 O.2       1 <0>        -0.9185
      9 O2          6.3799    0.4726    1.2039 O.2       1 <0>        -0.9243
     10 N1          5.2382   -0.6919    3.0606 N.pl3     1 <0>        -0.9012
     11 N2          4.2355   -1.5141    3.5911 N.am      1 <0>        -0.3130
     12 C7          3.0497   -0.9947    3.8609 C.2       1 <0>         0.5400
     13 O3          2.8054    0.1805    3.6603 O.2       1 <0>        -0.4331
     14 C8          2.0358   -1.9149    4.4181 C.2       1 <0>        -0.2373
     15 C9          0.7534   -1.6689    4.7850 C.2       1 <0>         0.0939
     16 C10        -0.0188   -2.6993    5.4934 C.ar      1 <0>        -0.0869
     17 C11         0.6143   -3.8582    5.9569 C.ar      1 <0>        -0.0791
     18 C12        -0.1166   -4.8198    6.6209 C.ar      1 <0>        -0.0856
     19 C13        -1.4745   -4.6417    6.8293 C.ar      1 <0>        -0.0647
     20 C14        -2.1083   -3.4975    6.3731 C.ar      1 <0>        -0.0927
     21 C15        -1.3898   -2.5240    5.7130 C.ar      1 <0>        -0.0665
     22 Br1        -2.4680   -5.9675    7.7409 Br        1 <0>        -0.0304
     23 S2          2.9646   -3.4412    4.4749 S.3       1 <0>         0.1063
     24 C16         4.5001   -2.8181    3.8099 C.2       1 <0>         0.2227
     25 S3          5.9571   -3.6698    3.5221 S.2       1 <0>        -0.2430
     26 H1          0.5551    1.6160   -0.4615 H         1 <0>         0.1338
     27 H2          2.3807    3.1188    0.2258 H         1 <0>         0.1359
     28 H3          4.5014    2.1810    1.0540 H         1 <0>         0.1402
     29 H4          2.9738   -1.7623    0.5008 H         1 <0>         0.1345
     30 H5          0.8535   -0.8246   -0.3288 H         1 <0>         0.1347
     31 H6          5.8460   -0.2237    3.6541 H         1 <0>         0.4375
     32 H7          0.2997   -0.7158    4.5565 H         1 <0>         0.1690
     33 H8          1.6727   -3.9988    5.7945 H         1 <0>         0.1366
     34 H9          0.3705   -5.7146    6.9792 H         1 <0>         0.1462
     35 H10        -3.1674   -3.3661    6.5388 H         1 <0>         0.1451
     36 H11        -1.8844   -1.6304    5.3622 H         1 <0>         0.1467
@<TRIPOS>BOND
     1    1    6 ar
     2    1    2 ar
     3    1   26 1
     4    2    3 ar
     5    2   27 1
     6    3    4 ar
     7    3   28 1
     8    4    5 ar
     9    4    7 1
    10    5    6 ar
    11    5   29 1
    12    6   30 1
    13    7    8 2
    14    7    9 2
    15    7   10 1
    16   10   11 1
    17   10   31 1
    18   11   24 1
    19   11   12 am
    20   12   13 2
    21   12   14 1
    22   14   15 2
    23   14   23 1
    24   15   16 1
    25   15   32 1
    26   16   21 ar
    27   16   17 ar
    28   17   18 ar
    29   17   33 1
    30   18   19 ar
    31   18   34 1
    32   19   20 ar
    33   19   22 1
    34   20   21 ar
    35   20   35 1
    36   21   36 1
    37   23   24 1
    38   24   25 2
@<TRIPOS>MOLECULE
ZINC01300995
   35    37     0     0     0
SMALL
USER_CHARGES

@<TRIPOS>ATOM
      1 C1          1.8090    4.0723    0.6905 C.ar      1 <0>        -0.0845
      2 C2          3.0831    4.4732    1.0467 C.ar      1 <0>        -0.1484
      3 C3          4.1359    3.5810    0.9674 C.ar      1 <0>        -0.0245
      4 C4          3.9146    2.2877    0.5324 C.ar      1 <0>        -0.6174
      5 C5          2.6404    1.8865    0.1771 C.ar      1 <0>        -0.0245
      6 C6          1.5878    2.7791    0.2550 C.ar      1 <0>        -0.1484
      7 S1          5.2569    1.1507    0.4303 S.o2      1 <0>         2.6107
      8 O1          4.8830    0.1656   -0.5232 O.2       1 <0>        -1.0047
      9 O2          6.4388    1.9285    0.2985 O.2       1 <0>        -1.0048
     10 N1          5.3580    0.3799    1.8924 N.2       1 <0>        -0.9220
     11 N2          6.3453   -0.5909    2.1057 N.am      1 <0>        -0.2462
     12 C7          6.4094   -1.2006    3.2775 C.2       1 <0>         0.5523
     13 O3          5.6323   -0.9406    4.1771 O.2       1 <0>        -0.4391
     14 C8          7.4730   -2.2145    3.4382 C.2       1 <0>        -0.1838
     15 C9          7.7754   -2.9880    4.5105 C.2       1 <0>         0.0240
     16 C10         9.0007   -3.7995    4.5091 C.ar      1 <0>        -0.0548
     17 C11         9.9500   -3.6382    3.4935 C.ar      1 <0>        -0.0932
     18 C12        11.0969   -4.4026    3.4993 C.ar      1 <0>        -0.0835
     19 C13        11.3109   -5.3290    4.5068 C.ar      1 <0>        -0.0815
     20 C14        10.3758   -5.4948    5.5152 C.ar      1 <0>        -0.0940
     21 C15         9.2270   -4.7335    5.5266 C.ar      1 <0>        -0.0841
     22 Br1        12.8876   -6.3731    4.5050 Br        1 <0>        -0.0510
     23 S2          8.2508   -2.1412    1.8303 S.3       1 <0>         0.0090
     24 C16         7.2051   -0.8860    1.1097 C.2       1 <0>         0.1508
     25 S3          7.2781   -0.2169   -0.4645 S.2       1 <0>        -0.3275
     26 H1          0.9857    4.7680    0.7567 H         1 <0>         0.1228
     27 H2          3.2560    5.4837    1.3866 H         1 <0>         0.1254
     28 H3          5.1315    3.8944    1.2450 H         1 <0>         0.1358
     29 H4          2.4676    0.8761   -0.1631 H         1 <0>         0.1358
     30 H5          0.5923    2.4657   -0.0229 H         1 <0>         0.1254
     31 H6          7.1157   -3.0076    5.3654 H         1 <0>         0.1617
     32 H7          9.7841   -2.9168    2.7070 H         1 <0>         0.1458
     33 H8         11.8303   -4.2793    2.7163 H         1 <0>         0.1396
     34 H9         10.5495   -6.2196    6.2969 H         1 <0>         0.1371
     35 H10         8.5011   -4.8604    6.3162 H         1 <0>         0.1416
@<TRIPOS>BOND
     1    1    6 ar
     2    1    2 ar
     3    1   26 1
     4    2    3 ar
     5    2   27 1
     6    3    4 ar
     7    3   28 1
     8    4    5 ar
     9    4    7 1
    10    5    6 ar
    11    5   29 1
    12    6   30 1
    13    7    8 2
    14    7    9 2
    15    7   10 1
    16   10   11 1
    17   11   24 1
    18   11   12 am
    19   12   13 2
    20   12   14 1
    21   14   15 2
    22   14   23 1
    23   15   16 1
    24   15   31 1
    25   16   21 ar
    26   16   17 ar
    27   17   18 ar
    28   17   32 1
    29   18   19 ar
    30   18   33 1
    31   19   20 ar
    32   19   22 1
    33   20   21 ar
    34   20   34 1
    35   21   35 1
    36   23   24 1
    37   24   25 2
@<TRIPOS>MOLECULE
ZINC13126033
   39    42     0     0     0
SMALL
USER_CHARGES

@<TRIPOS>ATOM
      1 C1         -0.0187    1.5258    0.0104 C.3       1 <0>        -0.1625
      2 C2          0.0021   -0.0041    0.0020 C.3       1 <0>         0.1032
      3 N1          0.7106   -0.4894    1.1889 N.pl3     1 <0>        -0.5250
      4 C3          2.0751   -0.6889    1.1210 C.ar      1 <0>         0.2176
      5 C4          2.7722   -0.4330   -0.0559 C.ar      1 <0>        -0.1987
      6 C5          4.1340   -0.6365   -0.1063 C.ar      1 <0>        -0.0820
      7 C6          4.8225   -1.0961    1.0072 C.ar      1 <0>        -0.1933
      8 C7          4.1516   -1.3555    2.1818 C.ar      1 <0>        -0.0369
      9 C8          2.7727   -1.1536    2.2476 C.ar      1 <0>        -0.1848
     10 C9          2.0225   -1.4210    3.4886 C.2       1 <0>         0.4188
     11 O1          2.5878   -1.8250    4.4908 O.2       1 <0>        -0.5034
     12 C10         0.6207   -1.1925    3.4797 C.2       1 <0>        -0.4059
     13 C11         0.0100   -0.7245    2.3232 C.2       1 <0>         0.4996
     14 O2         -1.3201   -0.5048    2.3283 O.3       1 <0>        -0.6117
     15 C12        -0.1787   -1.4427    4.6910 C.2       1 <0>         0.5474
     16 N2         -1.4541   -1.2200    4.6179 N.2       1 <0>        -0.9485
     17 S1         -2.4373   -1.4624    5.9308 S.o2      1 <0>         2.5896
     18 O3         -3.1851   -0.2673    6.1093 O.2       1 <0>        -1.0194
     19 O4         -3.0530   -2.7308    5.7535 O.2       1 <0>        -1.0287
     20 C13        -1.3621   -1.6028    7.3220 C.ar      1 <0>        -0.7951
     21 C14        -1.8547   -1.5194    8.6053 C.ar      1 <0>         0.0096
     22 C15        -0.9919   -1.6301    9.6821 C.ar      1 <0>        -0.2488
     23 C16         0.3608   -1.8229    9.4679 C.ar      1 <0>        -0.0676
     24 C17         0.8576   -1.9083    8.1825 C.ar      1 <0>        -0.1749
     25 C18        -0.0041   -1.7993    7.0973 C.ar      1 <0>         0.2809
     26 N3          0.4838   -1.8949    5.7958 N.2       1 <0>        -0.6833
     27 H1          1.0039    1.9031    0.0027 H         1 <0>         0.0498
     28 H2         -0.5459    1.8868   -0.8726 H         1 <0>         0.0560
     29 H3         -0.5289    1.8773    0.9072 H         1 <0>         0.0666
     30 H4         -1.0205   -0.3814    0.0098 H         1 <0>         0.0919
     31 H5          0.5123   -0.3556   -0.8948 H         1 <0>         0.0672
     32 H6          2.2462   -0.0756   -0.9288 H         1 <0>         0.1197
     33 H7          4.6709   -0.4365   -1.0219 H         1 <0>         0.1109
     34 H8          5.8898   -1.2517    0.9526 H         1 <0>         0.1105
     35 H9          4.6899   -1.7132    3.0470 H         1 <0>         0.1268
     36 H10        -2.9110   -1.3677    8.7711 H         1 <0>         0.0958
     37 H11        -1.3751   -1.5654   10.6897 H         1 <0>         0.0965
     38 H12         1.0315   -1.9075   10.3101 H         1 <0>         0.0989
     39 H13         1.9147   -2.0588    8.0205 H         1 <0>         0.1131
@<TRIPOS>BOND
     1    1    2 1
     2    1   27 1
     3    1   28 1
     4    1   29 1
     5    2    3 1
     6    2   30 1
     7    2   31 1
     8    3   13 1
     9    3    4 1
    10    4    9 ar
    11    4    5 ar
    12    5    6 ar
    13    5   32 1
    14    6    7 ar
    15    6   33 1
    16    7    8 ar
    17    7   34 1
    18    8    9 ar
    19    8   35 1
    20    9   10 1
    21   10   11 2
    22   10   12 1
    23   12   13 2
    24   12   15 1
    25   13   14 1
    26   15   26 1
    27   15   16 2
    28   16   17 1
    29   17   18 2
    30   17   19 2
    31   17   20 1
    32   20   25 ar
    33   20   21 ar
    34   21   22 ar
    35   21   36 1
    36   22   23 ar
    37   22   37 1
    38   23   24 ar
    39   23   38 1
    40   24   25 ar
    41   24   39 1
    42   25   26 1
@<TRIPOS>MOLECULE
ZINC01737733
   25    26     0     0     0
SMALL
USER_CHARGES
3-amino-5-[(4-nitrophenyl)methylene]-2-thioxo-thiazolidin-4-one
@<TRIPOS>ATOM
      1 C1          3.2370    3.9713   -0.1027 C.ar      1 <0>        -0.0909
      2 C2          4.2291    4.9245   -0.1927 C.ar      1 <0>        -0.0461
      3 C3          5.5541    4.5410   -0.3073 C.ar      1 <0>        -0.0225
      4 C4          5.8952    3.1997   -0.3268 C.ar      1 <0>        -0.0539
      5 C5          4.9158    2.2340   -0.2320 C.ar      1 <0>        -0.0749
      6 C6          3.5739    2.6132   -0.1158 C.ar      1 <0>        -0.0440
      7 C7          2.5230    1.5902   -0.0142 C.2       1 <0>         0.0752
      8 C8          1.2477    1.9540    0.2692 C.2       1 <0>        -0.2181
      9 C9          0.0138    1.1395    0.2725 C.2       1 <0>         0.5488
     10 O1          0.0287   -0.0454   -0.0041 O.2       1 <0>        -0.4305
     11 N1         -1.1077    1.7661    0.5863 N.am      1 <0>        -0.3578
     12 C10        -1.1188    3.0781    0.8977 C.2       1 <0>         0.2219
     13 S1         -2.4551    4.0561    1.3322 S.2       1 <0>        -0.3115
     14 S2          0.5959    3.5505    0.7403 S.3       1 <0>         0.0962
     15 N2         -2.2812    1.0669    0.6007 N.3       1 <0>        -0.5970
     16 N3          6.6123    5.5711   -0.4091 N.pl3     1 <0>         0.0209
     17 O2          7.7794    5.2375   -0.5097 O.2       1 <0>        -0.1473
     18 O3          6.3159    6.7524   -0.3923 O.3       1 <0>        -0.1471
     19 H1          2.2032    4.2720   -0.0178 H         1 <0>         0.1473
     20 H2          3.9713    5.9731   -0.1779 H         1 <0>         0.1656
     21 H3          6.9314    2.9087   -0.4162 H         1 <0>         0.1654
     22 H4          5.1835    1.1879   -0.2470 H         1 <0>         0.1626
     23 H5          2.7667    0.5490   -0.1651 H         1 <0>         0.1769
     24 H6         -3.0543    1.6633    0.8551 H         1 <0>         0.3902
     25 H7         -2.4467    0.6199   -0.2885 H         1 <0>         0.3707
@<TRIPOS>BOND
     1    1    6 ar
     2    1    2 ar
     3    1   19 1
     4    2    3 ar
     5    2   20 1
     6    3    4 ar
     7    3   16 1
     8    4    5 ar
     9    4   21 1
    10    5    6 ar
    11    5   22 1
    12    6    7 1
    13    7    8 2
    14    7   23 1
    15    8   14 1
    16    8    9 1
    17    9   10 2
    18    9   11 am
    19   11   12 1
    20   11   15 1
    21   12   13 2
    22   12   14 1
    23   15   24 1
    24   15   25 1
    25   16   17 2
    26   16   18 1
@<TRIPOS>MOLECULE
ZINC02344842
   36    38     0     0     0
SMALL
USER_CHARGES

@<TRIPOS>ATOM
      1 C1          1.4993    1.2287   -0.0863 C.ar      1 <0>        -0.0549
      2 C2          2.5234    2.0691    0.3082 C.ar      1 <0>        -0.1343
      3 C3          3.7125    1.5388    0.7728 C.ar      1 <0>        -0.0042
      4 C4          3.8772    0.1681    0.8433 C.ar      1 <0>        -0.6742
      5 C5          2.8527   -0.6723    0.4496 C.ar      1 <0>        -0.0244
      6 C6          1.6642   -0.1420   -0.0163 C.ar      1 <0>        -0.1364
      7 S1          5.3932   -0.5078    1.4344 S.o2      1 <0>         2.6821
      8 O1          5.4945   -1.8161    0.8892 O.2       1 <0>        -0.9186
      9 O2          6.3891    0.4840    1.2250 O.2       1 <0>        -0.9246
     10 N1          5.2426   -0.6885    3.0736 N.pl3     1 <0>        -0.9012
     11 N2          4.2380   -1.5122    3.5982 N.am      1 <0>        -0.3130
     12 C7          3.0523   -0.9928    3.8685 C.2       1 <0>         0.5404
     13 O3          2.8099    0.1837    3.6734 O.2       1 <0>        -0.4347
     14 C8          2.0366   -1.9140    4.4189 C.2       1 <0>        -0.2444
     15 C9          0.7536   -1.6678    4.7851 C.2       1 <0>         0.1011
     16 C10        -0.0187   -2.6977    5.4935 C.ar      1 <0>        -0.1153
     17 C11         0.6144   -3.8569    5.9568 C.ar      1 <0>        -0.0545
     18 C12        -0.1159   -4.8183    6.6206 C.ar      1 <0>        -0.1495
     19 C13        -1.4752   -4.6398    6.8298 C.ar      1 <0>         0.1352
     20 C14        -2.1090   -3.4939    6.3731 C.ar      1 <0>        -0.1562
     21 C15        -1.3899   -2.5214    5.7131 C.ar      1 <0>        -0.0415
     22 F1         -2.1853   -5.5867    7.4811 F         1 <0>        -0.1273
     23 S2          2.9630   -3.4420    4.4698 S.3       1 <0>         0.1040
     24 C16         4.5006   -2.8177    3.8107 C.2       1 <0>         0.2243
     25 S3          5.9569   -3.6699    3.5213 S.2       1 <0>        -0.2460
     26 H1          0.5687    1.6430   -0.4451 H         1 <0>         0.1337
     27 H2          2.3948    3.1400    0.2532 H         1 <0>         0.1358
     28 H3          4.5129    2.1954    1.0804 H         1 <0>         0.1402
     29 H4          2.9815   -1.7432    0.5043 H         1 <0>         0.1345
     30 H5          0.8639   -0.7986   -0.3243 H         1 <0>         0.1347
     31 H6          5.8499   -0.2241    3.6706 H         1 <0>         0.4374
     32 H7          0.3000   -0.7148    4.5560 H         1 <0>         0.1683
     33 H8          1.6728   -3.9975    5.7940 H         1 <0>         0.1378
     34 H9          0.3713   -5.7132    6.9787 H         1 <0>         0.1495
     35 H10        -3.1680   -3.3616    6.5387 H         1 <0>         0.1483
     36 H11        -1.8838   -1.6274    5.3622 H         1 <0>         0.1480
@<TRIPOS>BOND
     1    1    6 ar
     2    1    2 ar
     3    1   26 1
     4    2    3 ar
     5    2   27 1
     6    3    4 ar
     7    3   28 1
     8    4    5 ar
     9    4    7 1
    10    5    6 ar
    11    5   29 1
    12    6   30 1
    13    7    8 2
    14    7    9 2
    15    7   10 1
    16   10   11 1
    17   10   31 1
    18   11   24 1
    19   11   12 am
    20   12   13 2
    21   12   14 1
    22   14   15 2
    23   14   23 1
    24   15   16 1
    25   15   32 1
    26   16   21 ar
    27   16   17 ar
    28   17   18 ar
    29   17   33 1
    30   18   19 ar
    31   18   34 1
    32   19   20 ar
    33   19   22 1
    34   20   21 ar
    35   20   35 1
    36   21   36 1
    37   23   24 1
    38   24   25 2
@<TRIPOS>MOLECULE
ZINC02344842
   35    37     0     0     0
SMALL
USER_CHARGES

@<TRIPOS>ATOM
      1 C1          1.8318    4.0985    0.7032 C.ar      1 <0>        -0.0846
      2 C2          3.1088    4.4936    1.0556 C.ar      1 <0>        -0.1485
      3 C3          4.1572    3.5964    0.9739 C.ar      1 <0>        -0.0245
      4 C4          3.9285    2.3039    0.5402 C.ar      1 <0>        -0.6174
      5 C5          2.6514    1.9085    0.1887 C.ar      1 <0>        -0.0244
      6 C6          1.6033    2.8062    0.2691 C.ar      1 <0>        -0.1485
      7 S1          5.2651    1.1605    0.4349 S.o2      1 <0>         2.6108
      8 O1          4.8838    0.1767   -0.5169 O.2       1 <0>        -1.0048
      9 O2          6.4503    1.9326    0.2995 O.2       1 <0>        -1.0049
     10 N1          5.3666    0.3901    1.8972 N.2       1 <0>        -0.9222
     11 N2          6.3500   -0.5853    2.1083 N.am      1 <0>        -0.2462
     12 C7          6.4145   -1.1947    3.2802 C.2       1 <0>         0.5528
     13 O3          5.6410   -0.9305    4.1819 O.2       1 <0>        -0.4406
     14 C8          7.4732   -2.2132    3.4387 C.2       1 <0>        -0.1908
     15 C9          7.7749   -2.9873    4.5113 C.2       1 <0>         0.0317
     16 C10         8.9999   -3.7987    4.5103 C.ar      1 <0>        -0.0834
     17 C11         9.9492   -3.6375    3.4943 C.ar      1 <0>        -0.0691
     18 C12        11.0958   -4.4014    3.4999 C.ar      1 <0>        -0.1468
     19 C13        11.3104   -5.3285    4.5087 C.ar      1 <0>         0.1093
     20 C14        10.3739   -5.4938    5.5182 C.ar      1 <0>        -0.1569
     21 C15         9.2257   -4.7322    5.5285 C.ar      1 <0>        -0.0595
     22 F1         12.4367   -6.0746    4.5078 F         1 <0>        -0.1379
     23 S2          8.2471   -2.1448    1.8287 S.3       1 <0>         0.0061
     24 C16         7.2055   -0.8851    1.1100 C.2       1 <0>         0.1526
     25 S3          7.2775   -0.2174   -0.4648 S.2       1 <0>        -0.3305
     26 H1          1.0120    4.7982    0.7714 H         1 <0>         0.1227
     27 H2          3.2874    5.5034    1.3945 H         1 <0>         0.1254
     28 H3          5.1549    3.9053    1.2485 H         1 <0>         0.1357
     29 H4          2.4728    0.8988   -0.1505 H         1 <0>         0.1358
     30 H5          0.6056    2.4974   -0.0059 H         1 <0>         0.1254
     31 H6          7.1147   -3.0072    5.3657 H         1 <0>         0.1610
     32 H7          9.7830   -2.9164    2.7077 H         1 <0>         0.1468
     33 H8         11.8291   -4.2781    2.7166 H         1 <0>         0.1425
     34 H9         10.5470   -6.2181    6.3004 H         1 <0>         0.1399
     35 H10         8.4995   -4.8585    6.3179 H         1 <0>         0.1427
@<TRIPOS>BOND
     1    1    6 ar
     2    1    2 ar
     3    1   26 1
     4    2    3 ar
     5    2   27 1
     6    3    4 ar
     7    3   28 1
     8    4    5 ar
     9    4    7 1
    10    5    6 ar
    11    5   29 1
    12    6   30 1
    13    7    8 2
    14    7    9 2
    15    7   10 1
    16   10   11 1
    17   11   24 1
    18   11   12 am
    19   12   13 2
    20   12   14 1
    21   14   15 2
    22   14   23 1
    23   15   16 1
    24   15   31 1
    25   16   21 ar
    26   16   17 ar
    27   17   18 ar
    28   17   32 1
    29   18   19 ar
    30   18   33 1
    31   19   20 ar
    32   19   22 1
    33   20   21 ar
    34   20   34 1
    35   21   35 1
    36   23   24 1
    37   24   25 2
@<TRIPOS>MOLECULE
ZINC03596264
   42    45     0     0     0
SMALL
USER_CHARGES

@<TRIPOS>ATOM
      1 C1         -0.0187    1.5258    0.0104 C.3       1 <0>        -0.1420
      2 C2          0.0021   -0.0041    0.0020 C.3       1 <0>        -0.1396
      3 C3          0.7182   -0.4975   -1.2568 C.3       1 <0>         0.1087
      4 N1          0.7381   -1.9623   -1.2648 N.pl3     1 <0>        -0.5251
      5 C4          1.7950   -2.6223   -0.6702 C.ar      1 <0>         0.2175
      6 C5          2.8290   -1.9105   -0.0700 C.ar      1 <0>        -0.1984
      7 C6          3.8762   -2.5848    0.5194 C.ar      1 <0>        -0.0820
      8 C7          3.9129   -3.9719    0.5214 C.ar      1 <0>        -0.1930
      9 C8          2.8996   -4.6954   -0.0672 C.ar      1 <0>        -0.0370
     10 C9          1.8327   -4.0261   -0.6673 C.ar      1 <0>        -0.1845
     11 C10         0.7309   -4.7687   -1.3067 C.2       1 <0>         0.4188
     12 C11        -0.3207   -4.0188   -1.8976 C.2       1 <0>        -0.4058
     13 C12        -0.2832   -2.6310   -1.8503 C.2       1 <0>         0.4995
     14 O1         -1.2896   -1.9296   -2.4094 O.3       1 <0>        -0.6110
     15 C13        -1.4467   -4.7081   -2.5501 C.2       1 <0>         0.5474
     16 N2         -2.3728   -3.9678   -3.0754 N.2       1 <0>        -0.9483
     17 S1         -3.6860   -4.6500   -3.8233 S.o2      1 <0>         2.5895
     18 O2         -4.8409   -4.0556   -3.2469 O.2       1 <0>        -1.0194
     19 O3         -3.4252   -4.6179   -5.2198 O.2       1 <0>        -1.0288
     20 C14        -3.6917   -6.3464   -3.3402 C.ar      1 <0>        -0.7951
     21 C15        -4.8027   -7.1342   -3.5443 C.ar      1 <0>         0.0096
     22 C16        -4.7854   -8.4624   -3.1551 C.ar      1 <0>        -0.2487
     23 C17        -3.6549   -8.9951   -2.5627 C.ar      1 <0>        -0.0677
     24 C18        -2.5392   -8.2081   -2.3570 C.ar      1 <0>        -0.1749
     25 C19        -2.5500   -6.8741   -2.7475 C.ar      1 <0>         0.2810
     26 N3         -1.4260   -6.0732   -2.5564 N.2       1 <0>        -0.6834
     27 O4          0.7230   -5.9880   -1.3278 O.2       1 <0>        -0.5034
     28 H1          1.0039    1.9031    0.0027 H         1 <0>         0.0478
     29 H2         -0.5459    1.8868   -0.8726 H         1 <0>         0.0558
     30 H3         -0.5289    1.8773    0.9072 H         1 <0>         0.0498
     31 H4          0.5293   -0.3651    0.8851 H         1 <0>         0.0577
     32 H5         -1.0205   -0.3814    0.0098 H         1 <0>         0.0744
     33 H6          0.1910   -0.1364   -2.1398 H         1 <0>         0.0919
     34 H7          1.7408   -0.1202   -1.2645 H         1 <0>         0.0670
     35 H8          2.8110   -0.8307   -0.0664 H         1 <0>         0.1195
     36 H9          4.6766   -2.0282    0.9841 H         1 <0>         0.1108
     37 H10         4.7405   -4.4867    0.9866 H         1 <0>         0.1105
     38 H11         2.9305   -5.7750   -0.0639 H         1 <0>         0.1268
     39 H12        -5.6851   -6.7167   -4.0064 H         1 <0>         0.0958
     40 H13        -5.6550   -9.0828   -3.3138 H         1 <0>         0.0965
     41 H14        -3.6448  -10.0315   -2.2592 H         1 <0>         0.0989
     42 H15        -1.6591   -8.6285   -1.8932 H         1 <0>         0.1130
@<TRIPOS>BOND
     1    1    2 1
     2    1   28 1
     3    1   29 1
     4    1   30 1
     5    2    3 1
     6    2   31 1
     7    2   32 1
     8    3    4 1
     9    3   33 1
    10    3   34 1
    11    4   13 1
    12    4    5 1
    13    5   10 ar
    14    5    6 ar
    15    6    7 ar
    16    6   35 1
    17    7    8 ar
    18    7   36 1
    19    8    9 ar
    20    8   37 1
    21    9   10 ar
    22    9   38 1
    23   10   11 1
    24   11   12 1
    25   11   27 2
    26   12   13 2
    27   12   15 1
    28   13   14 1
    29   15   26 1
    30   15   16 2
    31   16   17 1
    32   17   18 2
    33   17   19 2
    34   17   20 1
    35   20   25 ar
    36   20   21 ar
    37   21   22 ar
    38   21   39 1
    39   22   23 ar
    40   22   40 1
    41   23   24 ar
    42   23   41 1
    43   24   25 ar
    44   24   42 1
    45   25   26 1
@<TRIPOS>MOLECULE
ZINC03596260
   36    39     0     0     0
SMALL
USER_CHARGES

@<TRIPOS>ATOM
      1 C1         -0.0178    1.4608    0.0101 C.3       1 <0>         0.0749
      2 N1          0.0021   -0.0041    0.0020 N.pl3     1 <0>        -0.5292
      3 C2         -1.1953   -0.6914    0.0041 C.ar      1 <0>         0.2152
      4 C3         -2.4067   -0.0068    0.0133 C.ar      1 <0>        -0.1963
      5 C4         -3.5928   -0.7081    0.0148 C.ar      1 <0>        -0.0822
      6 C5         -3.5943   -2.0957    0.0077 C.ar      1 <0>        -0.1924
      7 C6         -2.4064   -2.7925   -0.0014 C.ar      1 <0>        -0.0372
      8 C7         -1.1978   -2.0956   -0.0035 C.ar      1 <0>        -0.1838
      9 C8          0.0926   -2.8093   -0.0132 C.2       1 <0>         0.4192
     10 C9          1.2814   -2.0322   -0.0143 C.2       1 <0>        -0.4049
     11 C10         1.1940   -0.6459   -0.0128 C.2       1 <0>         0.4980
     12 O1          2.3290    0.0816   -0.0197 O.3       1 <0>        -0.6135
     13 C11         2.5981   -2.6919   -0.0238 C.2       1 <0>         0.5475
     14 N2          3.6458   -1.9278   -0.0191 N.2       1 <0>        -0.9492
     15 S1          5.1720   -2.5754   -0.0395 S.o2      1 <0>         2.5902
     16 O2          5.8700   -1.9469   -1.1057 O.2       1 <0>        -1.0192
     17 O3          5.6438   -2.5555    1.3008 O.2       1 <0>        -1.0285
     18 C12         4.9736   -4.2693   -0.4895 C.ar      1 <0>        -0.7949
     19 C13         6.0552   -5.0263   -0.8815 C.ar      1 <0>         0.0096
     20 C14         5.8755   -6.3531   -1.2325 C.ar      1 <0>        -0.2485
     21 C15         4.6126   -6.9153   -1.1896 C.ar      1 <0>        -0.0676
     22 C16         3.5262   -6.1592   -0.7967 C.ar      1 <0>        -0.1748
     23 C17         3.7007   -4.8268   -0.4412 C.ar      1 <0>         0.2808
     24 N3          2.6141   -4.0571   -0.0312 N.2       1 <0>        -0.6832
     25 O4          0.1375   -4.0279   -0.0196 O.2       1 <0>        -0.5024
     26 H1          1.0048    1.8381    0.0023 H         1 <0>         0.0989
     27 H2         -0.5450    1.8219   -0.8730 H         1 <0>         0.0503
     28 H3         -0.5280    1.8123    0.9069 H         1 <0>         0.0505
     29 H4         -2.4173    1.0732    0.0195 H         1 <0>         0.1182
     30 H5         -4.5306   -0.1725    0.0219 H         1 <0>         0.1114
     31 H6         -4.5317   -2.6319    0.0098 H         1 <0>         0.1110
     32 H7         -2.4104   -3.8725   -0.0072 H         1 <0>         0.1273
     33 H8          7.0407   -4.5859   -0.9152 H         1 <0>         0.0960
     34 H9          6.7217   -6.9495   -1.5404 H         1 <0>         0.0966
     35 H10         4.4755   -7.9506   -1.4650 H         1 <0>         0.0991
     36 H11         2.5419   -6.6026   -0.7656 H         1 <0>         0.1132
@<TRIPOS>BOND
     1    1    2 1
     2    1   26 1
     3    1   27 1
     4    1   28 1
     5    2   11 1
     6    2    3 1
     7    3    8 ar
     8    3    4 ar
     9    4    5 ar
    10    4   29 1
    11    5    6 ar
    12    5   30 1
    13    6    7 ar
    14    6   31 1
    15    7    8 ar
    16    7   32 1
    17    8    9 1
    18    9   10 1
    19    9   25 2
    20   10   11 2
    21   10   13 1
    22   11   12 1
    23   13   24 1
    24   13   14 2
    25   14   15 1
    26   15   16 2
    27   15   17 2
    28   15   18 1
    29   18   23 ar
    30   18   19 ar
    31   19   20 ar
    32   19   33 1
    33   20   21 ar
    34   20   34 1
    35   21   22 ar
    36   21   35 1
    37   22   23 ar
    38   22   36 1
    39   23   24 1
@<TRIPOS>MOLECULE
ZINC03582665
   23    24     0     0     0
SMALL
USER_CHARGES

@<TRIPOS>ATOM
      1 C1         -0.0167    1.3782    0.0096 C.2       1 <0>        -0.2208
      2 C2          1.1566    2.0512    0.0020 C.2       1 <0>        -0.1892
      3 S1          2.3285    0.8482   -0.0156 S.3       1 <0>         0.1736
      4 C3          1.2685   -0.5849   -0.0132 C.2       1 <0>        -0.2932
      5 C4          0.0021   -0.0041    0.0020 C.2       1 <0>         0.2642
      6 N1         -1.1671   -0.7654    0.0095 N.pl3     1 <0>        -0.8306
      7 C5          1.6328   -2.0001   -0.0250 C.2       1 <0>         0.4300
      8 N2          0.6790   -2.9110   -0.0265 N.2       1 <0>        -0.4608
      9 C6          0.9644   -4.2216   -0.0371 C.2       1 <0>         0.0774
     10 C7          2.2883   -4.6389   -0.0468 C.2       1 <0>        -0.0166
     11 C8          3.3127   -3.6528   -0.0451 C.2       1 <0>         0.4939
     12 N3          2.9578   -2.3504   -0.0398 N.am      1 <0>        -0.6207
     13 O1          4.4875   -3.9770   -0.0529 O.2       1 <0>        -0.5609
     14 O2          2.5982   -5.9597   -0.0572 O.3       1 <0>        -0.4092
     15 C9         -0.1278   -5.2186   -0.0381 C.2       1 <0>         0.5388
     16 O3          0.1346   -6.4127   -0.0478 O.co2     1 <0>        -0.6510
     17 O4         -1.2931   -4.8489   -0.0292 O.co2     1 <0>        -0.6676
     18 H1         -0.9548    1.9131    0.0259 H         1 <0>         0.1376
     19 H2          1.3061    3.1208    0.0060 H         1 <0>         0.1885
     20 H3         -2.0318   -0.3261    0.0201 H         1 <0>         0.3949
     21 H4         -1.1151   -1.7340    0.0042 H         1 <0>         0.4326
     22 H5          3.5481   -6.1408   -0.0633 H         1 <0>         0.3807
     23 H6          3.6411   -1.6619   -0.0423 H         1 <0>         0.4083
@<TRIPOS>BOND
     1    1    5 1
     2    1    2 2
     3    1   18 1
     4    2    3 1
     5    2   19 1
     6    3    4 1
     7    4    5 2
     8    4    7 1
     9    5    6 1
    10    6   20 1
    11    6   21 1
    12    7   12 1
    13    7    8 2
    14    8    9 1
    15    9   10 2
    16    9   15 1
    17   10   11 1
    18   10   14 1
    19   11   12 am
    20   11   13 2
    21   12   23 1
    22   14   22 1
    23   15   16 2
    24   15   17 1
@<TRIPOS>MOLECULE
ZINC03582665
   24    25     0     0     0
SMALL
USER_CHARGES

@<TRIPOS>ATOM
      1 C1         -0.0166    1.3719    0.0096 C.2       1 <0>        -0.1686
      2 C2          1.1583    2.0462    0.0020 C.2       1 <0>        -0.2137
      3 S1          2.3263    0.8389   -0.0156 S.3       1 <0>         0.3373
      4 C3          1.2584   -0.5885   -0.0131 C.2       1 <0>        -0.1298
      5 C4          0.0021   -0.0041    0.0020 C.2       1 <0>        -0.0267
      6 N1         -1.1715   -0.7638    0.0096 N.4       1 <0>        -0.5462
      7 C5          1.6165   -2.0115   -0.0246 C.2       1 <0>         0.3495
      8 N2          0.6557   -2.9081   -0.0261 N.2       1 <0>        -0.4382
      9 C6          0.9102   -4.2251   -0.0368 C.2       1 <0>         0.0316
     10 C7          2.2257   -4.6706   -0.0466 C.2       1 <0>         0.0725
     11 C8          3.2941   -3.6640   -0.0449 C.2       1 <0>         0.4937
     12 N3          2.9393   -2.3602   -0.0390 N.am      1 <0>        -0.6133
     13 O1          4.4669   -3.9945   -0.0533 O.2       1 <0>        -0.5163
     14 O2          2.5143   -5.9955   -0.0571 O.3       1 <0>        -0.3863
     15 C9         -0.2038   -5.1973   -0.0375 C.2       1 <0>         0.5418
     16 O3          0.0319   -6.3970   -0.0473 O.co2     1 <0>        -0.6331
     17 O4         -1.3605   -4.8016   -0.0284 O.co2     1 <0>        -0.6719
     18 H1         -0.9547    1.9067    0.0259 H         1 <0>         0.1628
     19 H2          1.3095    3.1155    0.0058 H         1 <0>         0.2109
     20 H3         -1.4630   -0.9418   -0.9398 H         1 <0>         0.4395
     21 H4         -1.0016   -1.6405    0.4792 H         1 <0>         0.4571
     22 H5          3.4612   -6.1918   -0.0634 H         1 <0>         0.3979
     23 H6          3.6224   -1.6716   -0.0415 H         1 <0>         0.4155
     24 H7         -1.8968   -0.2573    0.4948 H         1 <0>         0.4340
@<TRIPOS>BOND
     1    1    5 1
     2    1    2 2
     3    1   18 1
     4    2    3 1
     5    2   19 1
     6    3    4 1
     7    4    5 2
     8    4    7 1
     9    5    6 1
    10    6   20 1
    11    6   21 1
    12    6   24 1
    13    7   12 1
    14    7    8 2
    15    8    9 1
    16    9   10 2
    17    9   15 1
    18   10   11 1
    19   10   14 1
    20   11   12 am
    21   11   13 2
    22   12   23 1
    23   14   22 1
    24   15   16 2
    25   15   17 1
@<TRIPOS>MOLECULE
ZINC28572583
   66    71     0     0     0
SMALL
USER_CHARGES
1-cyclohexyl-2-[2-fluoro-4-[(S)-phenyl-(3-pyridyl)methoxy]phenyl]benzimidazole-5-carboxylic acid
@<TRIPOS>ATOM
      1 C1          5.2941    7.4271   -4.3866 C.ar      1 <0>        -0.1107
      2 C2          6.1752    6.7828   -3.5384 C.ar      1 <0>        -0.1176
      3 C3          5.9243    6.7459   -2.1795 C.ar      1 <0>        -0.1036
      4 C4          4.7929    7.3541   -1.6687 C.ar      1 <0>        -0.1153
      5 C5          3.9093    7.9942   -2.5175 C.ar      1 <0>        -0.0902
      6 C6          4.1624    8.0349   -3.8759 C.ar      1 <0>        -0.1196
      7 C7          4.5194    7.3139   -0.1873 C.3       1 <0>         0.1715
      8 H1          5.0434    6.4700    0.2852 H         1 <0>         0.0984
      9 C8          4.9356    8.6213    0.4360 C.ar      1 <0>        -0.1340
     10 C9          6.1887    8.7559    1.0146 C.ar      1 <0>        -0.0592
     11 C10         6.5303    9.9784    1.5719 C.ar      1 <0>        -0.1710
     12 C11         5.6129   11.0119    1.5422 C.ar      1 <0>         0.1028
     13 N1          4.4281   10.8464    0.9877 N.ar      1 <0>        -0.4835
     14 C12         4.0713    9.6994    0.4434 C.ar      1 <0>         0.1295
     15 O1          3.1234    7.1038    0.0339 O.3       1 <0>        -0.2962
     16 C13         2.6844    5.8187    0.0258 C.ar      1 <0>         0.1750
     17 C14         1.3247    5.5505    0.1305 C.ar      1 <0>        -0.1674
     18 C15         0.8738    4.2489    0.1224 C.ar      1 <0>        -0.1136
     19 C16         1.7847    3.1964    0.0091 C.ar      1 <0>        -0.0911
     20 C17         3.1527    3.4690   -0.0904 C.ar      1 <0>         0.1911
     21 C18         3.5950    4.7772   -0.0867 C.ar      1 <0>        -0.2533
     22 F1          4.0392    2.4549   -0.1950 F         1 <0>        -0.1043
     23 C19         1.3051    1.7993    0.0004 C.2       1 <0>         0.2940
     24 N2          2.0747    0.7381   -0.0040 N.2       1 <0>        -0.4586
     25 C20         1.3063   -0.3797   -0.0112 C.ar      1 <0>         0.0326
     26 C21         1.6009   -1.7433   -0.0176 C.ar      1 <0>        -0.0259
     27 C22         0.5617   -2.6693   -0.0237 C.ar      1 <0>        -0.1243
     28 C23        -0.7706   -2.2335   -0.0234 C.ar      1 <0>        -0.0417
     29 C24        -1.0624   -0.9005   -0.0167 C.ar      1 <0>        -0.1433
     30 C25        -0.0378    0.0394   -0.0110 C.ar      1 <0>         0.0634
     31 N3         -0.0105    1.4180   -0.0036 N.pl3     1 <0>        -0.4839
     32 C26        -1.1730    2.3096   -0.0002 C.3       1 <0>         0.1406
     33 C27        -1.0778    3.2762   -1.1824 C.3       1 <0>        -0.1913
     34 C28        -2.2919    4.2073   -1.1788 C.3       1 <0>        -0.1156
     35 C29        -2.3215    5.0018    0.1284 C.3       1 <0>        -0.1352
     36 C30        -2.4166    4.0352    1.3106 C.3       1 <0>        -0.1173
     37 C31        -1.2026    3.1041    1.3071 C.3       1 <0>        -0.1836
     38 C32         0.8633   -4.1136   -0.0310 C.2       1 <0>         0.4940
     39 O2          2.0174   -4.4931   -0.0317 O.co2     1 <0>        -0.6294
     40 O3         -0.1412   -5.0115   -0.0369 O.co2     1 <0>        -0.7555
     41 H2          5.4901    7.4559   -5.4483 H         1 <0>         0.1238
     42 H3          7.0593    6.3080   -3.9374 H         1 <0>         0.1258
     43 H4          6.6125    6.2422   -1.5168 H         1 <0>         0.1230
     44 H5          3.0231    8.4656   -2.1190 H         1 <0>         0.1264
     45 H6          3.4742    8.5385   -4.5386 H         1 <0>         0.1249
     46 H7          6.8835    7.9291    1.0272 H         1 <0>         0.1370
     47 H8          7.4990   10.1200    2.0277 H         1 <0>         0.1393
     48 H9          5.8697   11.9662    1.9778 H         1 <0>         0.1578
     49 H10         3.0921    9.6014   -0.0015 H         1 <0>         0.1595
     50 H11         0.6201    6.3643    0.2182 H         1 <0>         0.1435
     51 H12        -0.1832    4.0426    0.2032 H         1 <0>         0.2228
     52 H13         4.6508    4.9900   -0.1671 H         1 <0>         0.1454
     53 H14         2.6278   -2.0779   -0.0175 H         1 <0>         0.1360
     54 H15        -1.5717   -2.9578   -0.0282 H         1 <0>         0.1401
     55 H16        -2.0921   -0.5746   -0.0162 H         1 <0>         0.1154
     56 H17        -2.0678    1.6760   -0.0889 H         1 <0>         0.1052
     57 H18        -0.1578    3.8729   -1.0950 H         1 <0>         0.1188
     58 H19        -1.0565    2.7050   -2.1223 H         1 <0>         0.0777
     59 H20        -2.2235    4.9022   -2.0288 H         1 <0>         0.0738
     60 H21        -3.2119    3.6106   -1.2661 H         1 <0>         0.0691
     61 H22        -1.4015    5.5985    0.2157 H         1 <0>         0.0684
     62 H23        -3.1943    5.6712    0.1309 H         1 <0>         0.0732
     63 H24        -2.4379    4.6064    2.2504 H         1 <0>         0.0746
     64 H25        -3.3366    3.4385    1.2233 H         1 <0>         0.0704
     65 H26        -1.2710    2.4092    2.1570 H         1 <0>         0.0806
     66 H27        -0.2826    3.7007    1.3945 H         1 <0>         0.1109
@<TRIPOS>BOND
     1    1    6 ar
     2    1    2 ar
     3    1   41 1
     4    2    3 ar
     5    2   42 1
     6    3    4 ar
     7    3   43 1
     8    4    5 ar
     9    4    7 1
    10    5    6 ar
    11    5   44 1
    12    6   45 1
    13    7    8 1
    14    7    9 1
    15    7   15 1
    16    9   14 ar
    17    9   10 ar
    18   10   11 ar
    19   10   46 1
    20   11   12 ar
    21   11   47 1
    22   12   13 ar
    23   12   48 1
    24   13   14 ar
    25   14   49 1
    26   15   16 1
    27   16   21 ar
    28   16   17 ar
    29   17   18 ar
    30   17   50 1
    31   18   19 ar
    32   18   51 1
    33   19   20 ar
    34   19   23 1
    35   20   21 ar
    36   20   22 1
    37   21   52 1
    38   23   31 1
    39   23   24 2
    40   24   25 1
    41   25   30 ar
    42   25   26 ar
    43   26   27 ar
    44   26   53 1
    45   27   28 ar
    46   27   38 1
    47   28   29 ar
    48   28   54 1
    49   29   30 ar
    50   29   55 1
    51   30   31 1
    52   31   32 1
    53   32   37 1
    54   32   33 1
    55   32   56 1
    56   33   34 1
    57   33   57 1
    58   33   58 1
    59   34   35 1
    60   34   59 1
    61   34   60 1
    62   35   36 1
    63   35   61 1
    64   35   62 1
    65   36   37 1
    66   36   63 1
    67   36   64 1
    68   37   65 1
    69   37   66 1
    70   38   39 2
    71   38   40 1
@<TRIPOS>MOLECULE
ZINC28572583
   67    72     0     0     0
SMALL
USER_CHARGES
1-cyclohexyl-2-[2-fluoro-4-[(S)-phenyl-(3-pyridyl)methoxy]phenyl]benzimidazole-5-carboxylic acid
@<TRIPOS>ATOM
      1 C1          5.2941    7.4271   -4.3866 C.ar      1 <0>        -0.1055
      2 C2          6.1752    6.7828   -3.5384 C.ar      1 <0>        -0.1159
      3 C3          5.9243    6.7459   -2.1795 C.ar      1 <0>        -0.1045
      4 C4          4.7929    7.3541   -1.6687 C.ar      1 <0>        -0.1254
      5 C5          3.9093    7.9942   -2.5175 C.ar      1 <0>        -0.0914
      6 C6          4.1624    8.0349   -3.8759 C.ar      1 <0>        -0.1167
      7 C7          4.5194    7.3139   -0.1873 C.3       1 <0>         0.1754
      8 H1          5.0434    6.4700    0.2852 H         1 <0>         0.0991
      9 C8          4.9356    8.6213    0.4360 C.ar      1 <0>        -0.1454
     10 C9          6.1887    8.7559    1.0146 C.ar      1 <0>        -0.0569
     11 C10         6.5303    9.9784    1.5719 C.ar      1 <0>        -0.1686
     12 C11         5.6129   11.0119    1.5422 C.ar      1 <0>         0.1105
     13 N1          4.4281   10.8464    0.9877 N.ar      1 <0>        -0.4808
     14 C12         4.0713    9.6994    0.4434 C.ar      1 <0>         0.1305
     15 O1          3.1234    7.1038    0.0339 O.3       1 <0>        -0.2844
     16 C13         2.6844    5.8187    0.0258 C.ar      1 <0>         0.2176
     17 C14         1.3247    5.5505    0.1305 C.ar      1 <0>        -0.1557
     18 C15         0.8738    4.2489    0.1224 C.ar      1 <0>        -0.0814
     19 C16         1.7847    3.1964    0.0091 C.ar      1 <0>        -0.1598
     20 C17         3.1527    3.4690   -0.0904 C.ar      1 <0>         0.1898
     21 C18         3.5950    4.7772   -0.0867 C.ar      1 <0>        -0.2403
     22 F1          4.0392    2.4549   -0.1950 F         1 <0>        -0.1178
     23 C19         1.3051    1.7993    0.0004 C.cat     1 <0>         0.4076
     24 N2          2.0747    0.7381   -0.0040 N.pl3     1 <0>        -0.5021
     25 C20         1.3063   -0.3797   -0.0112 C.ar      1 <0>         0.0556
     26 C21         1.6009   -1.7433   -0.0176 C.ar      1 <0>        -0.0551
     27 C22         0.5617   -2.6693   -0.0237 C.ar      1 <0>        -0.0671
     28 C23        -0.7706   -2.2335   -0.0234 C.ar      1 <0>        -0.0221
     29 C24        -1.0624   -0.9005   -0.0167 C.ar      1 <0>        -0.1140
     30 C25        -0.0378    0.0394   -0.0110 C.ar      1 <0>         0.0796
     31 N3         -0.0105    1.4180   -0.0036 N.pl3     1 <0>        -0.4263
     32 C26        -1.1730    2.3096   -0.0002 C.3       1 <0>         0.1274
     33 C27        -1.0778    3.2762   -1.1824 C.3       1 <0>        -0.1935
     34 C28        -2.2919    4.2073   -1.1788 C.3       1 <0>        -0.1184
     35 C29        -2.3215    5.0018    0.1284 C.3       1 <0>        -0.1403
     36 C30        -2.4166    4.0352    1.3106 C.3       1 <0>        -0.1199
     37 C31        -1.2026    3.1041    1.3071 C.3       1 <0>        -0.1867
     38 C32         0.8633   -4.1136   -0.0310 C.2       1 <0>         0.4842
     39 O2          2.0174   -4.4931   -0.0317 O.co2     1 <0>        -0.6118
     40 O3         -0.1412   -5.0115   -0.0369 O.co2     1 <0>        -0.7272
     41 H2          5.4901    7.4559   -5.4483 H         1 <0>         0.1273
     42 H3          7.0593    6.3080   -3.9374 H         1 <0>         0.1284
     43 H4          6.6125    6.2422   -1.5168 H         1 <0>         0.1236
     44 H5          3.0231    8.4656   -2.1190 H         1 <0>         0.1272
     45 H6          3.4742    8.5385   -4.5386 H         1 <0>         0.1281
     46 H7          6.8835    7.9291    1.0272 H         1 <0>         0.1372
     47 H8          7.4990   10.1200    2.0277 H         1 <0>         0.1427
     48 H9          5.8697   11.9662    1.9778 H         1 <0>         0.1616
     49 H10         3.0921    9.6014   -0.0015 H         1 <0>         0.1586
     50 H11         0.6201    6.3643    0.2182 H         1 <0>         0.1615
     51 H12        -0.1832    4.0426    0.2032 H         1 <0>         0.2304
     52 H13         4.6508    4.9900   -0.1671 H         1 <0>         0.1624
     53 H14         2.6278   -2.0779   -0.0175 H         1 <0>         0.1562
     54 H15        -1.5717   -2.9578   -0.0282 H         1 <0>         0.1638
     55 H16        -2.0921   -0.5746   -0.0162 H         1 <0>         0.1441
     56 H17        -2.0678    1.6760   -0.0889 H         1 <0>         0.1331
     57 H18        -0.1578    3.8729   -1.0950 H         1 <0>         0.1161
     58 H19        -1.0565    2.7050   -2.1223 H         1 <0>         0.0895
     59 H20        -2.2235    4.9022   -2.0288 H         1 <0>         0.0848
     60 H21        -3.2119    3.6106   -1.2661 H         1 <0>         0.0782
     61 H22        -1.4015    5.5985    0.2157 H         1 <0>         0.0685
     62 H23        -3.1943    5.6712    0.1309 H         1 <0>         0.0847
     63 H24        -2.4379    4.6064    2.2504 H         1 <0>         0.0857
     64 H25        -3.3366    3.4385    1.2233 H         1 <0>         0.0791
     65 H26        -1.2710    2.4092    2.1570 H         1 <0>         0.0923
     66 H27        -0.2826    3.7007    1.3945 H         1 <0>         0.1105
     67 H28         3.1688    0.8521   -0.0016 H         1 <0>         0.4824
@<TRIPOS>BOND
     1    1    6 ar
     2    1    2 ar
     3    1   41 1
     4    2    3 ar
     5    2   42 1
     6    3    4 ar
     7    3   43 1
     8    4    5 ar
     9    4    7 1
    10    5    6 ar
    11    5   44 1
    12    6   45 1
    13    7    8 1
    14    7    9 1
    15    7   15 1
    16    9   14 ar
    17    9   10 ar
    18   10   11 ar
    19   10   46 1
    20   11   12 ar
    21   11   47 1
    22   12   13 ar
    23   12   48 1
    24   13   14 ar
    25   14   49 1
    26   15   16 1
    27   16   21 ar
    28   16   17 ar
    29   17   18 ar
    30   17   50 1
    31   18   19 ar
    32   18   51 1
    33   19   20 ar
    34   19   23 1
    35   20   21 ar
    36   20   22 1
    37   21   52 1
    38   23   31 1
    39   23   24 2
    40   24   25 1
    41   24   67 1
    42   25   30 ar
    43   25   26 ar
    44   26   27 ar
    45   26   53 1
    46   27   28 ar
    47   27   38 1
    48   28   29 ar
    49   28   54 1
    50   29   30 ar
    51   29   55 1
    52   30   31 1
    53   31   32 1
    54   32   37 1
    55   32   33 1
    56   32   56 1
    57   33   34 1
    58   33   57 1
    59   33   58 1
    60   34   35 1
    61   34   59 1
    62   34   60 1
    63   35   36 1
    64   35   61 1
    65   35   62 1
    66   36   37 1
    67   36   63 1
    68   36   64 1
    69   37   65 1
    70   37   66 1
    71   38   39 2
    72   38   40 1
@<TRIPOS>MOLECULE
ZINC28572584
   66    71     0     0     0
SMALL
USER_CHARGES
1-cyclohexyl-2-[2-fluoro-4-[(R)-phenyl-(3-pyridyl)methoxy]phenyl]benzimidazole-5-carboxylic acid
@<TRIPOS>ATOM
      1 C1          5.6792   11.0285    1.5839 C.ar      1 <0>        -0.1128
      2 C2          6.5527    9.9571    1.5815 C.ar      1 <0>        -0.1189
      3 C3          6.1734    8.7574    1.0089 C.ar      1 <0>        -0.1035
      4 C4          4.9205    8.6290    0.4392 C.ar      1 <0>        -0.0848
      5 C5          4.0490    9.7021    0.4370 C.ar      1 <0>        -0.0893
      6 C6          4.4267   10.9004    1.0134 C.ar      1 <0>        -0.1202
      7 C7          4.5070    7.3212   -0.1850 C.3       1 <0>         0.1717
      8 H1          5.0325    6.4781    0.2872 H         1 <0>         0.0986
      9 C8          4.7809    7.3627   -1.6663 C.ar      1 <0>        -0.1653
     10 C9          5.9146    6.7579   -2.1879 C.ar      1 <0>        -0.0596
     11 C10         6.1258    6.8214   -3.5565 C.ar      1 <0>        -0.1698
     12 C11         5.2059    7.4806   -4.3501 C.ar      1 <0>         0.1046
     13 N1          4.1387    8.0444   -3.8194 N.ar      1 <0>        -0.4823
     14 C12         3.9027    7.9990   -2.5226 C.ar      1 <0>         0.1287
     15 O1          3.1113    7.1084    0.0356 O.3       1 <0>        -0.2943
     16 C13         2.6747    5.8225    0.0266 C.ar      1 <0>         0.1731
     17 C14         1.3155    5.5516    0.1306 C.ar      1 <0>        -0.1668
     18 C15         0.8671    4.2492    0.1225 C.ar      1 <0>        -0.1132
     19 C16         1.7800    3.1984    0.0090 C.ar      1 <0>        -0.0908
     20 C17         3.1475    3.4737   -0.0907 C.ar      1 <0>         0.1908
     21 C18         3.5873    4.7828   -0.0870 C.ar      1 <0>        -0.2550
     22 F1          4.0360    2.4613   -0.1952 F         1 <0>        -0.1043
     23 C19         1.3032    1.8004    0.0004 C.2       1 <0>         0.2937
     24 N2          2.0749    0.7407   -0.0045 N.2       1 <0>        -0.4585
     25 C20         1.3086   -0.3786   -0.0114 C.ar      1 <0>         0.0325
     26 C21         1.6059   -1.7416   -0.0181 C.ar      1 <0>        -0.0259
     27 C22         0.5685   -2.6696   -0.0239 C.ar      1 <0>        -0.1242
     28 C23        -0.7646   -2.2364   -0.0232 C.ar      1 <0>        -0.0416
     29 C24        -1.0591   -0.9040   -0.0162 C.ar      1 <0>        -0.1432
     30 C25        -0.0363    0.0379   -0.0108 C.ar      1 <0>         0.0635
     31 N3         -0.0117    1.4166   -0.0033 N.pl3     1 <0>        -0.4838
     32 C26        -1.1759    2.3059    0.0011 C.3       1 <0>         0.1405
     33 C27        -1.0834    3.2729   -1.1810 C.3       1 <0>        -0.1912
     34 C28        -2.2993    4.2016   -1.1764 C.3       1 <0>        -0.1158
     35 C29        -2.3295    4.9958    0.1310 C.3       1 <0>        -0.1351
     36 C30        -2.4220    4.0288    1.3131 C.3       1 <0>        -0.1172
     37 C31        -1.2061    3.1000    1.3085 C.3       1 <0>        -0.1836
     38 C32         0.8729   -4.1133   -0.0315 C.2       1 <0>         0.4941
     39 O2          2.0277   -4.4906   -0.0325 O.co2     1 <0>        -0.6293
     40 O3         -0.1299   -5.0132   -0.0371 O.co2     1 <0>        -0.7554
     41 H2          5.9753   11.9656    2.0319 H         1 <0>         0.1236
     42 H3          7.5313   10.0572    2.0273 H         1 <0>         0.1258
     43 H4          6.8559    7.9203    1.0070 H         1 <0>         0.1240
     44 H5          3.0718    9.6031   -0.0121 H         1 <0>         0.1289
     45 H6          3.7441   11.7374    1.0156 H         1 <0>         0.1255
     46 H7          6.6165    6.2499   -1.5432 H         1 <0>         0.1359
     47 H8          6.9979    6.3612   -3.9972 H         1 <0>         0.1394
     48 H9          5.3629    7.5342   -5.4173 H         1 <0>         0.1580
     49 H10         3.0150    8.4682   -2.1248 H         1 <0>         0.1568
     50 H11         0.6094    6.3640    0.2185 H         1 <0>         0.1438
     51 H12        -0.1894    4.0408    0.2042 H         1 <0>         0.2230
     52 H13         4.6426    4.9976   -0.1677 H         1 <0>         0.1446
     53 H14         2.6334   -2.0743   -0.0183 H         1 <0>         0.1360
     54 H15        -1.5643   -2.9623   -0.0277 H         1 <0>         0.1402
     55 H16        -2.0894   -0.5802   -0.0153 H         1 <0>         0.1155
     56 H17        -2.0696    1.6707   -0.0870 H         1 <0>         0.1054
     57 H18        -0.1645    3.8713   -1.0941 H         1 <0>         0.1183
     58 H19        -1.0616    2.7020   -2.1210 H         1 <0>         0.0777
     59 H20        -2.2329    4.8968   -2.0263 H         1 <0>         0.0741
     60 H21        -3.2182    3.6031   -1.2632 H         1 <0>         0.0693
     61 H22        -1.4106    5.5942    0.2178 H         1 <0>         0.0683
     62 H23        -3.2036    5.6636    0.1343 H         1 <0>         0.0734
     63 H24        -2.4437    4.5998    2.2530 H         1 <0>         0.0746
     64 H25        -3.3409    3.4304    1.2263 H         1 <0>         0.0704
     65 H26        -1.2726    2.4047    2.1583 H         1 <0>         0.0807
     66 H27        -0.2872    3.6984    1.3954 H         1 <0>         0.1107
@<TRIPOS>BOND
     1    1    6 ar
     2    1    2 ar
     3    1   41 1
     4    2    3 ar
     5    2   42 1
     6    3    4 ar
     7    3   43 1
     8    4    5 ar
     9    4    7 1
    10    5    6 ar
    11    5   44 1
    12    6   45 1
    13    7    8 1
    14    7    9 1
    15    7   15 1
    16    9   14 ar
    17    9   10 ar
    18   10   11 ar
    19   10   46 1
    20   11   12 ar
    21   11   47 1
    22   12   13 ar
    23   12   48 1
    24   13   14 ar
    25   14   49 1
    26   15   16 1
    27   16   21 ar
    28   16   17 ar
    29   17   18 ar
    30   17   50 1
    31   18   19 ar
    32   18   51 1
    33   19   20 ar
    34   19   23 1
    35   20   21 ar
    36   20   22 1
    37   21   52 1
    38   23   31 1
    39   23   24 2
    40   24   25 1
    41   25   30 ar
    42   25   26 ar
    43   26   27 ar
    44   26   53 1
    45   27   28 ar
    46   27   38 1
    47   28   29 ar
    48   28   54 1
    49   29   30 ar
    50   29   55 1
    51   30   31 1
    52   31   32 1
    53   32   37 1
    54   32   33 1
    55   32   56 1
    56   33   34 1
    57   33   57 1
    58   33   58 1
    59   34   35 1
    60   34   59 1
    61   34   60 1
    62   35   36 1
    63   35   61 1
    64   35   62 1
    65   36   37 1
    66   36   63 1
    67   36   64 1
    68   37   65 1
    69   37   66 1
    70   38   39 2
    71   38   40 1
@<TRIPOS>MOLECULE
ZINC28572584
   67    72     0     0     0
SMALL
USER_CHARGES
1-cyclohexyl-2-[2-fluoro-4-[(R)-phenyl-(3-pyridyl)methoxy]phenyl]benzimidazole-5-carboxylic acid
@<TRIPOS>ATOM
      1 C1          5.6792   11.0285    1.5839 C.ar      1 <0>        -0.1063
      2 C2          6.5527    9.9571    1.5815 C.ar      1 <0>        -0.1164
      3 C3          6.1734    8.7574    1.0089 C.ar      1 <0>        -0.1021
      4 C4          4.9205    8.6290    0.4392 C.ar      1 <0>        -0.0952
      5 C5          4.0490    9.7021    0.4370 C.ar      1 <0>        -0.0898
      6 C6          4.4267   10.9004    1.0134 C.ar      1 <0>        -0.1177
      7 C7          4.5070    7.3212   -0.1850 C.3       1 <0>         0.1756
      8 H1          5.0325    6.4781    0.2872 H         1 <0>         0.0994
      9 C8          4.7809    7.3627   -1.6663 C.ar      1 <0>        -0.1764
     10 C9          5.9146    6.7579   -2.1879 C.ar      1 <0>        -0.0596
     11 C10         6.1258    6.8214   -3.5565 C.ar      1 <0>        -0.1682
     12 C11         5.2059    7.4806   -4.3501 C.ar      1 <0>         0.1110
     13 N1          4.1387    8.0444   -3.8194 N.ar      1 <0>        -0.4790
     14 C12         3.9027    7.9990   -2.5226 C.ar      1 <0>         0.1291
     15 O1          3.1113    7.1084    0.0356 O.3       1 <0>        -0.2824
     16 C13         2.6747    5.8225    0.0266 C.ar      1 <0>         0.2156
     17 C14         1.3155    5.5516    0.1306 C.ar      1 <0>        -0.1552
     18 C15         0.8671    4.2492    0.1225 C.ar      1 <0>        -0.0810
     19 C16         1.7800    3.1984    0.0090 C.ar      1 <0>        -0.1596
     20 C17         3.1475    3.4737   -0.0907 C.ar      1 <0>         0.1896
     21 C18         3.5873    4.7828   -0.0870 C.ar      1 <0>        -0.2420
     22 F1          4.0360    2.4613   -0.1952 F         1 <0>        -0.1178
     23 C19         1.3032    1.8004    0.0004 C.cat     1 <0>         0.4072
     24 N2          2.0749    0.7407   -0.0045 N.pl3     1 <0>        -0.5021
     25 C20         1.3086   -0.3786   -0.0114 C.ar      1 <0>         0.0556
     26 C21         1.6059   -1.7416   -0.0181 C.ar      1 <0>        -0.0552
     27 C22         0.5685   -2.6696   -0.0239 C.ar      1 <0>        -0.0670
     28 C23        -0.7646   -2.2364   -0.0232 C.ar      1 <0>        -0.0221
     29 C24        -1.0591   -0.9040   -0.0162 C.ar      1 <0>        -0.1139
     30 C25        -0.0363    0.0379   -0.0108 C.ar      1 <0>         0.0796
     31 N3         -0.0117    1.4166   -0.0033 N.pl3     1 <0>        -0.4261
     32 C26        -1.1759    2.3059    0.0011 C.3       1 <0>         0.1273
     33 C27        -1.0834    3.2729   -1.1810 C.3       1 <0>        -0.1934
     34 C28        -2.2993    4.2016   -1.1764 C.3       1 <0>        -0.1185
     35 C29        -2.3295    4.9958    0.1310 C.3       1 <0>        -0.1402
     36 C30        -2.4220    4.0288    1.3131 C.3       1 <0>        -0.1198
     37 C31        -1.2061    3.1000    1.3085 C.3       1 <0>        -0.1867
     38 C32         0.8729   -4.1133   -0.0315 C.2       1 <0>         0.4841
     39 O2          2.0277   -4.4906   -0.0325 O.co2     1 <0>        -0.6118
     40 O3         -0.1299   -5.0132   -0.0371 O.co2     1 <0>        -0.7272
     41 H2          5.9753   11.9656    2.0319 H         1 <0>         0.1274
     42 H3          7.5313   10.0572    2.0273 H         1 <0>         0.1289
     43 H4          6.8559    7.9203    1.0070 H         1 <0>         0.1240
     44 H5          3.0718    9.6031   -0.0121 H         1 <0>         0.1283
     45 H6          3.7441   11.7374    1.0156 H         1 <0>         0.1285
     46 H7          6.6165    6.2499   -1.5432 H         1 <0>         0.1367
     47 H8          6.9979    6.3612   -3.9972 H         1 <0>         0.1423
     48 H9          5.3629    7.5342   -5.4173 H         1 <0>         0.1616
     49 H10         3.0150    8.4682   -2.1248 H         1 <0>         0.1573
     50 H11         0.6094    6.3640    0.2185 H         1 <0>         0.1619
     51 H12        -0.1894    4.0408    0.2042 H         1 <0>         0.2306
     52 H13         4.6426    4.9976   -0.1677 H         1 <0>         0.1616
     53 H14         2.6334   -2.0743   -0.0183 H         1 <0>         0.1562
     54 H15        -1.5643   -2.9623   -0.0277 H         1 <0>         0.1639
     55 H16        -2.0894   -0.5802   -0.0153 H         1 <0>         0.1442
     56 H17        -2.0696    1.6707   -0.0870 H         1 <0>         0.1333
     57 H18        -0.1645    3.8713   -1.0941 H         1 <0>         0.1157
     58 H19        -1.0616    2.7020   -2.1210 H         1 <0>         0.0895
     59 H20        -2.2329    4.8968   -2.0263 H         1 <0>         0.0851
     60 H21        -3.2182    3.6031   -1.2632 H         1 <0>         0.0784
     61 H22        -1.4106    5.5942    0.2178 H         1 <0>         0.0684
     62 H23        -3.2036    5.6636    0.1343 H         1 <0>         0.0848
     63 H24        -2.4437    4.5998    2.2530 H         1 <0>         0.0858
     64 H25        -3.3409    3.4304    1.2263 H         1 <0>         0.0792
     65 H26        -1.2726    2.4047    2.1583 H         1 <0>         0.0924
     66 H27        -0.2872    3.6984    1.3954 H         1 <0>         0.1104
     67 H28         3.1687    0.8569   -0.0027 H         1 <0>         0.4823
@<TRIPOS>BOND
     1    1    6 ar
     2    1    2 ar
     3    1   41 1
     4    2    3 ar
     5    2   42 1
     6    3    4 ar
     7    3   43 1
     8    4    5 ar
     9    4    7 1
    10    5    6 ar
    11    5   44 1
    12    6   45 1
    13    7    8 1
    14    7    9 1
    15    7   15 1
    16    9   14 ar
    17    9   10 ar
    18   10   11 ar
    19   10   46 1
    20   11   12 ar
    21   11   47 1
    22   12   13 ar
    23   12   48 1
    24   13   14 ar
    25   14   49 1
    26   15   16 1
    27   16   21 ar
    28   16   17 ar
    29   17   18 ar
    30   17   50 1
    31   18   19 ar
    32   18   51 1
    33   19   20 ar
    34   19   23 1
    35   20   21 ar
    36   20   22 1
    37   21   52 1
    38   23   31 1
    39   23   24 2
    40   24   25 1
    41   24   67 1
    42   25   30 ar
    43   25   26 ar
    44   26   27 ar
    45   26   53 1
    46   27   28 ar
    47   27   38 1
    48   28   29 ar
    49   28   54 1
    50   29   30 ar
    51   29   55 1
    52   30   31 1
    53   31   32 1
    54   32   37 1
    55   32   33 1
    56   32   56 1
    57   33   34 1
    58   33   57 1
    59   33   58 1
    60   34   35 1
    61   34   59 1
    62   34   60 1
    63   35   36 1
    64   35   61 1
    65   35   62 1
    66   36   37 1
    67   36   63 1
    68   36   64 1
    69   37   65 1
    70   37   66 1
    71   38   39 2
    72   38   40 1
@<TRIPOS>MOLECULE
ZINC26967468
   24    24     0     0     0
SMALL
USER_CHARGES
6-(ethoxymethyl)-3-hydroxy-4-oxo-pyran-2-carboxylic acid
@<TRIPOS>ATOM
      1 C1         -0.7527    1.5927   -1.2315 C.3       1 <0>        -0.1543
      2 C2         -0.0127    1.0858    0.0080 C.3       1 <0>         0.0555
      3 O1         -0.6816    1.5467    1.1837 O.3       1 <0>        -0.3770
      4 C3         -0.0679    1.1266    2.4039 C.3       1 <0>         0.1112
      5 C4         -0.8518    1.6664    3.5723 C.2       1 <0>         0.1479
      6 C5         -1.8649    0.9306    4.0783 C.2       1 <0>        -0.3168
      7 C6         -2.5994    1.4337    5.1791 C.2       1 <0>         0.4068
      8 O2         -3.5192    0.7982    5.6685 O.2       1 <0>        -0.4872
      9 C7         -2.2170    2.7557    5.7098 C.2       1 <0>         0.0406
     10 C8         -1.1786    3.4122    5.1144 C.2       1 <0>        -0.0651
     11 O3         -0.5283    2.8601    4.0735 O.3       1 <0>        -0.1680
     12 C9         -0.7665    4.7348    5.6154 C.2       1 <0>         0.5287
     13 O4         -1.3504    5.2375    6.5549 O.co2     1 <0>        -0.5942
     14 O5          0.2584    5.3873    5.0315 O.co2     1 <0>        -0.7027
     15 O6         -2.8775    3.3030    6.7592 O.3       1 <0>        -0.5016
     16 H1         -0.2378    1.2379   -2.1365 H         1 <0>         0.0719
     17 H2         -0.7676    2.6926   -1.2254 H         1 <0>         0.0663
     18 H3         -1.7847    1.2120   -1.2237 H         1 <0>         0.0639
     19 H4          0.0022   -0.0141    0.0019 H         1 <0>         0.0515
     20 H5          1.0193    1.4665    0.0002 H         1 <0>         0.0540
     21 H6         -0.0541    0.0276    2.4480 H         1 <0>         0.0904
     22 H7          0.9629    1.5082    2.4463 H         1 <0>         0.0811
     23 H8         -2.1091   -0.0308    3.6511 H         1 <0>         0.1569
     24 H9         -2.5793    4.2900    7.1425 H         1 <0>         0.4400
@<TRIPOS>BOND
     1    1    2 1
     2    1   16 1
     3    1   17 1
     4    1   18 1
     5    2    3 1
     6    2   19 1
     7    2   20 1
     8    3    4 1
     9    4    5 1
    10    4   21 1
    11    4   22 1
    12    5   11 1
    13    5    6 2
    14    6    7 1
    15    6   23 1
    16    7    8 2
    17    7    9 1
    18    9   10 2
    19    9   15 1
    20   10   11 1
    21   10   12 1
    22   12   13 2
    23   12   14 1
    24   15   24 1
@<TRIPOS>MOLECULE
ZINC26967468
   23    23     0     0     0
SMALL
USER_CHARGES
6-(ethoxymethyl)-3-hydroxy-4-oxo-pyran-2-carboxylic acid
@<TRIPOS>ATOM
      1 C1         -0.7527    1.5927   -1.2315 C.3       1 <0>        -0.1517
      2 C2         -0.0127    1.0858    0.0080 C.3       1 <0>         0.0542
      3 O1         -0.6816    1.5467    1.1837 O.3       1 <0>        -0.3753
      4 C3         -0.0679    1.1266    2.4039 C.3       1 <0>         0.1237
      5 C4         -0.8518    1.6664    3.5723 C.2       1 <0>         0.1093
      6 C5         -1.8649    0.9306    4.0783 C.2       1 <0>        -0.3773
      7 C6         -2.5994    1.4337    5.1791 C.2       1 <0>         0.3539
      8 O2         -3.5192    0.7982    5.6685 O.2       1 <0>        -0.5462
      9 C7         -2.2170    2.7557    5.7098 C.2       1 <0>         0.1638
     10 C8         -1.1786    3.4122    5.1144 C.2       1 <0>        -0.2315
     11 O3         -0.5283    2.8601    4.0735 O.3       1 <0>        -0.1557
     12 C9         -0.7665    4.7348    5.6154 C.2       1 <0>         0.5378
     13 O4         -1.3504    5.2375    6.5549 O.co2     1 <0>        -0.6025
     14 O5          0.2584    5.3873    5.0315 O.co2     1 <0>        -0.8008
     15 O6         -2.8775    3.3030    6.7592 O.3       1 <0>        -0.6437
     16 H1         -0.2378    1.2379   -2.1365 H         1 <0>         0.0648
     17 H2         -0.7676    2.6926   -1.2254 H         1 <0>         0.0653
     18 H3         -1.7847    1.2120   -1.2237 H         1 <0>         0.0620
     19 H4          0.0022   -0.0141    0.0019 H         1 <0>         0.0440
     20 H5          1.0193    1.4665    0.0002 H         1 <0>         0.0477
     21 H6         -0.0541    0.0276    2.4480 H         1 <0>         0.0732
     22 H7          0.9629    1.5082    2.4463 H         1 <0>         0.0674
     23 H8         -2.1091   -0.0308    3.6511 H         1 <0>         0.1176
@<TRIPOS>BOND
     1    1    2 1
     2    1   16 1
     3    1   17 1
     4    1   18 1
     5    2    3 1
     6    2   19 1
     7    2   20 1
     8    3    4 1
     9    4    5 1
    10    4   21 1
    11    4   22 1
    12    5   11 1
    13    5    6 2
    14    6    7 1
    15    6   23 1
    16    7    8 2
    17    7    9 1
    18    9   10 2
    19    9   15 1
    20   10   11 1
    21   10   12 1
    22   12   13 2
    23   12   14 1
@<TRIPOS>MOLECULE
ZINC28523294
   42    44     0     0     0
SMALL
USER_CHARGES
(Z)-2-benzamido-3-[5-[3-(trifluoromethyl)phenyl]-2-furyl]prop-2-enoic acid
@<TRIPOS>ATOM
      1 C1          6.0063    2.7858    0.2413 C.ar      1 <0>        -0.1015
      2 C2          6.0949    3.3760    1.4896 C.ar      1 <0>        -0.1239
      3 C3          5.4861    4.5910    1.7263 C.ar      1 <0>        -0.0632
      4 C4          4.7791    5.2249    0.7031 C.ar      1 <0>        -0.1118
      5 C5          4.6887    4.6212   -0.5523 C.ar      1 <0>        -0.0933
      6 C6          5.3071    3.4087   -0.7772 C.ar      1 <0>        -0.1230
      7 C7          4.1238    6.5267    0.9496 C.2       1 <0>         0.5677
      8 O1          4.2773    7.0925    2.0148 O.2       1 <0>        -0.5030
      9 N1          3.3562    7.0865   -0.0063 N.am      1 <0>        -0.6750
     10 C8          2.8293    8.3694    0.1815 C.2       1 <0>         0.1575
     11 C9          1.4805    8.5600    0.1709 C.2       1 <0>        -0.1475
     12 C10         0.6107    7.4499    0.0793 C.2       1 <0>         0.0817
     13 C11        -0.7656    7.5040   -0.0406 C.2       1 <0>        -0.2178
     14 C12        -1.2172    6.1823   -0.0981 C.2       1 <0>        -0.1630
     15 C13        -0.1173    5.3771   -0.0126 C.2       1 <0>        -0.0165
     16 O2          0.9775    6.1513    0.0997 O.3       1 <0>        -0.1569
     17 C14        -0.1282    3.9014   -0.0336 C.ar      1 <0>         0.0042
     18 C15        -1.3416    3.2086   -0.0423 C.ar      1 <0>        -0.0763
     19 C16        -1.3442    1.8298   -0.0671 C.ar      1 <0>        -0.1133
     20 C17        -0.1488    1.1322   -0.0720 C.ar      1 <0>        -0.0798
     21 C18         1.0565    1.8116   -0.0634 C.ar      1 <0>        -0.1748
     22 C19         1.0743    3.1908   -0.0443 C.ar      1 <0>        -0.0593
     23 C20         2.3527    1.0431   -0.0746 C.3       1 <0>         0.5078
     24 F1          2.0812   -0.3291   -0.0930 F         1 <0>        -0.1802
     25 F2          3.0896    1.3880   -1.2127 F         1 <0>        -0.1726
     26 F3          3.0908    1.3571    1.0717 F         1 <0>        -0.1698
     27 C21         3.7268    9.5055    0.3891 C.2       1 <0>         0.4822
     28 O3          3.2745   10.6327    0.4627 O.co2     1 <0>        -0.6241
     29 O4          5.0569    9.3035    0.4991 O.co2     1 <0>        -0.7254
     30 H1          6.4848    1.8344    0.0613 H         1 <0>         0.1211
     31 H2          6.6423    2.8845    2.2804 H         1 <0>         0.1255
     32 H3          5.5561    5.0507    2.7011 H         1 <0>         0.1342
     33 H4          4.1398    5.1044   -1.3470 H         1 <0>         0.1218
     34 H5          5.2414    2.9425   -1.7492 H         1 <0>         0.1247
     35 H6          3.1438    6.5351   -0.9341 H         1 <0>         0.4146
     36 H7          1.0684    9.5779    0.2336 H         1 <0>         0.1728
     37 H8         -1.3742    8.3952   -0.0825 H         1 <0>         0.1539
     38 H9         -2.2432    5.8586   -0.1924 H         1 <0>         0.1486
     39 H10        -2.2751    3.7516   -0.0337 H         1 <0>         0.1374
     40 H11        -2.2813    1.2929   -0.0784 H         1 <0>         0.1394
     41 H12        -0.1569    0.0523   -0.0869 H         1 <0>         0.1388
     42 H13         2.0158    3.7199   -0.0380 H         1 <0>         0.1381
@<TRIPOS>BOND
     1    1    6 ar
     2    1    2 ar
     3    1   30 1
     4    2    3 ar
     5    2   31 1
     6    3    4 ar
     7    3   32 1
     8    4    5 ar
     9    4    7 1
    10    5    6 ar
    11    5   33 1
    12    6   34 1
    13    7    8 2
    14    7    9 am
    15    9   10 1
    16    9   35 1
    17   10   11 2
    18   10   27 1
    19   11   12 1
    20   11   36 1
    21   12   16 1
    22   12   13 2
    23   13   14 1
    24   13   37 1
    25   14   15 2
    26   14   38 1
    27   15   16 1
    28   15   17 1
    29   17   22 ar
    30   17   18 ar
    31   18   19 ar
    32   18   39 1
    33   19   20 ar
    34   19   40 1
    35   20   21 ar
    36   20   41 1
    37   21   22 ar
    38   21   23 1
    39   22   42 1
    40   23   24 1
    41   23   25 1
    42   23   26 1
    43   27   28 2
    44   27   29 1
@<TRIPOS>MOLECULE
ZINC28525101
   27    27     0     0     0
SMALL
USER_CHARGES

@<TRIPOS>ATOM
      1 C1         -0.5492    1.4362   -0.2418 C.3       1 <0>        -0.1166
      2 C2         -0.2513   -0.0359   -0.1183 C.ar      1 <0>        -0.0604
      3 C3          0.0124   -0.7825   -1.2538 C.ar      1 <0>        -0.1420
      4 C4          0.2858   -2.1297   -1.1491 C.ar      1 <0>        -0.0648
      5 C5          0.2962   -2.7418    0.1085 C.ar      1 <0>        -0.1697
      6 C6          0.0288   -1.9807    1.2507 C.ar      1 <0>        -0.0240
      7 C7         -0.2374   -0.6330    1.1300 C.ar      1 <0>        -0.1397
      8 C8          0.0370   -2.6304    2.6104 C.3       1 <0>        -0.1236
      9 C9          0.5866   -4.1795    0.2290 C.2       1 <0>         0.3817
     10 C10         0.7397   -5.0237   -1.0100 C.3       1 <0>        -0.2115
     11 C11         1.0311   -6.4483   -0.6142 C.2       1 <0>         0.2908
     12 O1          1.1067   -6.7473    0.5534 O.2       1 <0>        -0.4221
     13 C12         1.2265   -7.4905   -1.6661 C.2       1 <0>         0.4691
     14 O2          1.4625   -8.6442   -1.3456 O.co2     1 <0>        -0.6525
     15 O3          1.1501   -7.1884   -2.8461 O.co2     1 <0>        -0.6692
     16 O4          0.7027   -4.6848    1.3251 O.2       1 <0>        -0.4143
     17 H1          0.3809    2.0014   -0.1822 H         1 <0>         0.0721
     18 H2         -1.0315    1.6303   -1.1998 H         1 <0>         0.0681
     19 H3         -1.2125    1.7418    0.5674 H         1 <0>         0.0664
     20 H4          0.0036   -0.3085   -2.2241 H         1 <0>         0.1266
     21 H5          0.4910   -2.7110   -2.0359 H         1 <0>         0.1372
     22 H6         -0.4398   -0.0428    2.0115 H         1 <0>         0.1242
     23 H7          1.0604   -2.6826    2.9820 H         1 <0>         0.0755
     24 H8         -0.5696   -2.0413    3.2982 H         1 <0>         0.0564
     25 H9         -0.3738   -3.6372    2.5346 H         1 <0>         0.0936
     26 H10        -0.1828   -4.9891   -1.5895 H         1 <0>         0.1245
     27 H11         1.5621   -4.6385   -1.6127 H         1 <0>         0.1245
@<TRIPOS>BOND
     1    1    2 1
     2    1   17 1
     3    1   18 1
     4    1   19 1
     5    2    7 ar
     6    2    3 ar
     7    3    4 ar
     8    3   20 1
     9    4    5 ar
    10    4   21 1
    11    5    6 ar
    12    5    9 1
    13    6    7 ar
    14    6    8 1
    15    7   22 1
    16    8   23 1
    17    8   24 1
    18    8   25 1
    19    9   10 1
    20    9   16 2
    21   10   11 1
    22   10   26 1
    23   10   27 1
    24   11   12 2
    25   11   13 1
    26   13   14 2
    27   13   15 1
@<TRIPOS>MOLECULE
ZINC04882756
   23    24     0     0     0
SMALL
USER_CHARGES
3-amino-5-[(4-fluorophenyl)methylene]-2-thioxo-thiazolidin-4-one
@<TRIPOS>ATOM
      1 C1          3.3778    3.8097   -0.7362 C.ar      1 <0>        -0.0540
      2 C2          4.4010    4.7270   -0.8363 C.ar      1 <0>        -0.1499
      3 C3          5.6623    4.4197   -0.3483 C.ar      1 <0>         0.1348
      4 C4          5.9016    3.1910    0.2486 C.ar      1 <0>        -0.1561
      5 C5          4.8862    2.2665    0.3606 C.ar      1 <0>        -0.0410
      6 C6          3.6107    2.5699   -0.1297 C.ar      1 <0>        -0.1157
      7 C7          2.5229    1.5890   -0.0137 C.2       1 <0>         0.1017
      8 C8          1.2524    1.9444   -0.3306 C.2       1 <0>        -0.2465
      9 C9          0.0393    1.1077   -0.4384 C.2       1 <0>         0.5499
     10 O1          0.0693   -0.0915   -0.2336 O.2       1 <0>        -0.4392
     11 N1         -1.0795    1.7276   -0.7743 N.am      1 <0>        -0.3578
     12 C10        -1.1091    3.0575   -0.9958 C.2       1 <0>         0.2253
     13 S1         -2.4471    4.0332   -1.4301 S.2       1 <0>        -0.3357
     14 S2          0.5860    3.5535   -0.7334 S.3       1 <0>         0.0982
     15 N2         -2.2325    1.0051   -0.8946 N.3       1 <0>        -0.5986
     16 F1          6.6624    5.3217   -0.4545 F         1 <0>        -0.1273
     17 H1          2.3972    4.0486   -1.1206 H         1 <0>         0.1366
     18 H2          4.2215    5.6859   -1.2997 H         1 <0>         0.1492
     19 H3          6.8861    2.9584    0.6268 H         1 <0>         0.1487
     20 H4          5.0738    1.3101    0.8260 H         1 <0>         0.1490
     21 H5          2.7346    0.5852    0.3237 H         1 <0>         0.1698
     22 H6         -3.0059    1.5989   -1.1542 H         1 <0>         0.3892
     23 H7         -2.1190    0.2501   -1.5542 H         1 <0>         0.3693
@<TRIPOS>BOND
     1    1    6 ar
     2    1    2 ar
     3    1   17 1
     4    2    3 ar
     5    2   18 1
     6    3    4 ar
     7    3   16 1
     8    4    5 ar
     9    4   19 1
    10    5    6 ar
    11    5   20 1
    12    6    7 1
    13    7    8 2
    14    7   21 1
    15    8   14 1
    16    8    9 1
    17    9   10 2
    18    9   11 am
    19   11   12 1
    20   11   15 1
    21   12   13 2
    22   12   14 1
    23   15   22 1
    24   15   23 1
@<TRIPOS>MOLECULE
ZINC13680672
   35    37     0     0     0
SMALL
USER_CHARGES

@<TRIPOS>ATOM
      1 C1          1.8154    4.0793    0.6933 C.ar      1 <0>        -0.0846
      2 C2          3.0902    4.4787    1.0485 C.ar      1 <0>        -0.1484
      3 C3          4.1419    3.5851    0.9686 C.ar      1 <0>        -0.0244
      4 C4          3.9186    2.2920    0.5340 C.ar      1 <0>        -0.6174
      5 C5          2.6436    1.8923    0.1797 C.ar      1 <0>        -0.0245
      6 C6          1.5922    2.7863    0.2582 C.ar      1 <0>        -0.1484
      7 S1          5.2593    1.1533    0.4311 S.o2      1 <0>         2.6107
      8 O1          4.8835    0.1685   -0.5218 O.2       1 <0>        -1.0048
      9 O2          6.4422    1.9295    0.2984 O.2       1 <0>        -1.0048
     10 N1          5.3605    0.3826    1.8934 N.2       1 <0>        -0.9221
     11 N2          6.3467   -0.5894    2.1062 N.am      1 <0>        -0.2462
     12 C7          6.4108   -1.1990    3.2780 C.2       1 <0>         0.5526
     13 O3          5.6347   -0.9378    4.1781 O.2       1 <0>        -0.4399
     14 C8          7.4731   -2.2142    3.4382 C.2       1 <0>        -0.1870
     15 C9          7.7754   -2.9876    4.5107 C.2       1 <0>         0.0273
     16 C10         9.0007   -3.7992    4.5094 C.ar      1 <0>        -0.0670
     17 C11         9.9498   -3.6382    3.4935 C.ar      1 <0>        -0.0859
     18 C12        11.0966   -4.4025    3.4993 C.ar      1 <0>        -0.1035
     19 C13        11.3111   -5.3285    4.5075 C.ar      1 <0>        -0.0247
     20 C14        10.3758   -5.4939    5.5164 C.ar      1 <0>        -0.1137
     21 C15         9.2269   -4.7328    5.5272 C.ar      1 <0>        -0.0769
     22 Cl1        12.7587   -6.2867    4.5063 Cl        1 <0>        -0.0696
     23 S2          8.2499   -2.1423    1.8297 S.3       1 <0>         0.0080
     24 C16         7.2054   -0.8859    1.1095 C.2       1 <0>         0.1514
     25 S3          7.2782   -0.2172   -0.4648 S.2       1 <0>        -0.3288
     26 H1          0.9930    4.7762    0.7599 H         1 <0>         0.1228
     27 H2          3.2647    5.4890    1.3880 H         1 <0>         0.1254
     28 H3          5.1380    3.8973    1.2455 H         1 <0>         0.1358
     29 H4          2.4693    0.8822   -0.1603 H         1 <0>         0.1358
     30 H5          0.5962    2.4742   -0.0191 H         1 <0>         0.1254
     31 H6          7.1157   -3.0070    5.3656 H         1 <0>         0.1612
     32 H7          9.7838   -2.9170    2.7069 H         1 <0>         0.1462
     33 H8         11.8298   -4.2797    2.7159 H         1 <0>         0.1403
     34 H9         10.5497   -6.2179    6.2986 H         1 <0>         0.1378
     35 H10         8.5011   -4.8594    6.3169 H         1 <0>         0.1419
@<TRIPOS>BOND
     1    1    6 ar
     2    1    2 ar
     3    1   26 1
     4    2    3 ar
     5    2   27 1
     6    3    4 ar
     7    3   28 1
     8    4    5 ar
     9    4    7 1
    10    5    6 ar
    11    5   29 1
    12    6   30 1
    13    7    8 2
    14    7    9 2
    15    7   10 1
    16   10   11 1
    17   11   24 1
    18   11   12 am
    19   12   13 2
    20   12   14 1
    21   14   15 2
    22   14   23 1
    23   15   16 1
    24   15   31 1
    25   16   21 ar
    26   16   17 ar
    27   17   18 ar
    28   17   32 1
    29   18   19 ar
    30   18   33 1
    31   19   20 ar
    32   19   22 1
    33   20   21 ar
    34   20   34 1
    35   21   35 1
    36   23   24 1
    37   24   25 2
@<TRIPOS>MOLECULE
ZINC04539367
   27    28     0     0     0
SMALL
USER_CHARGES

@<TRIPOS>ATOM
      1 C1         -0.0167    1.3773    0.0096 C.ar      1 <0>         0.0421
      2 C2          1.1714    2.0867    0.0021 C.ar      1 <0>        -0.1690
      3 C3          2.3806    1.4147   -0.0131 C.ar      1 <0>        -0.0203
      4 C4          2.4038    0.0324   -0.0208 C.ar      1 <0>        -0.1517
      5 C5          1.2128   -0.6805   -0.0132 C.ar      1 <0>         0.3519
      6 C6          0.0021   -0.0041    0.0020 C.ar      1 <0>        -0.8040
      7 S1         -1.5115   -0.9061    0.0122 S.o2      1 <0>         2.7339
      8 O1         -1.3915   -1.8891    1.0314 O.2       1 <0>        -0.9557
      9 O2         -2.5575    0.0556    0.0007 O.2       1 <0>        -0.9908
     10 N1         -1.6041   -1.7234   -1.4251 N.pl3     1 <0>        -1.0068
     11 C7         -2.2056   -1.2110   -2.6649 C.3       1 <0>         0.1218
     12 C8         -2.0854   -2.3244   -3.7267 C.3       1 <0>        -0.1271
     13 C9         -1.9318   -3.6079   -2.8685 C.3       1 <0>        -0.1327
     14 C10        -1.0913   -3.0828   -1.6751 C.3       1 <0>         0.1305
     15 O3          1.2331   -2.0398   -0.0212 O.3       1 <0>        -0.6495
     16 Cl1         3.9211   -0.8110   -0.0404 Cl        1 <0>        -0.0888
     17 Cl2         1.1445    3.8225    0.0111 Cl        1 <0>        -0.1060
     18 H1         -0.9594    1.9040    0.0260 H         1 <0>         0.1287
     19 H2          3.3068    1.9702   -0.0193 H         1 <0>         0.1206
     20 H3         -3.2555   -0.9716   -2.4961 H         1 <0>         0.0651
     21 H4         -1.6693   -0.3222   -2.9974 H         1 <0>         0.0601
     22 H5         -2.9871   -2.3743   -4.3371 H         1 <0>         0.0741
     23 H6         -1.2046   -2.1696   -4.3499 H         1 <0>         0.0728
     24 H7         -2.9031   -3.9739   -2.5356 H         1 <0>         0.0701
     25 H8         -1.3912   -4.3808   -3.4148 H         1 <0>         0.0767
     26 H9         -0.0344   -3.0470   -1.9391 H         1 <0>         0.0766
     27 H10        -1.2430   -3.7127   -0.7985 H         1 <0>         0.0775
@<TRIPOS>BOND
     1    1    6 ar
     2    1    2 ar
     3    1   18 1
     4    2    3 ar
     5    2   17 1
     6    3    4 ar
     7    3   19 1
     8    4    5 ar
     9    4   16 1
    10    5    6 ar
    11    5   15 1
    12    6    7 1
    13    7    8 2
    14    7    9 2
    15    7   10 1
    16   10   14 1
    17   10   11 1
    18   11   12 1
    19   11   20 1
    20   11   21 1
    21   12   13 1
    22   12   22 1
    23   12   23 1
    24   13   14 1
    25   13   24 1
    26   13   25 1
    27   14   26 1
    28   14   27 1
@<TRIPOS>MOLECULE
ZINC04539367
   28    29     0     0     0
SMALL
USER_CHARGES

@<TRIPOS>ATOM
      1 C1         -0.0167    1.3773    0.0096 C.ar      1 <0>         0.0066
      2 C2          1.1714    2.0867    0.0021 C.ar      1 <0>        -0.0560
      3 C3          2.3806    1.4147   -0.0131 C.ar      1 <0>        -0.0343
      4 C4          2.4038    0.0324   -0.0208 C.ar      1 <0>        -0.0746
      5 C5          1.2128   -0.6805   -0.0132 C.ar      1 <0>         0.2265
      6 C6          0.0021   -0.0041    0.0020 C.ar      1 <0>        -0.6902
      7 S1         -1.5115   -0.9061    0.0122 S.o2      1 <0>         2.7202
      8 O1         -1.3915   -1.8891    1.0314 O.2       1 <0>        -0.9428
      9 O2         -2.5575    0.0556    0.0007 O.2       1 <0>        -0.9453
     10 N1         -1.6041   -1.7234   -1.4251 N.pl3     1 <0>        -1.0039
     11 C7         -2.2056   -1.2110   -2.6649 C.3       1 <0>         0.1166
     12 C8         -2.0854   -2.3244   -3.7267 C.3       1 <0>        -0.1289
     13 C9         -1.9318   -3.6079   -2.8685 C.3       1 <0>        -0.1309
     14 C10        -1.0913   -3.0828   -1.6751 C.3       1 <0>         0.1175
     15 O3          1.2331   -2.0398   -0.0212 O.3       1 <0>        -0.4833
     16 Cl1         3.9211   -0.8110   -0.0404 Cl        1 <0>        -0.0285
     17 Cl2         1.1445    3.8225    0.0111 Cl        1 <0>        -0.0372
     18 H1         -0.9594    1.9040    0.0260 H         1 <0>         0.1652
     19 H2          3.3068    1.9702   -0.0193 H         1 <0>         0.1584
     20 H3         -3.2555   -0.9716   -2.4961 H         1 <0>         0.0767
     21 H4         -1.6693   -0.3222   -2.9974 H         1 <0>         0.0662
     22 H5         -2.9871   -2.3743   -4.3371 H         1 <0>         0.0838
     23 H6         -1.2046   -2.1696   -4.3499 H         1 <0>         0.0769
     24 H7         -2.9031   -3.9739   -2.5356 H         1 <0>         0.0780
     25 H8         -1.3912   -4.3808   -3.4148 H         1 <0>         0.0851
     26 H9         -0.0344   -3.0470   -1.9391 H         1 <0>         0.0772
     27 H10        -1.2430   -3.7127   -0.7985 H         1 <0>         0.0845
     28 H11         1.2475   -2.4381    0.8599 H         1 <0>         0.4165
@<TRIPOS>BOND
     1    1    6 ar
     2    1    2 ar
     3    1   18 1
     4    2    3 ar
     5    2   17 1
     6    3    4 ar
     7    3   19 1
     8    4    5 ar
     9    4   16 1
    10    5    6 ar
    11    5   15 1
    12    6    7 1
    13    7    8 2
    14    7    9 2
    15    7   10 1
    16   10   14 1
    17   10   11 1
    18   11   12 1
    19   11   20 1
    20   11   21 1
    21   12   13 1
    22   12   22 1
    23   12   23 1
    24   13   14 1
    25   13   24 1
    26   13   25 1
    27   14   26 1
    28   14   27 1
    29   15   28 1
@<TRIPOS>MOLECULE
ZINC13680358
   48    51     0     0     0
SMALL
USER_CHARGES

@<TRIPOS>ATOM
      1 C1         -0.0187    1.5258    0.0104 C.3       1 <0>        -0.1494
      2 C2          0.0021   -0.0041    0.0020 C.3       1 <0>        -0.1252
      3 C3         -1.4333   -0.5336    0.0129 C.3       1 <0>        -0.1125
      4 C4         -1.4126   -2.0635    0.0045 C.3       1 <0>        -0.1340
      5 C5         -2.8479   -2.5931    0.0153 C.3       1 <0>         0.1091
      6 N1         -2.8281   -4.0579    0.0073 N.pl3     1 <0>        -0.5247
      7 C6         -2.8249   -4.7223   -1.2030 C.ar      1 <0>         0.2176
      8 C7         -2.8397   -4.0148   -2.4011 C.ar      1 <0>        -0.1981
      9 C8         -2.8358   -4.6934   -3.6004 C.ar      1 <0>        -0.0820
     10 C9         -2.8176   -6.0806   -3.6283 C.ar      1 <0>        -0.1930
     11 C10        -2.8027   -6.7999   -2.4539 C.ar      1 <0>        -0.0371
     12 C11        -2.8059   -6.1261   -1.2322 C.ar      1 <0>        -0.1845
     13 C12        -2.7903   -6.8641    0.0443 C.2       1 <0>         0.4187
     14 C13        -2.7952   -6.1099    1.2477 C.2       1 <0>        -0.4058
     15 C14        -2.8079   -4.7222    1.1868 C.2       1 <0>         0.4997
     16 O1         -2.8066   -4.0165    2.3354 O.3       1 <0>        -0.6106
     17 C15        -2.7802   -6.7944    2.5516 C.2       1 <0>         0.5474
     18 N2         -2.7908   -6.0505    3.6137 N.2       1 <0>        -0.9485
     19 S1         -2.7649   -6.7269    5.1272 S.o2      1 <0>         2.5896
     20 O2         -1.7037   -6.1032    5.8371 O.2       1 <0>        -1.0195
     21 O3         -4.1052   -6.7268    5.5994 O.2       1 <0>        -1.0288
     22 C16        -2.3013   -8.4130    4.8966 C.ar      1 <0>        -0.7952
     23 C17        -1.9030   -9.1873    5.9635 C.ar      1 <0>         0.0096
     24 C18        -1.5413  -10.5076    5.7586 C.ar      1 <0>        -0.2488
     25 C19        -1.5800  -11.0459    4.4852 C.ar      1 <0>        -0.0676
     26 C20        -1.9791  -10.2725    3.4134 C.ar      1 <0>        -0.1750
     27 C21        -2.3453   -8.9466    3.6133 C.ar      1 <0>         0.2811
     28 N3         -2.7617   -8.1596    2.5416 N.2       1 <0>        -0.6834
     29 O4         -2.7740   -8.0833    0.0659 O.2       1 <0>        -0.5035
     30 H1          1.0039    1.9031    0.0027 H         1 <0>         0.0479
     31 H2         -0.5459    1.8868   -0.8726 H         1 <0>         0.0497
     32 H3         -0.5289    1.8773    0.9072 H         1 <0>         0.0528
     33 H4          0.5123   -0.3556   -0.8948 H         1 <0>         0.0581
     34 H5          0.5293   -0.3651    0.8851 H         1 <0>         0.0631
     35 H6         -1.9435   -0.1821    0.9097 H         1 <0>         0.0638
     36 H7         -1.9605   -0.1726   -0.8702 H         1 <0>         0.0561
     37 H8         -0.9024   -2.4150   -0.8923 H         1 <0>         0.0581
     38 H9         -0.8854   -2.4246    0.8875 H         1 <0>         0.0749
     39 H10        -3.3581   -2.2415    0.9121 H         1 <0>         0.0917
     40 H11        -3.3751   -2.2320   -0.8677 H         1 <0>         0.0667
     41 H12        -2.8547   -2.9349   -2.3911 H         1 <0>         0.1195
     42 H13        -2.8474   -4.1401   -4.5278 H         1 <0>         0.1107
     43 H14        -2.8155   -6.5989   -4.5758 H         1 <0>         0.1104
     44 H15        -2.7881   -7.8795   -2.4785 H         1 <0>         0.1267
     45 H16        -1.8726   -8.7655    6.9573 H         1 <0>         0.0957
     46 H17        -1.2285  -11.1175    6.5932 H         1 <0>         0.0965
     47 H18        -1.2962  -12.0761    4.3284 H         1 <0>         0.0989
     48 H19        -2.0068  -10.6972    2.4208 H         1 <0>         0.1130
@<TRIPOS>BOND
     1    1    2 1
     2    1   30 1
     3    1   31 1
     4    1   32 1
     5    2    3 1
     6    2   33 1
     7    2   34 1
     8    3    4 1
     9    3   35 1
    10    3   36 1
    11    4    5 1
    12    4   37 1
    13    4   38 1
    14    5    6 1
    15    5   39 1
    16    5   40 1
    17    6   15 1
    18    6    7 1
    19    7   12 ar
    20    7    8 ar
    21    8    9 ar
    22    8   41 1
    23    9   10 ar
    24    9   42 1
    25   10   11 ar
    26   10   43 1
    27   11   12 ar
    28   11   44 1
    29   12   13 1
    30   13   14 1
    31   13   29 2
    32   14   15 2
    33   14   17 1
    34   15   16 1
    35   17   28 1
    36   17   18 2
    37   18   19 1
    38   19   20 2
    39   19   21 2
    40   19   22 1
    41   22   27 ar
    42   22   23 ar
    43   23   24 ar
    44   23   45 1
    45   24   25 ar
    46   24   46 1
    47   25   26 ar
    48   25   47 1
    49   26   27 ar
    50   26   48 1
    51   27   28 1
@<TRIPOS>MOLECULE
ZINC08828411
   43    45     0     0     0
SMALL
USER_CHARGES

@<TRIPOS>ATOM
      1 C1          1.3012    0.9079    0.3155 C.3       1 <0>        -0.1367
      2 C2          0.4991   -0.3678    0.3371 C.2       1 <0>        -0.1476
      3 C3          0.1102   -0.9030    1.5185 C.2       1 <0>        -0.0119
      4 C4          0.3142   -0.1544    2.7673 C.ar      1 <0>        -0.0871
      5 C5          0.1047    1.2288    2.8005 C.ar      1 <0>        -0.0952
      6 C6          0.2982    1.9233    3.9756 C.ar      1 <0>        -0.1235
      7 C7          0.6986    1.2562    5.1204 C.ar      1 <0>        -0.1028
      8 C8          0.9080   -0.1119    5.0960 C.ar      1 <0>        -0.1228
      9 C9          0.7133   -0.8221    3.9305 C.ar      1 <0>        -0.0930
     10 C10         0.1539   -1.0035   -0.8720 C.2       1 <0>         0.1035
     11 C11         0.4461   -0.4073   -2.0639 C.2       1 <0>        -0.2554
     12 C12         0.3055   -0.9298   -3.4359 C.2       1 <0>         0.5391
     13 O1         -0.1249   -2.0477   -3.6530 O.2       1 <0>        -0.4314
     14 N1          0.6699   -0.1233   -4.4185 N.am      1 <0>        -0.3116
     15 C13         1.1458    1.1146   -4.1737 C.2       1 <0>         0.2217
     16 S1          1.6639    2.2966   -5.2986 S.2       1 <0>        -0.2931
     17 S2          1.0972    1.2249   -2.3921 S.3       1 <0>         0.1271
     18 N2          0.5594   -0.5649   -5.7434 N.pl3     1 <0>        -0.9024
     19 S3         -0.8390   -0.3012   -6.5903 S.o2      1 <0>         2.6839
     20 O2         -0.5927   -0.7262   -7.9236 O.2       1 <0>        -0.9259
     21 O3         -1.8964   -0.8334   -5.8041 O.2       1 <0>        -0.9305
     22 C14        -1.0880    1.4419   -6.6552 C.ar      1 <0>        -0.6718
     23 C15        -1.8074    2.0750   -5.6589 C.ar      1 <0>        -0.0240
     24 C16        -2.0027    3.4425   -5.7098 C.ar      1 <0>        -0.1343
     25 C17        -1.4782    4.1771   -6.7568 C.ar      1 <0>        -0.0505
     26 C18        -0.7579    3.5442   -7.7526 C.ar      1 <0>        -0.1324
     27 C19        -0.5590    2.1772   -7.6994 C.ar      1 <0>         0.0076
     28 H1          1.8435    1.0120    1.2552 H         1 <0>         0.0926
     29 H2          2.0103    0.8772   -0.5118 H         1 <0>         0.0800
     30 H3          0.6299    1.7570    0.1873 H         1 <0>         0.0827
     31 H4         -0.3498   -1.8798    1.5435 H         1 <0>         0.1389
     32 H5         -0.2073    1.7508    1.9081 H         1 <0>         0.1308
     33 H6          0.1374    2.9909    4.0028 H         1 <0>         0.1279
     34 H7          0.8489    1.8061    6.0377 H         1 <0>         0.1257
     35 H8          1.2207   -0.6250    5.9935 H         1 <0>         0.1274
     36 H9          0.8724   -1.8902    3.9143 H         1 <0>         0.1283
     37 H10        -0.3420   -1.9628   -0.8553 H         1 <0>         0.1616
     38 H11         1.3021   -1.0251   -6.1648 H         1 <0>         0.4364
     39 H12        -2.2172    1.5010   -4.8409 H         1 <0>         0.1302
     40 H13        -2.5654    3.9370   -4.9318 H         1 <0>         0.1326
     41 H14        -1.6313    5.2454   -6.7970 H         1 <0>         0.1317
     42 H15        -0.3484    4.1180   -8.5708 H         1 <0>         0.1340
     43 H16         0.0069    1.6833   -8.4755 H         1 <0>         0.1402
@<TRIPOS>BOND
     1    1    2 1
     2    1   28 1
     3    1   29 1
     4    1   30 1
     5    2    3 2
     6    2   10 1
     7    3    4 1
     8    3   31 1
     9    4    9 ar
    10    4    5 ar
    11    5    6 ar
    12    5   32 1
    13    6    7 ar
    14    6   33 1
    15    7    8 ar
    16    7   34 1
    17    8    9 ar
    18    8   35 1
    19    9   36 1
    20   10   11 2
    21   10   37 1
    22   11   17 1
    23   11   12 1
    24   12   13 2
    25   12   14 am
    26   14   15 1
    27   14   18 1
    28   15   16 2
    29   15   17 1
    30   18   19 1
    31   18   38 1
    32   19   20 2
    33   19   21 2
    34   19   22 1
    35   22   27 ar
    36   22   23 ar
    37   23   24 ar
    38   23   39 1
    39   24   25 ar
    40   24   40 1
    41   25   26 ar
    42   25   41 1
    43   26   27 ar
    44   26   42 1
    45   27   43 1
@<TRIPOS>MOLECULE
ZINC08828411
   42    44     0     0     0
SMALL
USER_CHARGES

@<TRIPOS>ATOM
      1 C1          1.3012    0.9079    0.3155 C.3       1 <0>        -0.1418
      2 C2          0.4991   -0.3678    0.3371 C.2       1 <0>        -0.0936
      3 C3          0.1102   -0.9030    1.5185 C.2       1 <0>        -0.0827
      4 C4          0.3142   -0.1544    2.7673 C.ar      1 <0>        -0.0586
      5 C5          0.1047    1.2288    2.8005 C.ar      1 <0>        -0.1031
      6 C6          0.2982    1.9233    3.9756 C.ar      1 <0>        -0.1222
      7 C7          0.6986    1.2562    5.1204 C.ar      1 <0>        -0.1183
      8 C8          0.9080   -0.1119    5.0960 C.ar      1 <0>        -0.1238
      9 C9          0.7133   -0.8221    3.9305 C.ar      1 <0>        -0.1052
     10 C10         0.1539   -1.0035   -0.8720 C.2       1 <0>         0.0263
     11 C11         0.4461   -0.4073   -2.0639 C.2       1 <0>        -0.1919
     12 C12         0.3055   -0.9298   -3.4359 C.2       1 <0>         0.5493
     13 O1         -0.1249   -2.0477   -3.6530 O.2       1 <0>        -0.4443
     14 N1          0.6699   -0.1233   -4.4185 N.am      1 <0>        -0.2469
     15 C13         1.1458    1.1146   -4.1737 C.2       1 <0>         0.1490
     16 S1          1.6639    2.2966   -5.2986 S.2       1 <0>        -0.3410
     17 S2          1.0972    1.2249   -2.3921 S.3       1 <0>         0.0220
     18 N2          0.5594   -0.5649   -5.7434 N.2       1 <0>        -0.9239
     19 S3          1.0104    0.4300   -6.9881 S.o2      1 <0>         2.6111
     20 O2          0.1001    1.5211   -6.9862 O.2       1 <0>        -1.0054
     21 O3          2.4155    0.6099   -6.8755 O.2       1 <0>        -1.0053
     22 C14         0.7344   -0.4534   -8.4874 C.ar      1 <0>        -0.6174
     23 C15         1.7372   -1.2424   -9.0194 C.ar      1 <0>        -0.0245
     24 C16         1.5206   -1.9355  -10.1956 C.ar      1 <0>        -0.1486
     25 C17         0.3012   -1.8400  -10.8397 C.ar      1 <0>        -0.0850
     26 C18        -0.7018   -1.0517  -10.3073 C.ar      1 <0>        -0.1486
     27 C19        -0.4867   -0.3620   -9.1288 C.ar      1 <0>        -0.0246
     28 H1          1.8435    1.0120    1.2552 H         1 <0>         0.0821
     29 H2          2.0103    0.8772   -0.5118 H         1 <0>         0.0867
     30 H3          0.6299    1.7570    0.1873 H         1 <0>         0.0819
     31 H4         -0.3498   -1.8798    1.5435 H         1 <0>         0.1314
     32 H5         -0.2073    1.7508    1.9081 H         1 <0>         0.1309
     33 H6          0.1374    2.9909    4.0028 H         1 <0>         0.1235
     34 H7          0.8489    1.8061    6.0377 H         1 <0>         0.1199
     35 H8          1.2207   -0.6250    5.9935 H         1 <0>         0.1215
     36 H9          0.8724   -1.8902    3.9143 H         1 <0>         0.1246
     37 H10        -0.3420   -1.9628   -0.8553 H         1 <0>         0.1525
     38 H11         2.6898   -1.3170   -8.5162 H         1 <0>         0.1355
     39 H12         2.3043   -2.5514  -10.6116 H         1 <0>         0.1252
     40 H13         0.1323   -2.3809  -11.7591 H         1 <0>         0.1226
     41 H14        -1.6544   -0.9769  -10.8107 H         1 <0>         0.1252
     42 H15        -1.2716    0.2509   -8.7108 H         1 <0>         0.1356
@<TRIPOS>BOND
     1    1    2 1
     2    1   28 1
     3    1   29 1
     4    1   30 1
     5    2    3 2
     6    2   10 1
     7    3    4 1
     8    3   31 1
     9    4    9 ar
    10    4    5 ar
    11    5    6 ar
    12    5   32 1
    13    6    7 ar
    14    6   33 1
    15    7    8 ar
    16    7   34 1
    17    8    9 ar
    18    8   35 1
    19    9   36 1
    20   10   11 2
    21   10   37 1
    22   11   17 1
    23   11   12 1
    24   12   13 2
    25   12   14 am
    26   14   15 1
    27   14   18 1
    28   15   16 2
    29   15   17 1
    30   18   19 1
    31   19   20 2
    32   19   21 2
    33   19   22 1
    34   22   27 ar
    35   22   23 ar
    36   23   24 ar
    37   23   38 1
    38   24   25 ar
    39   24   39 1
    40   25   26 ar
    41   25   40 1
    42   26   27 ar
    43   26   41 1
    44   27   42 1
@<TRIPOS>MOLECULE
ZINC13680681
   40    42     0     0     0
SMALL
USER_CHARGES

@<TRIPOS>ATOM
      1 C1         -0.0224   -0.7976    1.2556 C.3       1 <0>         0.0210
      2 O1          0.2132    0.0160    0.1047 O.3       1 <0>        -0.3081
      3 C2          0.7651   -0.5913   -0.9769 C.ar      1 <0>         0.1668
      4 C3          1.0680   -1.9473   -0.9303 C.ar      1 <0>        -0.2084
      5 C4          1.6277   -2.5682   -2.0240 C.ar      1 <0>        -0.0365
      6 C5          1.8915   -1.8313   -3.1853 C.ar      1 <0>        -0.1477
      7 C6          1.5839   -0.4658   -3.2269 C.ar      1 <0>        -0.0270
      8 C7          1.0199    0.1438   -2.1289 C.ar      1 <0>        -0.1556
      9 C8          2.4889   -2.4881   -4.3550 C.2       1 <0>         0.1157
     10 C9          2.6278   -3.8382   -4.3781 C.2       1 <0>        -0.2586
     11 C10         3.3310   -4.6956   -5.3531 C.2       1 <0>         0.5427
     12 O2          3.9061   -4.2274   -6.3183 O.2       1 <0>        -0.4286
     13 N1          3.3047   -5.9978   -5.1244 N.am      1 <0>        -0.3114
     14 C11         2.6667   -6.5123   -4.0535 C.2       1 <0>         0.2262
     15 S1          2.5222   -8.1539   -3.5895 S.2       1 <0>        -0.2859
     16 S2          2.0162   -5.0664   -3.2321 S.3       1 <0>         0.1083
     17 N2          3.9541   -6.8625   -6.0151 N.pl3     1 <0>        -0.9020
     18 S3          5.5424   -7.2626   -5.7711 S.o2      1 <0>         2.6833
     19 O3          5.8657   -8.2508   -6.7396 O.2       1 <0>        -0.9251
     20 O4          6.2574   -6.0393   -5.6629 O.2       1 <0>        -0.9297
     21 C12         5.6461   -8.0473   -4.1969 C.ar      1 <0>        -0.6722
     22 C13         5.8694   -7.2915   -3.0612 C.ar      1 <0>        -0.0245
     23 C14         5.9508   -7.9071   -1.8262 C.ar      1 <0>        -0.1345
     24 C15         5.8084   -9.2785   -1.7268 C.ar      1 <0>        -0.0505
     25 C16         5.5842  -10.0342   -2.8624 C.ar      1 <0>        -0.1323
     26 C17         5.4985   -9.4181   -4.0969 C.ar      1 <0>         0.0077
     27 H1         -0.7039   -1.6073    0.9949 H         1 <0>         0.0618
     28 H2          0.9219   -1.2156    1.6046 H         1 <0>         0.0616
     29 H3         -0.4648   -0.1904    2.0454 H         1 <0>         0.1069
     30 H4          0.8641   -2.5145   -0.0341 H         1 <0>         0.1412
     31 H5          1.8633   -3.6215   -1.9865 H         1 <0>         0.1303
     32 H6          1.7856    0.1073   -4.1198 H         1 <0>         0.1462
     33 H7          0.7789    1.1961   -2.1611 H         1 <0>         0.1441
     34 H8          2.8177   -1.8969   -5.1968 H         1 <0>         0.1682
     35 H9          3.4733   -7.2269   -6.7747 H         1 <0>         0.4371
     36 H10         5.9807   -6.2200   -3.1388 H         1 <0>         0.1304
     37 H11         6.1259   -7.3167   -0.9390 H         1 <0>         0.1325
     38 H12         5.8726   -9.7596   -0.7620 H         1 <0>         0.1318
     39 H13         5.4733  -11.1057   -2.7848 H         1 <0>         0.1343
     40 H14         5.3197  -10.0081   -4.9836 H         1 <0>         0.1406
@<TRIPOS>BOND
     1    1    2 1
     2    1   27 1
     3    1   28 1
     4    1   29 1
     5    2    3 1
     6    3    8 ar
     7    3    4 ar
     8    4    5 ar
     9    4   30 1
    10    5    6 ar
    11    5   31 1
    12    6    7 ar
    13    6    9 1
    14    7    8 ar
    15    7   32 1
    16    8   33 1
    17    9   10 2
    18    9   34 1
    19   10   16 1
    20   10   11 1
    21   11   12 2
    22   11   13 am
    23   13   14 1
    24   13   17 1
    25   14   15 2
    26   14   16 1
    27   17   18 1
    28   17   35 1
    29   18   19 2
    30   18   20 2
    31   18   21 1
    32   21   26 ar
    33   21   22 ar
    34   22   23 ar
    35   22   36 1
    36   23   24 ar
    37   23   37 1
    38   24   25 ar
    39   24   38 1
    40   25   26 ar
    41   25   39 1
    42   26   40 1
@<TRIPOS>MOLECULE
ZINC13680681
   39    41     0     0     0
SMALL
USER_CHARGES

@<TRIPOS>ATOM
      1 C1         -1.0590   -0.8011   -0.6618 C.3       1 <0>         0.0240
      2 O1         -0.1927    0.0103    0.1338 O.3       1 <0>        -0.3156
      3 C2          0.4777   -0.6069    1.1403 C.ar      1 <0>         0.1418
      4 C3          0.3071   -1.9701    1.3521 C.ar      1 <0>        -0.2043
      5 C4          0.9843   -2.6011    2.3712 C.ar      1 <0>        -0.0519
      6 C5          1.8467   -1.8670    3.1949 C.ar      1 <0>        -0.1151
      7 C6          2.0151   -0.4940    2.9767 C.ar      1 <0>        -0.0461
      8 C7          1.3366    0.1257    1.9516 C.ar      1 <0>        -0.1560
      9 C8          2.5714   -2.5345    4.2838 C.2       1 <0>         0.0442
     10 C9          2.5430   -3.8875    4.3886 C.2       1 <0>        -0.2032
     11 C10         3.0494   -4.7589    5.4678 C.2       1 <0>         0.5538
     12 O2          3.5906   -4.3019    6.4576 O.2       1 <0>        -0.4439
     13 N1          2.8847   -6.0608    5.3047 N.am      1 <0>        -0.2461
     14 C11         2.2841   -6.5629    4.2066 C.2       1 <0>         0.1544
     15 S1          1.9800   -8.2019    3.8166 S.2       1 <0>        -0.3404
     16 S2          1.8753   -5.1040    3.2616 S.3       1 <0>         0.0038
     17 N2          3.3450   -6.9385    6.2949 N.2       1 <0>        -0.9231
     18 S3          3.1485   -8.5723    6.1097 S.o2      1 <0>         2.6108
     19 O3          1.7500   -8.8205    6.1522 O.2       1 <0>        -1.0052
     20 O4          3.9571   -8.9561    5.0060 O.2       1 <0>        -1.0051
     21 C12         3.8406   -9.3451    7.5339 C.ar      1 <0>        -0.6173
     22 C13         5.1744   -9.7083    7.5437 C.ar      1 <0>        -0.0244
     23 C14         5.7174  -10.3145    8.6611 C.ar      1 <0>        -0.1486
     24 C15         4.9268  -10.5572    9.7687 C.ar      1 <0>        -0.0849
     25 C16         3.5932  -10.1932    9.7592 C.ar      1 <0>        -0.1486
     26 C17         3.0513   -9.5831    8.6435 C.ar      1 <0>        -0.0245
     27 H1         -1.8266   -1.2439   -0.0270 H         1 <0>         0.0585
     28 H2         -1.5313   -0.1858   -1.4276 H         1 <0>         0.1004
     29 H3         -0.4800   -1.5926   -1.1377 H         1 <0>         0.0590
     30 H4         -0.3583   -2.5352    0.7163 H         1 <0>         0.1349
     31 H5          0.8504   -3.6601    2.5353 H         1 <0>         0.1407
     32 H6          2.6787    0.0769    3.6092 H         1 <0>         0.1399
     33 H7          1.4686    1.1838    1.7800 H         1 <0>         0.1356
     34 H8          3.1270   -1.9488    5.0012 H         1 <0>         0.1583
     35 H9          5.7921   -9.5187    6.6784 H         1 <0>         0.1356
     36 H10         6.7593  -10.5989    8.6685 H         1 <0>         0.1252
     37 H11         5.3509  -11.0315   10.6414 H         1 <0>         0.1226
     38 H12         2.9755  -10.3831   10.6245 H         1 <0>         0.1252
     39 H13         2.0103   -9.2953    8.6374 H         1 <0>         0.1356
@<TRIPOS>BOND
     1    1    2 1
     2    1   27 1
     3    1   28 1
     4    1   29 1
     5    2    3 1
     6    3    8 ar
     7    3    4 ar
     8    4    5 ar
     9    4   30 1
    10    5    6 ar
    11    5   31 1
    12    6    7 ar
    13    6    9 1
    14    7    8 ar
    15    7   32 1
    16    8   33 1
    17    9   10 2
    18    9   34 1
    19   10   16 1
    20   10   11 1
    21   11   12 2
    22   11   13 am
    23   13   14 1
    24   13   17 1
    25   14   15 2
    26   14   16 1
    27   17   18 1
    28   18   19 2
    29   18   20 2
    30   18   21 1
    31   21   26 ar
    32   21   22 ar
    33   22   23 ar
    34   22   35 1
    35   23   24 ar
    36   23   36 1
    37   24   25 ar
    38   24   37 1
    39   25   26 ar
    40   25   38 1
    41   26   39 1
@<TRIPOS>MOLECULE
ZINC13683452
   19    19     0     0     0
SMALL
USER_CHARGES
5,6-dihydroxy-2-methylsulfonyl-pyrimidine-4-carboxylic acid
@<TRIPOS>ATOM
      1 C1         -0.0127    1.0858    0.0080 C.3       1 <0>        -0.6525
      2 S1         -0.8618    1.6708    1.5005 S.o2      1 <0>         2.5406
      3 O1         -0.7347    3.0815    1.6147 O.2       1 <0>        -0.9378
      4 O2         -2.1328    1.0462    1.6171 O.2       1 <0>        -0.9311
      5 C2          0.0816    1.0244    2.8409 C.ar      1 <0>        -0.2589
      6 N1         -0.2328   -0.1541    3.3288 N.ar      1 <0>        -0.4298
      7 C3          0.4576   -0.6843    4.3407 C.ar      1 <0>         0.0529
      8 C4          1.5206    0.0415    4.8850 C.ar      1 <0>         0.0364
      9 C5          1.8138    1.2980    4.3324 C.ar      1 <0>         0.3658
     10 N2          1.0776    1.7427    3.3254 N.ar      1 <0>        -0.5305
     11 O3          2.8339    2.0446    4.8220 O.3       1 <0>        -0.7233
     12 O4          2.2485   -0.4544    5.9173 O.3       1 <0>        -0.4617
     13 C6          0.0998   -2.0147    4.8806 C.2       1 <0>         0.5140
     14 O5          0.7319   -2.4849    5.8048 O.co2     1 <0>        -0.6212
     15 O6         -0.9270   -2.7041    4.3472 O.co2     1 <0>        -0.7510
     16 H1         -0.1180   -0.0064   -0.0694 H         1 <0>         0.1322
     17 H2          1.0540    1.3482    0.0664 H         1 <0>         0.1296
     18 H3         -0.4592    1.5609   -0.8779 H         1 <0>         0.1231
     19 H4          3.0820    0.1305    6.3336 H         1 <0>         0.4033
@<TRIPOS>BOND
     1    1    2 1
     2    1   16 1
     3    1   17 1
     4    1   18 1
     5    2    3 2
     6    2    4 2
     7    2    5 1
     8    5   10 ar
     9    5    6 ar
    10    6    7 ar
    11    7    8 ar
    12    7   13 1
    13    8    9 ar
    14    8   12 1
    15    9   10 ar
    16    9   11 1
    17   12   19 1
    18   13   14 2
    19   13   15 1
@<TRIPOS>MOLECULE
ZINC13680669
   24    25     0     0     0
SMALL
USER_CHARGES
4-[(Z)-(3-amino-4-oxo-2-thioxo-thiazolidin-5-ylidene)methyl]benzonitrile
@<TRIPOS>ATOM
      1 C1          3.2330    3.9725   -0.1027 C.ar      1 <0>        -0.0915
      2 C2          4.2102    4.9222   -0.1916 C.ar      1 <0>        -0.0654
      3 C3          5.5501    4.5389   -0.3073 C.ar      1 <0>         0.0056
      4 C4          5.8916    3.1829   -0.3257 C.ar      1 <0>        -0.0720
      5 C5          4.9168    2.2313   -0.2307 C.ar      1 <0>        -0.0733
      6 C6          3.5743    2.6140   -0.1152 C.ar      1 <0>        -0.0729
      7 C7          2.5248    1.5915   -0.0135 C.2       1 <0>         0.0914
      8 C8          1.2877    1.9309    0.4284 C.2       1 <0>        -0.2359
      9 C9          0.0471    1.1249    0.4716 C.2       1 <0>         0.5484
     10 O1          0.0176   -0.0258    0.0777 O.2       1 <0>        -0.4361
     11 N1         -1.0289    1.7224    0.9554 N.am      1 <0>        -0.3583
     12 C10        -0.9904    2.9965    1.3951 C.2       1 <0>         0.2277
     13 S1         -2.2638    3.9321    2.0539 S.2       1 <0>        -0.3285
     14 S2          0.7075    3.4747    1.1182 S.3       1 <0>         0.1008
     15 N2         -2.2056    1.0312    1.0154 N.3       1 <0>        -0.5981
     16 C11         6.5734    5.5357   -0.4066 C.1       1 <0>         0.2420
     17 N3          7.3851    6.3265   -0.4853 N.1       1 <0>        -0.3940
     18 H1          2.1979    4.2687   -0.0179 H         1 <0>         0.1404
     19 H2          3.9478    5.9697   -0.1768 H         1 <0>         0.1454
     20 H3          6.9268    2.8882   -0.4147 H         1 <0>         0.1449
     21 H4          5.1809    1.1842   -0.2442 H         1 <0>         0.1487
     22 H5          2.7378    0.5696   -0.2904 H         1 <0>         0.1714
     23 H6         -2.9413    1.6027    1.4030 H         1 <0>         0.3895
     24 H7         -2.4637    0.6770    0.1065 H         1 <0>         0.3698
@<TRIPOS>BOND
     1    1    6 ar
     2    1    2 ar
     3    1   18 1
     4    2    3 ar
     5    2   19 1
     6    3    4 ar
     7    3   16 1
     8    4    5 ar
     9    4   20 1
    10    5    6 ar
    11    5   21 1
    12    6    7 1
    13    7    8 2
    14    7   22 1
    15    8   14 1
    16    8    9 1
    17    9   10 2
    18    9   11 am
    19   11   12 1
    20   11   15 1
    21   12   13 2
    22   12   14 1
    23   15   23 1
    24   15   24 1
    25   16   17 3
@<TRIPOS>MOLECULE
ZINC13131051
   45    48     0     0     0
SMALL
USER_CHARGES

@<TRIPOS>ATOM
      1 C1         -0.0187    1.5258    0.0104 C.3       1 <0>        -0.1385
      2 C2          0.0021   -0.0041    0.0020 C.3       1 <0>        -0.1081
      3 C3          0.7421   -0.5109    1.2415 C.3       1 <0>        -0.1351
      4 C4         -1.4333   -0.5336    0.0129 C.3       1 <0>         0.1116
      5 N1         -1.4164   -1.9929   -0.1155 N.pl3     1 <0>        -0.5233
      6 C5         -1.4509   -2.5561   -1.3756 C.ar      1 <0>         0.2179
      7 C6         -1.5000   -1.7530   -2.5109 C.ar      1 <0>        -0.1986
      8 C7         -1.5330   -2.3313   -3.7612 C.ar      1 <0>        -0.0820
      9 C8         -1.5182   -3.7115   -3.9030 C.ar      1 <0>        -0.1933
     10 C9         -1.4697   -4.5244   -2.7923 C.ar      1 <0>        -0.0373
     11 C10        -1.4355   -3.9528   -1.5200 C.ar      1 <0>        -0.1848
     12 C11        -1.3833   -4.7927   -0.3092 C.2       1 <0>         0.4180
     13 O1         -1.3679   -6.0096   -0.3878 O.2       1 <0>        -0.5042
     14 C12        -1.3511   -4.1395    0.9515 C.2       1 <0>        -0.4070
     15 C13        -1.3619   -2.7514    1.0046 C.2       1 <0>         0.5014
     16 O2         -1.3242   -2.1420    2.2065 O.3       1 <0>        -0.6048
     17 C14        -1.2986   -4.9283    2.1940 C.2       1 <0>         0.5476
     18 N2         -1.2763   -4.2738    3.3132 N.2       1 <0>        -0.9471
     19 S1         -1.2073   -5.0717    4.7650 S.o2      1 <0>         2.5893
     20 O3         -0.1243   -4.5078    5.4918 O.2       1 <0>        -1.0195
     21 O4         -2.5331   -5.1106    5.2749 O.2       1 <0>        -1.0293
     22 C15        -0.7542   -6.7331    4.3836 C.ar      1 <0>        -0.7955
     23 C16        -0.3263   -7.5920    5.3715 C.ar      1 <0>         0.0094
     24 C17         0.0263   -8.8910    5.0487 C.ar      1 <0>        -0.2489
     25 C18        -0.0505   -9.3232    3.7372 C.ar      1 <0>        -0.0677
     26 C19        -0.4803   -8.4651    2.7446 C.ar      1 <0>        -0.1751
     27 C20        -0.8372   -7.1600    3.0629 C.ar      1 <0>         0.2813
     28 N3         -1.2829   -6.2881    2.0719 N.2       1 <0>        -0.6838
     29 H1          1.0039    1.9031    0.0027 H         1 <0>         0.0502
     30 H2         -0.5459    1.8868   -0.8726 H         1 <0>         0.0471
     31 H3         -0.5289    1.8773    0.9072 H         1 <0>         0.0551
     32 H4          0.5123   -0.3556   -0.8948 H         1 <0>         0.0633
     33 H5          0.7568   -1.6008    1.2356 H         1 <0>         0.0687
     34 H6          1.7647   -0.1336    1.2338 H         1 <0>         0.0312
     35 H7          0.2319   -0.1594    2.1383 H         1 <0>         0.0634
     36 H8         -1.9156   -0.2570    0.9504 H         1 <0>         0.0925
     37 H9         -1.9862   -0.1019   -0.8214 H         1 <0>         0.0663
     38 H10        -1.5127   -0.6776   -2.4122 H         1 <0>         0.1192
     39 H11        -1.5711   -1.7040   -4.6395 H         1 <0>         0.1104
     40 H12        -1.5452   -4.1505   -4.8893 H         1 <0>         0.1101
     41 H13        -1.4583   -5.5984   -2.9055 H         1 <0>         0.1263
     42 H14        -0.2658   -7.2529    6.3950 H         1 <0>         0.0955
     43 H15         0.3620   -9.5671    5.8211 H         1 <0>         0.0963
     44 H16         0.2267  -10.3370    3.4883 H         1 <0>         0.0988
     45 H17        -0.5385   -8.8073    1.7220 H         1 <0>         0.1129
@<TRIPOS>BOND
     1    1    2 1
     2    1   29 1
     3    1   30 1
     4    1   31 1
     5    2    3 1
     6    2    4 1
     7    2   32 1
     8    3   33 1
     9    3   34 1
    10    3   35 1
    11    4    5 1
    12    4   36 1
    13    4   37 1
    14    5   15 1
    15    5    6 1
    16    6   11 ar
    17    6    7 ar
    18    7    8 ar
    19    7   38 1
    20    8    9 ar
    21    8   39 1
    22    9   10 ar
    23    9   40 1
    24   10   11 ar
    25   10   41 1
    26   11   12 1
    27   12   13 2
    28   12   14 1
    29   14   15 2
    30   14   17 1
    31   15   16 1
    32   17   28 1
    33   17   18 2
    34   18   19 1
    35   19   20 2
    36   19   21 2
    37   19   22 1
    38   22   27 ar
    39   22   23 ar
    40   23   24 ar
    41   23   42 1
    42   24   25 ar
    43   24   43 1
    44   25   26 ar
    45   25   44 1
    46   26   27 ar
    47   26   45 1
    48   27   28 1
@<TRIPOS>MOLECULE
ZINC28572604
   65    70     0     0     0
SMALL
USER_CHARGES
2-[4-[bis(3-pyridyl)methoxy]-2-fluoro-phenyl]-1-cyclohexyl-benzimidazole-5-carboxylic acid
@<TRIPOS>ATOM
      1 C1         -2.7035    0.2786    0.7866 C.ar      1 <0>        -0.1714
      2 C2         -2.3996   -0.6078   -0.2354 C.ar      1 <0>        -0.0584
      3 C3         -1.0672   -0.8018   -0.5662 C.ar      1 <0>        -0.1401
      4 C4         -0.0932   -0.1103    0.1288 C.ar      1 <0>         0.1315
      5 N1         -0.4190    0.7249    1.0958 N.ar      1 <0>        -0.4826
      6 C5         -1.6754    0.9342    1.4373 C.ar      1 <0>         0.1052
      7 C6         -0.6860   -1.7552   -1.6693 C.3       1 <0>         0.1771
      8 C7         -0.3987   -0.9779   -2.9280 C.ar      1 <0>        -0.1674
      9 C8         -1.3868   -0.8004   -3.8843 C.ar      1 <0>        -0.0599
     10 C9         -1.0785   -0.0748   -5.0249 C.ar      1 <0>        -0.1697
     11 C10         0.1971    0.4358   -5.1739 C.ar      1 <0>         0.1060
     12 N2          1.1135    0.2429   -4.2456 N.ar      1 <0>        -0.4808
     13 C11         0.8546   -0.4380   -3.1464 C.ar      1 <0>         0.1289
     14 O1          0.4797   -2.4869   -1.2848 O.3       1 <0>        -0.2949
     15 C12         0.5873   -3.7606   -1.7434 C.ar      1 <0>         0.1709
     16 C13         1.6259   -4.5710   -1.3004 C.ar      1 <0>        -0.1641
     17 C14         1.7399   -5.8637   -1.7622 C.ar      1 <0>        -0.1166
     18 C15         0.8099   -6.3614   -2.6775 C.ar      1 <0>        -0.0879
     19 C16        -0.2341   -5.5437   -3.1216 C.ar      1 <0>         0.1901
     20 C17        -0.3436   -4.2509   -2.6487 C.ar      1 <0>        -0.2539
     21 F1         -1.1369   -6.0195   -4.0070 F         1 <0>        -0.1038
     22 C18         0.9284   -7.7473   -3.1747 C.2       1 <0>         0.2925
     23 N3          0.1166   -8.3113   -4.0357 N.2       1 <0>        -0.4580
     24 C19         0.5175   -9.5859   -4.2695 C.ar      1 <0>         0.0324
     25 C20         0.0265  -10.6098   -5.0799 C.ar      1 <0>        -0.0258
     26 C21         0.6788  -11.8393   -5.1020 C.ar      1 <0>        -0.1241
     27 C22         1.8202  -12.0457   -4.3149 C.ar      1 <0>        -0.0412
     28 C23         2.3031  -11.0464   -3.5210 C.ar      1 <0>        -0.1433
     29 C24         1.6654   -9.8114   -3.4861 C.ar      1 <0>         0.0639
     30 N4          1.9065   -8.6341   -2.8098 N.pl3     1 <0>        -0.4835
     31 C25         3.0031   -8.3802   -1.8722 C.3       1 <0>         0.1401
     32 C26         2.4283   -8.0167   -0.5016 C.3       1 <0>        -0.1885
     33 C27         3.5736   -7.7515    0.4777 C.3       1 <0>        -0.1167
     34 C28         4.4293   -6.5936   -0.0399 C.3       1 <0>        -0.1356
     35 C29         5.0041   -6.9571   -1.4104 C.3       1 <0>        -0.1168
     36 C30         3.8589   -7.2223   -2.3897 C.3       1 <0>        -0.1873
     37 C31         0.1672  -12.9283   -5.9559 C.2       1 <0>         0.4939
     38 O2         -0.8222  -12.7513   -6.6385 O.co2     1 <0>        -0.6293
     39 O3          0.7972  -14.1192   -5.9786 O.co2     1 <0>        -0.7552
     40 H1         -3.7305    0.4545    1.0706 H         1 <0>         0.1400
     41 H2         -3.1822   -1.1347   -0.7610 H         1 <0>         0.1374
     42 H3          0.9470   -0.2559   -0.1228 H         1 <0>         0.1597
     43 H4         -1.9037    1.6257    2.2349 H         1 <0>         0.1587
     44 H5         -1.4810   -2.4962   -1.8391 H         1 <0>         0.1026
     45 H6         -2.3741   -1.2147   -3.7427 H         1 <0>         0.1363
     46 H7         -1.8246    0.0860   -5.7890 H         1 <0>         0.1399
     47 H8          0.4463    0.9990   -6.0611 H         1 <0>         0.1587
     48 H9          1.6308   -0.5750   -2.4080 H         1 <0>         0.1590
     49 H10         2.3454   -4.1862   -0.5928 H         1 <0>         0.1449
     50 H11         2.5479   -6.4917   -1.4169 H         1 <0>         0.2258
     51 H12        -1.1518   -3.6194   -2.9868 H         1 <0>         0.1446
     52 H13        -0.8529  -10.4497   -5.6860 H         1 <0>         0.1360
     53 H14         2.3211  -13.0023   -4.3371 H         1 <0>         0.1403
     54 H15         3.1832  -11.2153   -2.9182 H         1 <0>         0.1156
     55 H16         3.5974   -9.3038   -1.8106 H         1 <0>         0.1059
     56 H17         1.8069   -7.1136   -0.5924 H         1 <0>         0.1149
     57 H18         1.8130   -8.8492   -0.1295 H         1 <0>         0.0793
     58 H19         3.1604   -7.4902    1.4631 H         1 <0>         0.0744
     59 H20         4.1950   -8.6546    0.5685 H         1 <0>         0.0700
     60 H21         3.8079   -5.6905   -0.1307 H         1 <0>         0.0684
     61 H22         5.2527   -6.4028    0.6642 H         1 <0>         0.0737
     62 H23         5.6194   -6.1246   -1.7825 H         1 <0>         0.0748
     63 H24         5.6255   -7.8602   -1.3196 H         1 <0>         0.0700
     64 H25         4.2722   -7.4837   -3.3750 H         1 <0>         0.0794
     65 H26         3.2376   -6.3191   -2.4805 H         1 <0>         0.1138
@<TRIPOS>BOND
     1    1    6 ar
     2    1    2 ar
     3    1   40 1
     4    2    3 ar
     5    2   41 1
     6    3    4 ar
     7    3    7 1
     8    4    5 ar
     9    4   42 1
    10    5    6 ar
    11    6   43 1
    12    7    8 1
    13    7   14 1
    14    7   44 1
    15    8   13 ar
    16    8    9 ar
    17    9   10 ar
    18    9   45 1
    19   10   11 ar
    20   10   46 1
    21   11   12 ar
    22   11   47 1
    23   12   13 ar
    24   13   48 1
    25   14   15 1
    26   15   20 ar
    27   15   16 ar
    28   16   17 ar
    29   16   49 1
    30   17   18 ar
    31   17   50 1
    32   18   19 ar
    33   18   22 1
    34   19   20 ar
    35   19   21 1
    36   20   51 1
    37   22   30 1
    38   22   23 2
    39   23   24 1
    40   24   29 ar
    41   24   25 ar
    42   25   26 ar
    43   25   52 1
    44   26   27 ar
    45   26   37 1
    46   27   28 ar
    47   27   53 1
    48   28   29 ar
    49   28   54 1
    50   29   30 1
    51   30   31 1
    52   31   36 1
    53   31   32 1
    54   31   55 1
    55   32   33 1
    56   32   56 1
    57   32   57 1
    58   33   34 1
    59   33   58 1
    60   33   59 1
    61   34   35 1
    62   34   60 1
    63   34   61 1
    64   35   36 1
    65   35   62 1
    66   35   63 1
    67   36   64 1
    68   36   65 1
    69   37   38 2
    70   37   39 1
@<TRIPOS>MOLECULE
ZINC28572604
   66    71     0     0     0
SMALL
USER_CHARGES
2-[4-[bis(3-pyridyl)methoxy]-2-fluoro-phenyl]-1-cyclohexyl-benzimidazole-5-carboxylic acid
@<TRIPOS>ATOM
      1 C1         -2.7035    0.2786    0.7866 C.ar      1 <0>        -0.1691
      2 C2         -2.3996   -0.6078   -0.2354 C.ar      1 <0>        -0.0562
      3 C3         -1.0672   -0.8018   -0.5662 C.ar      1 <0>        -0.1516
      4 C4         -0.0932   -0.1103    0.1288 C.ar      1 <0>         0.1328
      5 N1         -0.4190    0.7249    1.0958 N.ar      1 <0>        -0.4798
      6 C5         -1.6754    0.9342    1.4373 C.ar      1 <0>         0.1129
      7 C6         -0.6860   -1.7552   -1.6693 C.3       1 <0>         0.1813
      8 C7         -0.3987   -0.9779   -2.9280 C.ar      1 <0>        -0.1785
      9 C8         -1.3868   -0.8004   -3.8843 C.ar      1 <0>        -0.0595
     10 C9         -1.0785   -0.0748   -5.0249 C.ar      1 <0>        -0.1677
     11 C10         0.1971    0.4358   -5.1739 C.ar      1 <0>         0.1124
     12 N2          1.1135    0.2429   -4.2456 N.ar      1 <0>        -0.4777
     13 C11         0.8546   -0.4380   -3.1464 C.ar      1 <0>         0.1289
     14 O1          0.4797   -2.4869   -1.2848 O.3       1 <0>        -0.2834
     15 C12         0.5873   -3.7606   -1.7434 C.ar      1 <0>         0.2137
     16 C13         1.6259   -4.5710   -1.3004 C.ar      1 <0>        -0.1523
     17 C14         1.7399   -5.8637   -1.7622 C.ar      1 <0>        -0.0845
     18 C15         0.8099   -6.3614   -2.6775 C.ar      1 <0>        -0.1562
     19 C16        -0.2341   -5.5437   -3.1216 C.ar      1 <0>         0.1889
     20 C17        -0.3436   -4.2509   -2.6487 C.ar      1 <0>        -0.2409
     21 F1         -1.1369   -6.0195   -4.0070 F         1 <0>        -0.1173
     22 C18         0.9284   -7.7473   -3.1747 C.cat     1 <0>         0.4058
     23 N3          0.1166   -8.3113   -4.0357 N.pl3     1 <0>        -0.5018
     24 C19         0.5175   -9.5859   -4.2695 C.ar      1 <0>         0.0557
     25 C20         0.0265  -10.6098   -5.0799 C.ar      1 <0>        -0.0553
     26 C21         0.6788  -11.8393   -5.1020 C.ar      1 <0>        -0.0667
     27 C22         1.8202  -12.0457   -4.3149 C.ar      1 <0>        -0.0218
     28 C23         2.3031  -11.0464   -3.5210 C.ar      1 <0>        -0.1139
     29 C24         1.6654   -9.8114   -3.4861 C.ar      1 <0>         0.0798
     30 N4          1.9065   -8.6341   -2.8098 N.pl3     1 <0>        -0.4255
     31 C25         3.0031   -8.3802   -1.8722 C.3       1 <0>         0.1268
     32 C26         2.4283   -8.0167   -0.5016 C.3       1 <0>        -0.1913
     33 C27         3.5736   -7.7515    0.4777 C.3       1 <0>        -0.1193
     34 C28         4.4293   -6.5936   -0.0399 C.3       1 <0>        -0.1407
     35 C29         5.0041   -6.9571   -1.4104 C.3       1 <0>        -0.1194
     36 C30         3.8589   -7.2223   -2.3897 C.3       1 <0>        -0.1901
     37 C31         0.1672  -12.9283   -5.9559 C.2       1 <0>         0.4840
     38 O2         -0.8222  -12.7513   -6.6385 O.co2     1 <0>        -0.6117
     39 O3          0.7972  -14.1192   -5.9786 O.co2     1 <0>        -0.7270
     40 H1         -3.7305    0.4545    1.0706 H         1 <0>         0.1433
     41 H2         -3.1822   -1.1347   -0.7610 H         1 <0>         0.1375
     42 H3          0.9470   -0.2559   -0.1228 H         1 <0>         0.1590
     43 H4         -1.9037    1.6257    2.2349 H         1 <0>         0.1624
     44 H5         -1.4810   -2.4962   -1.8391 H         1 <0>         0.1028
     45 H6         -2.3741   -1.2147   -3.7427 H         1 <0>         0.1371
     46 H7         -1.8246    0.0860   -5.7890 H         1 <0>         0.1429
     47 H8          0.4463    0.9990   -6.0611 H         1 <0>         0.1623
     48 H9          1.6308   -0.5750   -2.4080 H         1 <0>         0.1591
     49 H10         2.3454   -4.1862   -0.5928 H         1 <0>         0.1630
     50 H11         2.5479   -6.4917   -1.4169 H         1 <0>         0.2334
     51 H12        -1.1518   -3.6194   -2.9868 H         1 <0>         0.1616
     52 H13        -0.8529  -10.4497   -5.6860 H         1 <0>         0.1563
     53 H14         2.3211  -13.0023   -4.3371 H         1 <0>         0.1641
     54 H15         3.1832  -11.2153   -2.9182 H         1 <0>         0.1443
     55 H16         3.5974   -9.3038   -1.8106 H         1 <0>         0.1337
     56 H17         1.8069   -7.1136   -0.5924 H         1 <0>         0.1134
     57 H18         1.8130   -8.8492   -0.1295 H         1 <0>         0.0911
     58 H19         3.1604   -7.4902    1.4631 H         1 <0>         0.0855
     59 H20         4.1950   -8.6546    0.5685 H         1 <0>         0.0790
     60 H21         3.8079   -5.6905   -0.1307 H         1 <0>         0.0686
     61 H22         5.2527   -6.4028    0.6642 H         1 <0>         0.0852
     62 H23         5.6194   -6.1246   -1.7825 H         1 <0>         0.0859
     63 H24         5.6255   -7.8602   -1.3196 H         1 <0>         0.0790
     64 H25         4.2722   -7.4837   -3.3750 H         1 <0>         0.0912
     65 H26         3.2376   -6.3191   -2.4805 H         1 <0>         0.1124
     66 H27        -0.7321   -7.7436   -4.4448 H         1 <0>         0.4821
@<TRIPOS>BOND
     1    1    6 ar
     2    1    2 ar
     3    1   40 1
     4    2    3 ar
     5    2   41 1
     6    3    4 ar
     7    3    7 1
     8    4    5 ar
     9    4   42 1
    10    5    6 ar
    11    6   43 1
    12    7    8 1
    13    7   14 1
    14    7   44 1
    15    8   13 ar
    16    8    9 ar
    17    9   10 ar
    18    9   45 1
    19   10   11 ar
    20   10   46 1
    21   11   12 ar
    22   11   47 1
    23   12   13 ar
    24   13   48 1
    25   14   15 1
    26   15   20 ar
    27   15   16 ar
    28   16   17 ar
    29   16   49 1
    30   17   18 ar
    31   17   50 1
    32   18   19 ar
    33   18   22 1
    34   19   20 ar
    35   19   21 1
    36   20   51 1
    37   22   30 1
    38   22   23 2
    39   23   24 1
    40   23   66 1
    41   24   29 ar
    42   24   25 ar
    43   25   26 ar
    44   25   52 1
    45   26   27 ar
    46   26   37 1
    47   27   28 ar
    48   27   53 1
    49   28   29 ar
    50   28   54 1
    51   29   30 1
    52   30   31 1
    53   31   36 1
    54   31   32 1
    55   31   55 1
    56   32   33 1
    57   32   56 1
    58   32   57 1
    59   33   34 1
    60   33   58 1
    61   33   59 1
    62   34   35 1
    63   34   60 1
    64   34   61 1
    65   35   36 1
    66   35   62 1
    67   35   63 1
    68   36   64 1
    69   36   65 1
    70   37   38 2
    71   37   39 1
@<TRIPOS>MOLECULE
ZINC03583890
   24    25     0     0     0
SMALL
USER_CHARGES

@<TRIPOS>ATOM
      1 C1         -0.0167    1.3794    0.0096 C.ar      1 <0>        -0.1077
      2 C2          1.1683    2.0936    0.0021 C.ar      1 <0>        -0.1217
      3 C3          2.3774    1.4296   -0.0129 C.ar      1 <0>        -0.0598
      4 C4          2.4035    0.0338   -0.0206 C.ar      1 <0>        -0.0447
      5 C5          1.2042   -0.6806   -0.0130 C.ar      1 <0>        -0.1073
      6 C6          0.0021   -0.0041    0.0020 C.ar      1 <0>        -0.1230
      7 C7          3.6952   -0.6843   -0.0372 C.2       1 <0>         0.3440
      8 N1          4.8047    0.0116   -0.0392 N.2       1 <0>        -0.4263
      9 C8          6.0140   -0.5720   -0.0539 C.2       1 <0>         0.0522
     10 C9          6.1067   -1.9570   -0.0677 C.2       1 <0>         0.0126
     11 C10         4.8564   -2.7300   -0.0654 C.2       1 <0>         0.4912
     12 N2          3.6894   -2.0490   -0.0445 N.am      1 <0>        -0.6188
     13 O1          4.8718   -3.9482   -0.0770 O.2       1 <0>        -0.5521
     14 O2          7.3118   -2.5769   -0.0831 O.3       1 <0>        -0.4026
     15 C11         7.2391    0.2554   -0.0560 C.2       1 <0>         0.5393
     16 O3          8.3383   -0.2799   -0.0694 O.co2     1 <0>        -0.6547
     17 O4          7.1531    1.4750   -0.0443 O.co2     1 <0>        -0.6632
     18 H1         -0.9605    1.9042    0.0260 H         1 <0>         0.1238
     19 H2          1.1467    3.1734    0.0078 H         1 <0>         0.1300
     20 H3          3.3017    1.9882   -0.0191 H         1 <0>         0.1503
     21 H4          1.2175   -1.7605   -0.0192 H         1 <0>         0.1198
     22 H5         -0.9265   -0.5555    0.0079 H         1 <0>         0.1259
     23 H6          7.2574   -3.5423   -0.0917 H         1 <0>         0.3835
     24 H7          2.8472   -2.5303   -0.0384 H         1 <0>         0.4094
@<TRIPOS>BOND
     1    1    6 ar
     2    1    2 ar
     3    1   18 1
     4    2    3 ar
     5    2   19 1
     6    3    4 ar
     7    3   20 1
     8    4    5 ar
     9    4    7 1
    10    5    6 ar
    11    5   21 1
    12    6   22 1
    13    7   12 1
    14    7    8 2
    15    8    9 1
    16    9   10 2
    17    9   15 1
    18   10   11 1
    19   10   14 1
    20   11   12 am
    21   11   13 2
    22   12   24 1
    23   14   23 1
    24   15   16 2
    25   15   17 1
