@<TRIPOS>MOLECULE
ZINC13446262
   45    45     0     0     0
SMALL
USER_CHARGES
ethyl (2S)-1-(3,3-dimethyl-2-oxo-pentanoyl)piperidine-2-carboxylate
@<TRIPOS>ATOM
      1 C1         -1.0673    1.5353    0.8527 C.3       1 <0>        -0.1558
      2 C2         -1.0645    0.0054    0.8584 C.3       1 <0>        -0.1081
      3 C3          0.0058   -0.4991    1.8284 C.3       1 <0>        -0.0878
      4 C4          1.3780    0.0118    1.3844 C.3       1 <0>        -0.1457
      5 C5         -0.2988    0.0156    3.2366 C.3       1 <0>        -0.1472
      6 C6          0.0086   -2.0060    1.8340 C.2       1 <0>         0.3703
      7 O1         -0.7657   -2.6140    1.1343 O.2       1 <0>        -0.4067
      8 C7          0.9672   -2.7465    2.7033 C.2       1 <0>         0.4725
      9 O2          1.6368   -2.1454    3.5176 O.2       1 <0>        -0.4775
     10 N1          1.0901   -4.0834    2.5847 N.am      1 <0>        -0.5784
     11 C8          0.3990   -4.8061    1.5083 C.3       1 <0>         0.0718
     12 C9          1.4255   -5.6428    0.7381 C.3       1 <0>        -0.1393
     13 C10         2.1802   -6.5450    1.7172 C.3       1 <0>        -0.1194
     14 C11         2.9275   -5.6819    2.7364 C.3       1 <0>        -0.1251
     15 C12         1.9226   -4.8449    3.5258 C.3       1 <0>         0.1492
     16 H1          1.2910   -5.5037    4.1219 H         1 <0>         0.1075
     17 C13         2.6613   -3.8933    4.4312 C.2       1 <0>         0.4770
     18 O3          3.5387   -3.1928    3.9845 O.2       1 <0>        -0.4883
     19 O4          2.3446   -3.8238    5.7337 O.3       1 <0>        -0.3600
     20 C14         3.0977   -2.8849    6.5460 C.3       1 <0>         0.0691
     21 C15         2.5990   -2.9466    7.9911 C.3       1 <0>        -0.1526
     22 H2         -0.0898    1.8993    0.5364 H         1 <0>         0.0601
     23 H3         -1.8299    1.8947    0.1617 H         1 <0>         0.0587
     24 H4         -1.2844    1.9020    1.8560 H         1 <0>         0.0602
     25 H5         -2.0421   -0.3586    1.1747 H         1 <0>         0.0696
     26 H6         -0.8475   -0.3613   -0.1449 H         1 <0>         0.0692
     27 H7          1.3759    1.1018    1.3803 H         1 <0>         0.0770
     28 H8          2.1405   -0.3475    2.0754 H         1 <0>         0.0761
     29 H9          1.5950   -0.3549    0.3811 H         1 <0>         0.0569
     30 H10        -1.2763   -0.3483    3.5529 H         1 <0>         0.0562
     31 H11         0.4637   -0.3437    3.9276 H         1 <0>         0.0810
     32 H12        -0.3008    1.1056    3.2326 H         1 <0>         0.0753
     33 H13        -0.3593   -5.4616    1.9365 H         1 <0>         0.0782
     34 H14        -0.0716   -4.0922    0.8323 H         1 <0>         0.1354
     35 H15         0.9124   -6.2575   -0.0015 H         1 <0>         0.0846
     36 H16         2.1308   -4.9810    0.2355 H         1 <0>         0.0692
     37 H17         1.4714   -7.1894    2.2373 H         1 <0>         0.0708
     38 H18         2.8943   -7.1590    1.1685 H         1 <0>         0.0770
     39 H19         3.4836   -6.3244    3.4191 H         1 <0>         0.0852
     40 H20         3.6191   -5.0201    2.2151 H         1 <0>         0.0837
     41 H21         4.1557   -3.1451    6.5153 H         1 <0>         0.0665
     42 H22         2.9601   -1.8761    6.1569 H         1 <0>         0.0731
     43 H23         1.5409   -2.6864    8.0218 H         1 <0>         0.0655
     44 H24         2.7365   -3.9555    8.3802 H         1 <0>         0.0651
     45 H25         3.1643   -2.2418    8.6009 H         1 <0>         0.0798
@<TRIPOS>BOND
     1    1    2 1
     2    1   22 1
     3    1   23 1
     4    1   24 1
     5    2    3 1
     6    2   25 1
     7    2   26 1
     8    3    4 1
     9    3    5 1
    10    3    6 1
    11    4   27 1
    12    4   28 1
    13    4   29 1
    14    5   30 1
    15    5   31 1
    16    5   32 1
    17    6    7 2
    18    6    8 1
    19    8    9 2
    20    8   10 am
    21   10   15 1
    22   10   11 1
    23   11   12 1
    24   11   33 1
    25   11   34 1
    26   12   13 1
    27   12   35 1
    28   12   36 1
    29   13   14 1
    30   13   37 1
    31   13   38 1
    32   14   15 1
    33   14   39 1
    34   14   40 1
    35   15   16 1
    36   15   17 1
    37   17   18 2
    38   17   19 1
    39   19   20 1
    40   20   21 1
    41   20   41 1
    42   20   42 1
    43   21   43 1
    44   21   44 1
    45   21   45 1
