@<TRIPOS>MOLECULE
ZINC06053054
   39    41     0     0     0
SMALL
USER_CHARGES
N-(4-chlorophenyl)-2-(1-naphthyloxy)propanamide
@<TRIPOS>ATOM
      1 C1          0.0522    0.8333    0.0749 C.3       1 <0>        -0.1796
      2 C2         -0.6989    1.3492    1.3040 C.3       1 <0>         0.0694
      3 H1         -1.6962    0.9103    1.3310 H         1 <0>         0.1063
      4 C3          0.0537    0.9634    2.5513 C.2       1 <0>         0.5192
      5 O1          0.5366    1.8224    3.2584 O.2       1 <0>        -0.4880
      6 N1          0.1903   -0.3363    2.8810 N.am      1 <0>        -0.6700
      7 C4          0.7902   -0.6910    4.0949 C.ar      1 <0>         0.1507
      8 C5          1.5673   -1.8389    4.1774 C.ar      1 <0>        -0.1304
      9 C6          2.1624   -2.1839    5.3750 C.ar      1 <0>        -0.0893
     10 C7          1.9754   -1.3929    6.4950 C.ar      1 <0>        -0.0481
     11 C8          1.1972   -0.2513    6.4168 C.ar      1 <0>        -0.0883
     12 C9          0.6046    0.1012    5.2202 C.ar      1 <0>        -0.1079
     13 Cl1         2.7189   -1.8332    8.0007 Cl        1 <0>        -0.0664
     14 O2         -0.8066    2.7724    1.2337 O.3       1 <0>        -0.2801
     15 C10        -1.8446    3.2776    0.5184 C.ar      1 <0>         0.1474
     16 C11        -2.6681    2.4423   -0.1829 C.ar      1 <0>        -0.2263
     17 C12        -3.7390    2.9440   -0.9169 C.ar      1 <0>        -0.0761
     18 C13        -3.9916    4.2812   -0.9665 C.ar      1 <0>        -0.1419
     19 C14        -3.1649    5.1740   -0.2635 C.ar      1 <0>        -0.0183
     20 C15        -2.0765    4.6677    0.4894 C.ar      1 <0>        -0.0687
     21 C16        -1.2501    5.5598    1.1914 C.ar      1 <0>        -0.0828
     22 C17        -1.5043    6.8962    1.1400 C.ar      1 <0>        -0.1278
     23 C18        -2.5743    7.3949    0.3994 C.ar      1 <0>        -0.1001
     24 C19        -3.3962    6.5600   -0.2934 C.ar      1 <0>        -0.1184
     25 H2          0.1344   -0.2523    0.1285 H         1 <0>         0.0804
     26 H3          1.0496    1.2722    0.0479 H         1 <0>         0.0788
     27 H4         -0.4921    1.1123   -0.8272 H         1 <0>         0.0828
     28 H5         -0.1271   -1.0258    2.2771 H         1 <0>         0.4142
     29 H6          1.7099   -2.4590    3.3047 H         1 <0>         0.1373
     30 H7          2.7708   -3.0739    5.4385 H         1 <0>         0.1397
     31 H8          1.0534    0.3647    7.2922 H         1 <0>         0.1389
     32 H9         -0.0024    0.9924    5.1595 H         1 <0>         0.1421
     33 H10        -2.4878    1.3776   -0.1639 H         1 <0>         0.1292
     34 H11        -4.3775    2.2622   -1.4590 H         1 <0>         0.1265
     35 H12        -4.8246    4.6543   -1.5439 H         1 <0>         0.1295
     36 H13        -0.4172    5.1876    1.7695 H         1 <0>         0.1340
     37 H14        -0.8671    7.5802    1.6809 H         1 <0>         0.1257
     38 H15        -2.7539    8.4596    0.3746 H         1 <0>         0.1255
     39 H16        -4.2215    6.9605   -0.8634 H         1 <0>         0.1307
@<TRIPOS>BOND
     1    1    2 1
     2    1   25 1
     3    1   26 1
     4    1   27 1
     5    2    3 1
     6    2    4 1
     7    2   14 1
     8    4    5 2
     9    4    6 am
    10    6    7 1
    11    6   28 1
    12    7   12 ar
    13    7    8 ar
    14    8    9 ar
    15    8   29 1
    16    9   10 ar
    17    9   30 1
    18   10   11 ar
    19   10   13 1
    20   11   12 ar
    21   11   31 1
    22   12   32 1
    23   14   15 1
    24   15   20 ar
    25   15   16 ar
    26   16   17 ar
    27   16   33 1
    28   17   18 ar
    29   17   34 1
    30   18   19 ar
    31   18   35 1
    32   19   24 ar
    33   19   20 ar
    34   20   21 ar
    35   21   22 ar
    36   21   36 1
    37   22   23 ar
    38   22   37 1
    39   23   24 ar
    40   23   38 1
    41   24   39 1
@<TRIPOS>MOLECULE
ZINC06053055
   39    41     0     0     0
SMALL
USER_CHARGES
N-(4-chlorophenyl)-2-(1-naphthyloxy)propanamide
@<TRIPOS>ATOM
      1 C1          1.5544   -4.5710   -1.1969 C.3       1 <0>        -0.1789
      2 C2          2.4695   -4.1591   -0.0420 C.3       1 <0>         0.0697
      3 H1          2.0640   -4.5385    0.8960 H         1 <0>         0.1048
      4 C3          2.5553   -2.6558    0.0194 C.2       1 <0>         0.5192
      5 O1          3.6117   -2.0995   -0.1938 O.2       1 <0>        -0.4880
      6 N1          1.4580   -1.9296    0.3112 N.am      1 <0>        -0.6690
      7 C4          1.5102   -0.5317    0.2610 C.ar      1 <0>         0.1509
      8 C5          2.3263    0.1009   -0.6676 C.ar      1 <0>        -0.1090
      9 C6          2.3756    1.4803   -0.7153 C.ar      1 <0>        -0.0882
     10 C7          1.6128    2.2319    0.1611 C.ar      1 <0>        -0.0487
     11 C8          0.7988    1.6040    1.0874 C.ar      1 <0>        -0.0891
     12 C9          0.7458    0.2248    1.1393 C.ar      1 <0>        -0.1316
     13 Cl1         1.6775    3.9656    0.0989 Cl        1 <0>        -0.0666
     14 O2          3.7745   -4.7026   -0.2511 O.3       1 <0>        -0.2801
     15 C10         3.9854   -5.9777    0.1659 C.ar      1 <0>         0.1475
     16 C11         2.9481   -6.7233    0.6514 C.ar      1 <0>        -0.2263
     17 C12         3.1479   -8.0316    1.0827 C.ar      1 <0>        -0.0762
     18 C13         4.3813   -8.6067    1.0339 C.ar      1 <0>        -0.1419
     19 C14         5.4741   -7.8734    0.5413 C.ar      1 <0>        -0.0183
     20 C15         5.2747   -6.5432    0.0955 C.ar      1 <0>        -0.0687
     21 C16         6.3678   -5.8086   -0.3914 C.ar      1 <0>        -0.0827
     22 C17         7.5998   -6.3859   -0.4396 C.ar      1 <0>        -0.1278
     23 C18         7.7956   -7.6958   -0.0062 C.ar      1 <0>        -0.1001
     24 C19         6.7605   -8.4359    0.4769 C.ar      1 <0>        -0.1184
     25 H2          1.4924   -5.6584   -1.2413 H         1 <0>         0.0830
     26 H3          0.5590   -4.1565   -1.0374 H         1 <0>         0.0811
     27 H4          1.9599   -4.1917   -2.1348 H         1 <0>         0.0785
     28 H5          0.6322   -2.3756    0.5560 H         1 <0>         0.4144
     29 H6          2.9215   -0.4852   -1.3520 H         1 <0>         0.1440
     30 H7          3.0135    1.9728   -1.4344 H         1 <0>         0.1389
     31 H8          0.2041    2.1928    1.7701 H         1 <0>         0.1396
     32 H9          0.1101   -0.2648    1.8622 H         1 <0>         0.1371
     33 H10         1.9595   -6.2914    0.7015 H         1 <0>         0.1292
     34 H11         2.3115   -8.5995    1.4625 H         1 <0>         0.1265
     35 H12         4.5190   -9.6231    1.3722 H         1 <0>         0.1295
     36 H13         6.2311   -4.7922   -0.7301 H         1 <0>         0.1340
     37 H14         8.4379   -5.8202   -0.8191 H         1 <0>         0.1257
     38 H15         8.7831   -8.1303   -0.0547 H         1 <0>         0.1255
     39 H16         6.9269   -9.4499    0.8093 H         1 <0>         0.1307
@<TRIPOS>BOND
     1    1    2 1
     2    1   25 1
     3    1   26 1
     4    1   27 1
     5    2    3 1
     6    2    4 1
     7    2   14 1
     8    4    5 2
     9    4    6 am
    10    6    7 1
    11    6   28 1
    12    7   12 ar
    13    7    8 ar
    14    8    9 ar
    15    8   29 1
    16    9   10 ar
    17    9   30 1
    18   10   11 ar
    19   10   13 1
    20   11   12 ar
    21   11   31 1
    22   12   32 1
    23   14   15 1
    24   15   20 ar
    25   15   16 ar
    26   16   17 ar
    27   16   33 1
    28   17   18 ar
    29   17   34 1
    30   18   19 ar
    31   18   35 1
    32   19   24 ar
    33   19   20 ar
    34   20   21 ar
    35   21   22 ar
    36   21   36 1
    37   22   23 ar
    38   22   37 1
    39   23   24 ar
    40   23   38 1
    41   24   39 1
@<TRIPOS>MOLECULE
ZINC00373144
   33    34     0     0     0
SMALL
USER_CHARGES
N-(4-chlorophenyl)-2-phenoxy-propanamide
@<TRIPOS>ATOM
      1 C1         -4.2687    2.6248    1.4020 C.3       1 <0>        -0.1801
      2 C2         -3.6686    3.0981    0.0766 C.3       1 <0>         0.0701
      3 H1         -3.3264    2.2359   -0.4957 H         1 <0>         0.1056
      4 C3         -4.7160    3.8410   -0.7122 C.2       1 <0>         0.5185
      5 O1         -4.5341    4.9998   -1.0210 O.2       1 <0>        -0.4884
      6 N1         -5.8548    3.2179   -1.0745 N.am      1 <0>        -0.6694
      7 C4         -6.7801    3.8727   -1.8956 C.ar      1 <0>         0.1510
      8 C5         -8.1387    3.6280   -1.7452 C.ar      1 <0>        -0.1316
      9 C6         -9.0500    4.2790   -2.5535 C.ar      1 <0>        -0.0890
     10 C7         -8.6095    5.1665   -3.5196 C.ar      1 <0>        -0.0490
     11 C8         -7.2558    5.4081   -3.6750 C.ar      1 <0>        -0.0879
     12 C9         -6.3408    4.7637   -2.8658 C.ar      1 <0>        -0.1096
     13 Cl1        -9.7572    5.9785   -4.5380 Cl        1 <0>        -0.0667
     14 O2         -2.5637    3.9660    0.3369 O.3       1 <0>        -0.2850
     15 C10        -1.3570    3.3802    0.5553 C.ar      1 <0>         0.1264
     16 C11        -1.2588    1.9983    0.6296 C.ar      1 <0>        -0.2129
     17 C12        -0.0321    1.4055    0.8577 C.ar      1 <0>        -0.0796
     18 C13         1.0991    2.1877    1.0006 C.ar      1 <0>        -0.1556
     19 C14         1.0049    3.5648    0.9208 C.ar      1 <0>        -0.0785
     20 C15        -0.2204    4.1627    0.6985 C.ar      1 <0>        -0.1466
     21 H2         -5.1116    1.9628    1.2034 H         1 <0>         0.0793
     22 H3         -3.5112    2.0875    1.9725 H         1 <0>         0.0819
     23 H4         -4.6110    3.4870    1.9743 H         1 <0>         0.0785
     24 H5         -6.0331    2.3156   -0.7662 H         1 <0>         0.4140
     25 H6         -8.4828    2.9323   -0.9941 H         1 <0>         0.1372
     26 H7        -10.1070    4.0924   -2.4340 H         1 <0>         0.1396
     27 H8         -6.9147    6.1015   -4.4295 H         1 <0>         0.1389
     28 H9         -5.2844    4.9529   -2.9873 H         1 <0>         0.1437
     29 H10        -2.1413    1.3867    0.5132 H         1 <0>         0.1287
     30 H11         0.0442    0.3300    0.9200 H         1 <0>         0.1264
     31 H12         2.0580    1.7221    1.1744 H         1 <0>         0.1255
     32 H13         1.8900    4.1735    1.0321 H         1 <0>         0.1316
     33 H14        -0.2935    5.2384    0.6360 H         1 <0>         0.1330
@<TRIPOS>BOND
     1    1    2 1
     2    1   21 1
     3    1   22 1
     4    1   23 1
     5    2    3 1
     6    2    4 1
     7    2   14 1
     8    4    5 2
     9    4    6 am
    10    6    7 1
    11    6   24 1
    12    7   12 ar
    13    7    8 ar
    14    8    9 ar
    15    8   25 1
    16    9   10 ar
    17    9   26 1
    18   10   11 ar
    19   10   13 1
    20   11   12 ar
    21   11   27 1
    22   12   28 1
    23   14   15 1
    24   15   20 ar
    25   15   16 ar
    26   16   17 ar
    27   16   29 1
    28   17   18 ar
    29   17   30 1
    30   18   19 ar
    31   18   31 1
    32   19   20 ar
    33   19   32 1
    34   20   33 1
@<TRIPOS>MOLECULE
ZINC00373147
   33    34     0     0     0
SMALL
USER_CHARGES
N-(4-chlorophenyl)-2-phenoxy-propanamide
@<TRIPOS>ATOM
      1 C1         -0.1156    1.7634   -1.0836 C.3       1 <0>        -0.1783
      2 C2          0.0936    1.3782    0.3823 C.3       1 <0>         0.0703
      3 H1          0.0197    0.2958    0.4876 H         1 <0>         0.1030
      4 C3         -0.9622    2.0387    1.2309 C.2       1 <0>         0.5184
      5 O1         -0.6455    2.8727    2.0527 O.2       1 <0>        -0.4883
      6 N1         -2.2582    1.7028    1.0766 N.am      1 <0>        -0.6694
      7 C4         -3.2488    2.3897    1.7882 C.ar      1 <0>         0.1509
      8 C5         -4.3952    1.7246    2.2026 C.ar      1 <0>        -0.1318
      9 C6         -5.3686    2.4035    2.9090 C.ar      1 <0>        -0.0890
     10 C7         -5.2075    3.7480    3.1940 C.ar      1 <0>        -0.0489
     11 C8         -4.0684    4.4144    2.7776 C.ar      1 <0>        -0.0881
     12 C9         -3.0893    3.7388    2.0759 C.ar      1 <0>        -0.1091
     13 Cl1        -6.4362    4.6001    4.0760 Cl        1 <0>        -0.0667
     14 O2          1.3870    1.8110    0.8086 O.3       1 <0>        -0.2850
     15 C10         2.4318    0.9816    0.5491 C.ar      1 <0>         0.1263
     16 C11         2.2353   -0.1704   -0.1985 C.ar      1 <0>        -0.2130
     17 C12         3.3000   -1.0092   -0.4654 C.ar      1 <0>        -0.0796
     18 C13         4.5586   -0.7069    0.0209 C.ar      1 <0>        -0.1557
     19 C14         4.7558    0.4377    0.7711 C.ar      1 <0>        -0.0784
     20 C15         3.6954    1.2824    1.0363 C.ar      1 <0>        -0.1467
     21 H2          0.6480    1.2856   -1.6973 H         1 <0>         0.0818
     22 H3         -1.1022    1.4332   -1.4088 H         1 <0>         0.0802
     23 H4         -0.0417    2.8458   -1.1889 H         1 <0>         0.0782
     24 H5         -2.5046    0.9850    0.4725 H         1 <0>         0.4142
     25 H6         -4.5234    0.6764    1.9765 H         1 <0>         0.1370
     26 H7         -6.2582    1.8855    3.2357 H         1 <0>         0.1396
     27 H8         -3.9447    5.4636    3.0020 H         1 <0>         0.1389
     28 H9         -2.2004    4.2593    1.7514 H         1 <0>         0.1440
     29 H10         1.2516   -0.4091   -0.5750 H         1 <0>         0.1287
     30 H11         3.1484   -1.9042   -1.0505 H         1 <0>         0.1264
     31 H12         5.3889   -1.3660   -0.1854 H         1 <0>         0.1256
     32 H13         5.7397    0.6713    1.1504 H         1 <0>         0.1316
     33 H14         3.8500    2.1761    1.6226 H         1 <0>         0.1329
@<TRIPOS>BOND
     1    1    2 1
     2    1   21 1
     3    1   22 1
     4    1   23 1
     5    2    3 1
     6    2    4 1
     7    2   14 1
     8    4    5 2
     9    4    6 am
    10    6    7 1
    11    6   24 1
    12    7   12 ar
    13    7    8 ar
    14    8    9 ar
    15    8   25 1
    16    9   10 ar
    17    9   26 1
    18   10   11 ar
    19   10   13 1
    20   11   12 ar
    21   11   27 1
    22   12   28 1
    23   14   15 1
    24   15   20 ar
    25   15   16 ar
    26   16   17 ar
    27   16   29 1
    28   17   18 ar
    29   17   30 1
    30   18   19 ar
    31   18   31 1
    32   19   20 ar
    33   19   32 1
    34   20   33 1
