@<TRIPOS>MOLECULE
ZINC04102306
   85    89     0     0     0
SMALL
USER_CHARGES

@<TRIPOS>ATOM
      1 C1          1.8021   -0.2368   -3.3863 C.3       1 <0>        -0.0947
      2 C2          2.0871   -1.7072   -3.5530 C.2       1 <0>         0.0654
      3 C3          2.3328   -2.3327   -4.7295 C.2       1 <0>        -0.2130
      4 C4          2.5480   -3.6870   -4.4578 C.2       1 <0>        -0.0889
      5 C5          2.4240   -3.8486   -3.0930 C.2       1 <0>        -0.0454
      6 N1          2.1447   -2.6127   -2.5539 N.pl3     1 <0>        -0.5247
      7 H1          2.0093   -2.4244   -1.6121 H         1 <0>         0.4206
      8 C6          2.5682   -5.1044   -2.3525 C.2       1 <0>         0.5354
      9 O1          2.8219   -6.1349   -2.9465 O.2       1 <0>        -0.4754
     10 O2          2.4195   -5.1177   -1.0119 O.3       1 <0>        -0.3424
     11 C7          2.5737   -6.3772   -0.3546 C.3       1 <0>         0.0801
     12 H2          2.2697   -7.1792   -1.0272 H         1 <0>         0.1055
     13 C8          4.0399   -6.5709    0.0442 C.3       1 <0>         0.0827
     14 H3          4.1665   -7.5525    0.5010 H         1 <0>         0.0971
     15 C9          4.4355   -5.4847    1.0478 C.3       1 <0>         0.2279
     16 H4          4.3473   -4.5055    0.5773 H         1 <0>         0.0800
     17 O3          3.5690   -5.5480    2.1824 O.3       1 <0>        -0.3671
     18 C10         2.1906   -5.3269    1.8770 C.3       1 <0>         0.1312
     19 C11         1.7031   -6.4076    0.9054 C.3       1 <0>         0.0708
     20 H5          0.6646   -6.2160    0.6353 H         1 <0>         0.0915
     21 O4          1.8073   -7.6901    1.5270 O.3       1 <0>        -0.3529
     22 C12         0.8392   -8.6372    1.0714 C.3       1 <0>         0.0208
     23 C13         1.3663   -5.3895    3.1644 C.3       1 <0>        -0.1376
     24 C14         2.0256   -3.9495    1.2317 C.3       1 <0>        -0.1896
     25 O5          5.7858   -5.6922    1.4670 O.3       1 <0>        -0.2837
     26 C15         6.3299   -4.7516    2.2819 C.ar      1 <0>         0.1753
     27 C16         5.5692   -3.6526    2.6726 C.ar      1 <0>        -0.2187
     28 C17         6.1026   -2.6990    3.4916 C.ar      1 <0>         0.0022
     29 C18         7.4203   -2.8265    3.9413 C.ar      1 <0>        -0.1814
     30 C19         8.0186   -1.8157    4.8234 C.2       1 <0>         0.3439
     31 C20         9.3256   -2.0042    5.2306 C.2       1 <0>        -0.2562
     32 C21        10.0306   -3.1419    4.7934 C.2       1 <0>         0.5206
     33 O6         11.1830   -3.3017    5.1566 O.2       1 <0>        -0.5077
     34 O7          9.4668   -4.0553    3.9875 O.3       1 <0>        -0.2802
     35 C22         8.1943   -3.9330    3.5517 C.ar      1 <0>         0.2015
     36 C23         7.6356   -4.8962    2.7226 C.ar      1 <0>        -0.0999
     37 Cl1         8.5720   -6.2740    2.2342 Cl        1 <0>        -0.0459
     38 N2          9.9463   -1.0677    6.0740 N.am      1 <0>        -0.5969
     39 C24        10.4087   -1.4500    7.2808 C.2       1 <0>         0.5457
     40 O8         10.3686   -2.6219    7.6040 O.2       1 <0>        -0.5314
     41 C25        10.9635   -0.4468    8.2102 C.ar      1 <0>        -0.1166
     42 C26        11.0051    0.9011    7.8430 C.ar      1 <0>        -0.0754
     43 C27        11.5236    1.8339    8.7129 C.ar      1 <0>        -0.1500
     44 C28        12.0053    1.4367    9.9549 C.ar      1 <0>         0.1188
     45 C29        11.9657    0.0974   10.3239 C.ar      1 <0>        -0.1111
     46 C30        11.4434   -0.8411    9.4618 C.ar      1 <0>        -0.0452
     47 C31        12.4893   -0.3277   11.6715 C.3       1 <0>        -0.0449
     48 C32        13.9922   -0.4251   11.6187 C.2       1 <0>        -0.1505
     49 C33        14.5890   -1.5385   11.9656 C.2       1 <0>        -0.1376
     50 C34        13.7865   -2.6743   12.5461 C.3       1 <0>        -0.1221
     51 C35        16.0780   -1.6834   11.7843 C.3       1 <0>        -0.1149
     52 O9         12.5160    2.3592   10.8094 O.3       1 <0>        -0.4944
     53 O10         7.3116   -0.7325    5.2246 O.3       1 <0>        -0.6484
     54 O11         4.8673   -6.4742   -1.1169 O.3       1 <0>        -0.5440
     55 H6          2.7389    0.3004   -3.2384 H         1 <0>         0.0806
     56 H7          1.3041    0.1403   -4.2795 H         1 <0>         0.0864
     57 H8          1.1571   -0.0877   -2.5203 H         1 <0>         0.0686
     58 H9          2.3579   -1.8676   -5.7039 H         1 <0>         0.1472
     59 H10         2.7690   -4.4599   -5.1790 H         1 <0>         0.1510
     60 H11         0.9850   -9.5844    1.5907 H         1 <0>         0.0947
     61 H12        -0.1627   -8.2604    1.2773 H         1 <0>         0.0471
     62 H13         0.9567   -8.7893   -0.0016 H         1 <0>         0.0437
     63 H14         1.7130   -4.6213    3.8555 H         1 <0>         0.0727
     64 H15         0.3150   -5.2208    2.9312 H         1 <0>         0.0717
     65 H16         1.4836   -6.3711    3.6236 H         1 <0>         0.0763
     66 H17         2.7390   -3.8433    0.4144 H         1 <0>         0.0797
     67 H18         1.0118   -3.8488    0.8443 H         1 <0>         0.0734
     68 H19         2.2085   -3.1750    1.9766 H         1 <0>         0.0774
     69 H20         4.5513   -3.5536    2.3255 H         1 <0>         0.1387
     70 H21         5.5084   -1.8483    3.7910 H         1 <0>         0.1453
     71 H22        10.0421   -0.1458    5.7877 H         1 <0>         0.3898
     72 H23        10.6315    1.2104    6.8781 H         1 <0>         0.1318
     73 H24        11.5565    2.8756    8.4298 H         1 <0>         0.1314
     74 H25        11.4085   -1.8811    9.7511 H         1 <0>         0.1374
     75 H26        12.1990    0.4072   12.4224 H         1 <0>         0.0769
     76 H27        12.0711   -1.2995   11.9337 H         1 <0>         0.0811
     77 H28        14.5772    0.4229   11.2948 H         1 <0>         0.1105
     78 H29        13.3638   -3.2709   11.7377 H         1 <0>         0.0694
     79 H30        14.4343   -3.3007   13.1594 H         1 <0>         0.0596
     80 H31        12.9810   -2.2730   13.1611 H         1 <0>         0.0649
     81 H32        16.5886   -1.3428   12.6850 H         1 <0>         0.0622
     82 H33        16.3217   -2.7301   11.6023 H         1 <0>         0.0626
     83 H34        16.4007   -1.0821   10.9343 H         1 <0>         0.0612
     84 H35        11.8617    2.7469   11.4066 H         1 <0>         0.3865
     85 H36         5.8109   -6.5874   -0.9380 H         1 <0>         0.3918
@<TRIPOS>BOND
     1    1    2 1
     2    1   55 1
     3    1   56 1
     4    1   57 1
     5    2    6 1
     6    2    3 2
     7    3    4 1
     8    3   58 1
     9    4    5 2
    10    4   59 1
    11    5    6 1
    12    5    8 1
    13    6    7 1
    14    8    9 2
    15    8   10 1
    16   10   11 1
    17   11   12 1
    18   11   19 1
    19   11   13 1
    20   13   14 1
    21   13   15 1
    22   13   54 1
    23   15   16 1
    24   15   17 1
    25   15   25 1
    26   17   18 1
    27   18   19 1
    28   18   23 1
    29   18   24 1
    30   19   20 1
    31   19   21 1
    32   21   22 1
    33   22   60 1
    34   22   61 1
    35   22   62 1
    36   23   63 1
    37   23   64 1
    38   23   65 1
    39   24   66 1
    40   24   67 1
    41   24   68 1
    42   25   26 1
    43   26   36 ar
    44   26   27 ar
    45   27   28 ar
    46   27   69 1
    47   28   29 ar
    48   28   70 1
    49   29   35 ar
    50   29   30 1
    51   30   31 2
    52   30   53 1
    53   31   32 1
    54   31   38 1
    55   32   33 2
    56   32   34 1
    57   34   35 1
    58   35   36 ar
    59   36   37 1
    60   38   39 am
    61   38   71 1
    62   39   40 2
    63   39   41 1
    64   41   46 ar
    65   41   42 ar
    66   42   43 ar
    67   42   72 1
    68   43   44 ar
    69   43   73 1
    70   44   45 ar
    71   44   52 1
    72   45   46 ar
    73   45   47 1
    74   46   74 1
    75   47   48 1
    76   47   75 1
    77   47   76 1
    78   48   49 2
    79   48   77 1
    80   49   50 1
    81   49   51 1
    82   50   78 1
    83   50   79 1
    84   50   80 1
    85   51   81 1
    86   51   82 1
    87   51   83 1
    88   52   84 1
    89   54   85 1
@<TRIPOS>MOLECULE
ZINC38491911
   85    89     0     0     0
SMALL
USER_CHARGES

@<TRIPOS>ATOM
      1 C1         -0.7386   -0.4535   -2.4553 C.3       1 <0>        -0.0942
      2 C2         -0.6927   -1.9473   -2.2616 C.2       1 <0>         0.0663
      3 C3         -0.7106   -2.8703   -3.2533 C.2       1 <0>        -0.2130
      4 C4         -0.6534   -4.1357   -2.6619 C.2       1 <0>        -0.0872
      5 C5         -0.6014   -3.9403   -1.2968 C.2       1 <0>        -0.0482
      6 N1         -0.6214   -2.5818   -1.0726 N.pl3     1 <0>        -0.5224
      7 H1         -0.5916   -2.1519   -0.2036 H         1 <0>         0.4220
      8 C6         -0.5322   -4.9864   -0.2737 C.2       1 <0>         0.5310
      9 O1         -0.5159   -6.1575   -0.6016 O.2       1 <0>        -0.4965
     10 O2         -0.4867   -4.6509    1.0320 O.3       1 <0>        -0.3286
     11 C7         -0.4203   -5.7223    1.9752 C.3       1 <0>         0.0759
     12 H2          0.0971   -6.5708    1.5274 H         1 <0>         0.1087
     13 C8         -1.8382   -6.1404    2.3766 C.3       1 <0>         0.0846
     14 H3         -2.3660   -6.5233    1.5031 H         1 <0>         0.0758
     15 C9         -1.7563   -7.2338    3.4449 C.3       1 <0>         0.2268
     16 H4         -1.2578   -8.1102    3.0306 H         1 <0>         0.0768
     17 O3         -1.0139   -6.7486    4.5654 O.3       1 <0>        -0.3589
     18 C10         0.3343   -6.3869    4.2596 C.3       1 <0>         0.1319
     19 C11         0.3384   -5.2601    3.2231 C.3       1 <0>         0.0757
     20 H5          1.3658   -5.0141    2.9545 H         1 <0>         0.0798
     21 O4         -0.3024   -4.1066    3.7716 O.3       1 <0>        -0.3313
     22 C12         0.1875   -2.8682    3.2536 C.3       1 <0>         0.0313
     23 C13         1.0364   -5.9113    5.5332 C.3       1 <0>        -0.1349
     24 C14         1.0724   -7.6015    3.6931 C.3       1 <0>        -0.1961
     25 O5         -3.0751   -7.5896    3.8647 O.3       1 <0>        -0.2801
     26 C15        -3.1862   -8.6241    4.7377 C.ar      1 <0>         0.1749
     27 C16        -2.0404   -9.2780    5.1835 C.ar      1 <0>        -0.2189
     28 C17        -2.1365  -10.3197    6.0612 C.ar      1 <0>         0.0028
     29 C18        -3.3926  -10.7324    6.5157 C.ar      1 <0>        -0.1809
     30 C19        -3.5245  -11.8496    7.4603 C.2       1 <0>         0.3436
     31 C20        -4.7958  -12.2050    7.8688 C.2       1 <0>        -0.2561
     32 C21        -5.9067  -11.4954    7.3739 C.2       1 <0>         0.5206
     33 O6         -7.0251  -11.8144    7.7386 O.2       1 <0>        -0.5074
     34 O7         -5.7663  -10.4766    6.5112 O.3       1 <0>        -0.2801
     35 C22        -4.5537  -10.0774    6.0708 C.ar      1 <0>         0.2016
     36 C23        -4.4385   -9.0170    5.1822 C.ar      1 <0>        -0.0990
     37 Cl1        -5.8594   -8.1901    4.6245 Cl        1 <0>        -0.0461
     38 N2         -4.9786  -13.2665    8.7708 N.am      1 <0>        -0.5970
     39 C24        -5.5870  -13.0487    9.9535 C.2       1 <0>         0.5456
     40 O8         -6.0517  -11.9534   10.2057 O.2       1 <0>        -0.5312
     41 C25        -5.6895  -14.1393   10.9426 C.ar      1 <0>        -0.1166
     42 C26        -5.1512  -15.3970   10.6570 C.ar      1 <0>        -0.0756
     43 C27        -5.2489  -16.4118   11.5824 C.ar      1 <0>        -0.1499
     44 C28        -5.8819  -16.1867   12.7994 C.ar      1 <0>         0.1187
     45 C29        -6.4185  -14.9375   13.0872 C.ar      1 <0>        -0.1110
     46 C30        -6.3198  -13.9155   12.1692 C.ar      1 <0>        -0.0453
     47 C31        -7.1036  -14.6990   14.4081 C.3       1 <0>        -0.0462
     48 C32        -8.5062  -15.2475   14.3527 C.2       1 <0>        -0.1504
     49 C33        -9.5258  -14.4656   14.6080 C.2       1 <0>        -0.1374
     50 C34        -9.2928  -13.0515   15.0739 C.3       1 <0>        -0.1236
     51 C35       -10.9317  -14.9802   14.4357 C.3       1 <0>        -0.1149
     52 O9         -5.9765  -17.1897   13.7087 O.3       1 <0>        -0.4945
     53 O10        -2.4341  -12.5110    7.9162 O.3       1 <0>        -0.6479
     54 O11        -2.5388   -5.0106    2.9006 O.3       1 <0>        -0.5198
     55 H6          0.2765   -0.0681   -2.5501 H         1 <0>         0.0789
     56 H7         -1.3013   -0.2215   -3.3595 H         1 <0>         0.0874
     57 H8         -1.2243    0.0094   -1.5963 H         1 <0>         0.0693
     58 H9         -0.7601   -2.6650   -4.3125 H         1 <0>         0.1483
     59 H10        -0.6509   -5.0857   -3.1756 H         1 <0>         0.1525
     60 H11        -0.3492   -2.0418    3.7195 H         1 <0>         0.0842
     61 H12         1.2518   -2.7789    3.4712 H         1 <0>         0.0339
     62 H13         0.0334   -2.8392    2.1749 H         1 <0>         0.0440
     63 H14         1.0339   -6.7139    6.2707 H         1 <0>         0.0735
     64 H15         2.0648   -5.6356    5.2998 H         1 <0>         0.0716
     65 H16         0.5107   -5.0458    5.9362 H         1 <0>         0.0784
     66 H17         0.5723   -7.9398    2.7856 H         1 <0>         0.0628
     67 H18         2.1008   -7.3255    3.4599 H         1 <0>         0.0795
     68 H19         1.0699   -8.4045    4.4302 H         1 <0>         0.0855
     69 H20        -1.0699   -8.9595    4.8327 H         1 <0>         0.1392
     70 H21        -1.2445  -10.8236    6.4031 H         1 <0>         0.1461
     71 H22        -4.6669  -14.1562    8.5423 H         1 <0>         0.3900
     72 H23        -4.6595  -15.5728    9.7116 H         1 <0>         0.1318
     73 H24        -4.8334  -17.3841   11.3623 H         1 <0>         0.1314
     74 H25        -6.7328  -12.9436   12.3956 H         1 <0>         0.1374
     75 H26        -6.5486  -15.2003   15.2010 H         1 <0>         0.0768
     76 H27        -7.1398  -13.6286   14.6106 H         1 <0>         0.0822
     77 H28        -8.6708  -16.2851   14.1025 H         1 <0>         0.1105
     78 H29        -9.2426  -12.3881   14.2105 H         1 <0>         0.0693
     79 H30       -10.1130  -12.7427   15.7220 H         1 <0>         0.0600
     80 H31        -8.3545  -13.0008   15.6261 H         1 <0>         0.0662
     81 H32       -11.2726  -15.4256   15.3703 H         1 <0>         0.0623
     82 H33       -11.5901  -14.1548   14.1651 H         1 <0>         0.0625
     83 H34       -10.9491  -15.7325   13.6471 H         1 <0>         0.0612
     84 H35        -5.2340  -17.2317   14.3267 H         1 <0>         0.3865
     85 H36        -3.4457   -5.2030    3.1756 H         1 <0>         0.3836
@<TRIPOS>BOND
     1    1    2 1
     2    1   55 1
     3    1   56 1
     4    1   57 1
     5    2    6 1
     6    2    3 2
     7    3    4 1
     8    3   58 1
     9    4    5 2
    10    4   59 1
    11    5    6 1
    12    5    8 1
    13    6    7 1
    14    8    9 2
    15    8   10 1
    16   10   11 1
    17   11   12 1
    18   11   19 1
    19   11   13 1
    20   13   14 1
    21   13   15 1
    22   13   54 1
    23   15   16 1
    24   15   17 1
    25   15   25 1
    26   17   18 1
    27   18   19 1
    28   18   23 1
    29   18   24 1
    30   19   20 1
    31   19   21 1
    32   21   22 1
    33   22   60 1
    34   22   61 1
    35   22   62 1
    36   23   63 1
    37   23   64 1
    38   23   65 1
    39   24   66 1
    40   24   67 1
    41   24   68 1
    42   25   26 1
    43   26   36 ar
    44   26   27 ar
    45   27   28 ar
    46   27   69 1
    47   28   29 ar
    48   28   70 1
    49   29   35 ar
    50   29   30 1
    51   30   31 2
    52   30   53 1
    53   31   32 1
    54   31   38 1
    55   32   33 2
    56   32   34 1
    57   34   35 1
    58   35   36 ar
    59   36   37 1
    60   38   39 am
    61   38   71 1
    62   39   40 2
    63   39   41 1
    64   41   46 ar
    65   41   42 ar
    66   42   43 ar
    67   42   72 1
    68   43   44 ar
    69   43   73 1
    70   44   45 ar
    71   44   52 1
    72   45   46 ar
    73   45   47 1
    74   46   74 1
    75   47   48 1
    76   47   75 1
    77   47   76 1
    78   48   49 2
    79   48   77 1
    80   49   50 1
    81   49   51 1
    82   50   78 1
    83   50   79 1
    84   50   80 1
    85   51   81 1
    86   51   82 1
    87   51   83 1
    88   52   84 1
    89   54   85 1
@<TRIPOS>MOLECULE
ZINC38491913
   85    89     0     0     0
SMALL
USER_CHARGES

@<TRIPOS>ATOM
      1 C1          1.8022   -0.2368   -3.3862 C.3       1 <0>        -0.0961
      2 C2          2.0872   -1.7072   -3.5530 C.2       1 <0>         0.0719
      3 C3          2.3329   -2.3326   -4.7294 C.2       1 <0>        -0.2132
      4 C4          2.5481   -3.6870   -4.4578 C.2       1 <0>        -0.0837
      5 C5          2.4241   -3.8486   -3.0929 C.2       1 <0>        -0.0531
      6 N1          2.1448   -2.6127   -2.5539 N.pl3     1 <0>        -0.5239
      7 H1          2.0094   -2.4244   -1.6120 H         1 <0>         0.4220
      8 C6          2.5683   -5.1044   -2.3525 C.2       1 <0>         0.5305
      9 O1          2.8220   -6.1349   -2.9465 O.2       1 <0>        -0.4885
     10 O2          2.4196   -5.1177   -1.0118 O.3       1 <0>        -0.3390
     11 C7          2.5738   -6.3772   -0.3545 C.3       1 <0>         0.0726
     12 H2          2.2698   -7.1792   -1.0272 H         1 <0>         0.1079
     13 C8          4.0400   -6.5709    0.0442 C.3       1 <0>         0.0889
     14 H3          4.6712   -6.4961   -0.8412 H         1 <0>         0.0750
     15 C9          4.4356   -5.4847    1.0479 C.3       1 <0>         0.2257
     16 H4          4.3474   -4.5055    0.5773 H         1 <0>         0.0759
     17 O3          3.5691   -5.5480    2.1825 O.3       1 <0>        -0.3606
     18 C10         2.1907   -5.3269    1.8770 C.3       1 <0>         0.1321
     19 C11         1.7032   -6.4076    0.9054 C.3       1 <0>         0.0764
     20 H5          0.6647   -6.2160    0.6354 H         1 <0>         0.0815
     21 O4          1.8074   -7.6901    1.5271 O.3       1 <0>        -0.3287
     22 C12         0.8392   -8.6372    1.0714 C.3       1 <0>         0.0252
     23 C13         2.0257   -3.9494    1.2317 C.3       1 <0>        -0.1893
     24 C14         1.3664   -5.3895    3.1644 C.3       1 <0>        -0.1367
     25 O5          5.7859   -5.6922    1.4671 O.3       1 <0>        -0.2827
     26 C15         6.3299   -4.7516    2.2820 C.ar      1 <0>         0.1755
     27 C16         5.5692   -3.6526    2.6727 C.ar      1 <0>        -0.2190
     28 C17         6.1027   -2.6990    3.4917 C.ar      1 <0>         0.0023
     29 C18         7.4204   -2.8265    3.9414 C.ar      1 <0>        -0.1815
     30 C19         8.0187   -1.8157    4.8234 C.2       1 <0>         0.3439
     31 C20         9.3256   -2.0042    5.2306 C.2       1 <0>        -0.2562
     32 C21        10.0307   -3.1419    4.7935 C.2       1 <0>         0.5206
     33 O6         11.1831   -3.3018    5.1567 O.2       1 <0>        -0.5076
     34 O7          9.4668   -4.0553    3.9876 O.3       1 <0>        -0.2802
     35 C22         8.1944   -3.9330    3.5518 C.ar      1 <0>         0.2016
     36 C23         7.6357   -4.8962    2.7227 C.ar      1 <0>        -0.0998
     37 Cl1         8.5721   -6.2740    2.2342 Cl        1 <0>        -0.0458
     38 N2          9.9464   -1.0677    6.0740 N.am      1 <0>        -0.5970
     39 C24        10.4087   -1.4501    7.2809 C.2       1 <0>         0.5457
     40 O8         10.3687   -2.6219    7.6041 O.2       1 <0>        -0.5311
     41 C25        10.9636   -0.4468    8.2103 C.ar      1 <0>        -0.1166
     42 C26        11.0052    0.9010    7.8431 C.ar      1 <0>        -0.0755
     43 C27        11.5237    1.8339    8.7130 C.ar      1 <0>        -0.1500
     44 C28        12.0054    1.4366    9.9550 C.ar      1 <0>         0.1188
     45 C29        11.9658    0.0974   10.3239 C.ar      1 <0>        -0.1111
     46 C30        11.4434   -0.8412    9.4618 C.ar      1 <0>        -0.0452
     47 C31        12.4893   -0.3277   11.6716 C.3       1 <0>        -0.0450
     48 C32        13.9922   -0.4251   11.6188 C.2       1 <0>        -0.1505
     49 C33        14.5890   -1.5385   11.9657 C.2       1 <0>        -0.1376
     50 C34        13.7865   -2.6744   12.5462 C.3       1 <0>        -0.1221
     51 C35        16.0780   -1.6834   11.7844 C.3       1 <0>        -0.1150
     52 O9         12.5161    2.3592   10.8095 O.3       1 <0>        -0.4945
     53 O10         7.3117   -0.7325    5.2246 O.3       1 <0>        -0.6484
     54 O11         4.2063   -7.8583    0.6417 O.3       1 <0>        -0.5232
     55 H6          2.7390    0.3004   -3.2383 H         1 <0>         0.0819
     56 H7          1.3042    0.1403   -4.2794 H         1 <0>         0.0875
     57 H8          1.1572   -0.0876   -2.5203 H         1 <0>         0.0698
     58 H9          2.3581   -1.8676   -5.7039 H         1 <0>         0.1488
     59 H10         2.7691   -4.4599   -5.1790 H         1 <0>         0.1525
     60 H11         0.9851   -9.5844    1.5908 H         1 <0>         0.0913
     61 H12        -0.1626   -8.2604    1.2774 H         1 <0>         0.0397
     62 H13         0.9567   -8.7893   -0.0015 H         1 <0>         0.0393
     63 H14         2.7391   -3.8433    0.4145 H         1 <0>         0.0760
     64 H15         1.0119   -3.8488    0.8443 H         1 <0>         0.0728
     65 H16         2.2086   -3.1750    1.9766 H         1 <0>         0.0769
     66 H17         1.7130   -4.6212    3.8556 H         1 <0>         0.0708
     67 H18         0.3150   -5.2208    2.9312 H         1 <0>         0.0702
     68 H19         1.4837   -6.3711    3.6236 H         1 <0>         0.0767
     69 H20         4.5513   -3.5536    2.3256 H         1 <0>         0.1388
     70 H21         5.5085   -1.8483    3.7910 H         1 <0>         0.1453
     71 H22        10.0421   -0.1458    5.7878 H         1 <0>         0.3897
     72 H23        10.6315    1.2104    6.8782 H         1 <0>         0.1318
     73 H24        11.5565    2.8756    8.4298 H         1 <0>         0.1314
     74 H25        11.4086   -1.8811    9.7512 H         1 <0>         0.1374
     75 H26        12.1990    0.4072   12.4225 H         1 <0>         0.0769
     76 H27        12.0712   -1.2996   11.9338 H         1 <0>         0.0811
     77 H28        14.5773    0.4229   11.2949 H         1 <0>         0.1105
     78 H29        13.3638   -3.2709   11.7377 H         1 <0>         0.0694
     79 H30        14.4344   -3.3007   13.1594 H         1 <0>         0.0597
     80 H31        12.9810   -2.2730   13.1611 H         1 <0>         0.0649
     81 H32        16.5886   -1.3428   12.6851 H         1 <0>         0.0622
     82 H33        16.3217   -2.7302   11.6024 H         1 <0>         0.0627
     83 H34        16.4008   -1.0822   10.9344 H         1 <0>         0.0612
     84 H35        11.8618    2.7468   11.4067 H         1 <0>         0.3865
     85 H36         5.1127   -8.0491    0.9192 H         1 <0>         0.3905
@<TRIPOS>BOND
     1    1    2 1
     2    1   55 1
     3    1   56 1
     4    1   57 1
     5    2    6 1
     6    2    3 2
     7    3    4 1
     8    3   58 1
     9    4    5 2
    10    4   59 1
    11    5    6 1
    12    5    8 1
    13    6    7 1
    14    8    9 2
    15    8   10 1
    16   10   11 1
    17   11   12 1
    18   11   19 1
    19   11   13 1
    20   13   14 1
    21   13   15 1
    22   13   54 1
    23   15   16 1
    24   15   17 1
    25   15   25 1
    26   17   18 1
    27   18   19 1
    28   18   23 1
    29   18   24 1
    30   19   20 1
    31   19   21 1
    32   21   22 1
    33   22   60 1
    34   22   61 1
    35   22   62 1
    36   23   63 1
    37   23   64 1
    38   23   65 1
    39   24   66 1
    40   24   67 1
    41   24   68 1
    42   25   26 1
    43   26   36 ar
    44   26   27 ar
    45   27   28 ar
    46   27   69 1
    47   28   29 ar
    48   28   70 1
    49   29   35 ar
    50   29   30 1
    51   30   31 2
    52   30   53 1
    53   31   32 1
    54   31   38 1
    55   32   33 2
    56   32   34 1
    57   34   35 1
    58   35   36 ar
    59   36   37 1
    60   38   39 am
    61   38   71 1
    62   39   40 2
    63   39   41 1
    64   41   46 ar
    65   41   42 ar
    66   42   43 ar
    67   42   72 1
    68   43   44 ar
    69   43   73 1
    70   44   45 ar
    71   44   52 1
    72   45   46 ar
    73   45   47 1
    74   46   74 1
    75   47   48 1
    76   47   75 1
    77   47   76 1
    78   48   49 2
    79   48   77 1
    80   49   50 1
    81   49   51 1
    82   50   78 1
    83   50   79 1
    84   50   80 1
    85   51   81 1
    86   51   82 1
    87   51   83 1
    88   52   84 1
    89   54   85 1
@<TRIPOS>MOLECULE
ZINC38491915
   85    89     0     0     0
SMALL
USER_CHARGES

@<TRIPOS>ATOM
      1 C1         -0.7386   -0.4535   -2.4553 C.3       1 <0>        -0.0931
      2 C2         -0.6927   -1.9473   -2.2616 C.2       1 <0>         0.0617
      3 C3         -0.7106   -2.8703   -3.2533 C.2       1 <0>        -0.2122
      4 C4         -0.6534   -4.1357   -2.6619 C.2       1 <0>        -0.0894
      5 C5         -0.6014   -3.9403   -1.2968 C.2       1 <0>        -0.0431
      6 N1         -0.6214   -2.5818   -1.0726 N.pl3     1 <0>        -0.5250
      7 H1         -0.5916   -2.1519   -0.2036 H         1 <0>         0.4200
      8 C6         -0.5322   -4.9864   -0.2737 C.2       1 <0>         0.5334
      9 O1         -0.5159   -6.1575   -0.6016 O.2       1 <0>        -0.4727
     10 O2         -0.4867   -4.6509    1.0320 O.3       1 <0>        -0.3426
     11 C7         -0.4203   -5.7223    1.9752 C.3       1 <0>         0.0806
     12 H2          0.0971   -6.5708    1.5274 H         1 <0>         0.1056
     13 C8         -1.8382   -6.1404    2.3766 C.3       1 <0>         0.0807
     14 H3         -2.3723   -5.2788    2.7773 H         1 <0>         0.0913
     15 C9         -1.7563   -7.2338    3.4449 C.3       1 <0>         0.2295
     16 H4         -1.2578   -8.1102    3.0306 H         1 <0>         0.0808
     17 O3         -1.0139   -6.7486    4.5654 O.3       1 <0>        -0.3653
     18 C10         0.3343   -6.3869    4.2596 C.3       1 <0>         0.1305
     19 C11         0.3384   -5.2601    3.2231 C.3       1 <0>         0.0728
     20 H5          1.3658   -5.0141    2.9545 H         1 <0>         0.0901
     21 O4         -0.3024   -4.1066    3.7716 O.3       1 <0>        -0.3555
     22 C12         0.1875   -2.8682    3.2536 C.3       1 <0>         0.0268
     23 C13         1.0724   -7.6015    3.6931 C.3       1 <0>        -0.1961
     24 C14         1.0364   -5.9113    5.5332 C.3       1 <0>        -0.1359
     25 O5         -3.0751   -7.5896    3.8647 O.3       1 <0>        -0.2812
     26 C15        -3.1862   -8.6241    4.7377 C.ar      1 <0>         0.1745
     27 C16        -2.0404   -9.2780    5.1835 C.ar      1 <0>        -0.2187
     28 C17        -2.1365  -10.3197    6.0612 C.ar      1 <0>         0.0028
     29 C18        -3.3926  -10.7324    6.5157 C.ar      1 <0>        -0.1808
     30 C19        -3.5245  -11.8496    7.4603 C.2       1 <0>         0.3436
     31 C20        -4.7958  -12.2050    7.8688 C.2       1 <0>        -0.2561
     32 C21        -5.9067  -11.4954    7.3739 C.2       1 <0>         0.5206
     33 O6         -7.0251  -11.8144    7.7386 O.2       1 <0>        -0.5074
     34 O7         -5.7663  -10.4766    6.5112 O.3       1 <0>        -0.2801
     35 C22        -4.5537  -10.0774    6.0708 C.ar      1 <0>         0.2016
     36 C23        -4.4385   -9.0170    5.1822 C.ar      1 <0>        -0.0991
     37 Cl1        -5.8594   -8.1901    4.6245 Cl        1 <0>        -0.0461
     38 N2         -4.9786  -13.2665    8.7708 N.am      1 <0>        -0.5970
     39 C24        -5.5870  -13.0487    9.9535 C.2       1 <0>         0.5456
     40 O8         -6.0517  -11.9534   10.2057 O.2       1 <0>        -0.5313
     41 C25        -5.6895  -14.1393   10.9426 C.ar      1 <0>        -0.1166
     42 C26        -5.1512  -15.3970   10.6570 C.ar      1 <0>        -0.0756
     43 C27        -5.2489  -16.4118   11.5824 C.ar      1 <0>        -0.1499
     44 C28        -5.8819  -16.1867   12.7994 C.ar      1 <0>         0.1187
     45 C29        -6.4185  -14.9375   13.0872 C.ar      1 <0>        -0.1110
     46 C30        -6.3198  -13.9155   12.1692 C.ar      1 <0>        -0.0453
     47 C31        -7.1036  -14.6990   14.4081 C.3       1 <0>        -0.0462
     48 C32        -8.5062  -15.2475   14.3527 C.2       1 <0>        -0.1504
     49 C33        -9.5258  -14.4656   14.6080 C.2       1 <0>        -0.1374
     50 C34        -9.2928  -13.0515   15.0739 C.3       1 <0>        -0.1236
     51 C35       -10.9317  -14.9802   14.4357 C.3       1 <0>        -0.1149
     52 O9         -5.9765  -17.1897   13.7087 O.3       1 <0>        -0.4944
     53 O10        -2.4341  -12.5110    7.9162 O.3       1 <0>        -0.6479
     54 O11        -2.5306   -6.6410    1.2312 O.3       1 <0>        -0.5440
     55 H6          0.2765   -0.0681   -2.5501 H         1 <0>         0.0781
     56 H7         -1.3013   -0.2215   -3.3595 H         1 <0>         0.0868
     57 H8         -1.2243    0.0094   -1.5963 H         1 <0>         0.0683
     58 H9         -0.7601   -2.6650   -4.3125 H         1 <0>         0.1475
     59 H10        -0.6509   -5.0857   -3.1756 H         1 <0>         0.1521
     60 H11        -0.3492   -2.0418    3.7195 H         1 <0>         0.0879
     61 H12         1.2518   -2.7789    3.4712 H         1 <0>         0.0417
     62 H13         0.0334   -2.8392    2.1749 H         1 <0>         0.0481
     63 H14         0.5723   -7.9398    2.7856 H         1 <0>         0.0658
     64 H15         2.1008   -7.3255    3.4599 H         1 <0>         0.0802
     65 H16         1.0699   -8.4045    4.4302 H         1 <0>         0.0864
     66 H17         1.0339   -6.7139    6.2707 H         1 <0>         0.0754
     67 H18         2.0648   -5.6356    5.2998 H         1 <0>         0.0733
     68 H19         0.5107   -5.0458    5.9362 H         1 <0>         0.0782
     69 H20        -1.0699   -8.9595    4.8327 H         1 <0>         0.1390
     70 H21        -1.2445  -10.8236    6.4031 H         1 <0>         0.1462
     71 H22        -4.6669  -14.1562    8.5423 H         1 <0>         0.3900
     72 H23        -4.6595  -15.5728    9.7116 H         1 <0>         0.1319
     73 H24        -4.8334  -17.3841   11.3623 H         1 <0>         0.1314
     74 H25        -6.7328  -12.9436   12.3956 H         1 <0>         0.1374
     75 H26        -6.5486  -15.2003   15.2010 H         1 <0>         0.0768
     76 H27        -7.1398  -13.6286   14.6106 H         1 <0>         0.0822
     77 H28        -8.6708  -16.2851   14.1025 H         1 <0>         0.1105
     78 H29        -9.2426  -12.3881   14.2105 H         1 <0>         0.0693
     79 H30       -10.1130  -12.7427   15.7220 H         1 <0>         0.0600
     80 H31        -8.3545  -13.0008   15.6261 H         1 <0>         0.0662
     81 H32       -11.2726  -15.4256   15.3703 H         1 <0>         0.0623
     82 H33       -11.5901  -14.1548   14.1651 H         1 <0>         0.0625
     83 H34       -10.9491  -15.7325   13.6471 H         1 <0>         0.0612
     84 H35        -5.2340  -17.2317   14.3267 H         1 <0>         0.3864
     85 H36        -3.4371   -6.9249    1.4126 H         1 <0>         0.3914
@<TRIPOS>BOND
     1    1    2 1
     2    1   55 1
     3    1   56 1
     4    1   57 1
     5    2    6 1
     6    2    3 2
     7    3    4 1
     8    3   58 1
     9    4    5 2
    10    4   59 1
    11    5    6 1
    12    5    8 1
    13    6    7 1
    14    8    9 2
    15    8   10 1
    16   10   11 1
    17   11   12 1
    18   11   19 1
    19   11   13 1
    20   13   14 1
    21   13   15 1
    22   13   54 1
    23   15   16 1
    24   15   17 1
    25   15   25 1
    26   17   18 1
    27   18   19 1
    28   18   23 1
    29   18   24 1
    30   19   20 1
    31   19   21 1
    32   21   22 1
    33   22   60 1
    34   22   61 1
    35   22   62 1
    36   23   63 1
    37   23   64 1
    38   23   65 1
    39   24   66 1
    40   24   67 1
    41   24   68 1
    42   25   26 1
    43   26   36 ar
    44   26   27 ar
    45   27   28 ar
    46   27   69 1
    47   28   29 ar
    48   28   70 1
    49   29   35 ar
    50   29   30 1
    51   30   31 2
    52   30   53 1
    53   31   32 1
    54   31   38 1
    55   32   33 2
    56   32   34 1
    57   34   35 1
    58   35   36 ar
    59   36   37 1
    60   38   39 am
    61   38   71 1
    62   39   40 2
    63   39   41 1
    64   41   46 ar
    65   41   42 ar
    66   42   43 ar
    67   42   72 1
    68   43   44 ar
    69   43   73 1
    70   44   45 ar
    71   44   52 1
    72   45   46 ar
    73   45   47 1
    74   46   74 1
    75   47   48 1
    76   47   75 1
    77   47   76 1
    78   48   49 2
    79   48   77 1
    80   49   50 1
    81   49   51 1
    82   50   78 1
    83   50   79 1
    84   50   80 1
    85   51   81 1
    86   51   82 1
    87   51   83 1
    88   52   84 1
    89   54   85 1
@<TRIPOS>MOLECULE
ZINC01715674
   50    54     0     0     0
SMALL
USER_CHARGES
2-[2-[(9-hydroxy-9H-fluoren-2-yl)carbamoyl]phenyl]benzoic acid
@<TRIPOS>ATOM
      1 C1         -1.6920    0.4235   -9.3939 C.ar      1 <0>        -0.1151
      2 C2         -2.8530    0.6868   -8.6891 C.ar      1 <0>        -0.1231
      3 C3         -2.7933    0.9815   -7.3386 C.ar      1 <0>        -0.0913
      4 C4         -1.5756    1.0141   -6.6924 C.ar      1 <0>        -0.1287
      5 C5         -0.4017    0.7505   -7.3929 C.ar      1 <0>        -0.0297
      6 C6         -0.4698    0.4534   -8.7557 C.ar      1 <0>        -0.1046
      7 C7          0.7569    0.8494   -6.4714 C.ar      1 <0>        -0.0833
      8 C8          2.1250    0.6743   -6.6941 C.ar      1 <0>        -0.0779
      9 C9          3.0177    0.8241   -5.6558 C.ar      1 <0>        -0.1478
     10 C10         2.5618    1.1487   -4.3832 C.ar      1 <0>         0.1717
     11 C11         1.2007    1.3181   -4.1562 C.ar      1 <0>        -0.0761
     12 C12         0.3066    1.1750   -5.1942 C.ar      1 <0>        -0.0597
     13 C13        -1.1962    1.2982   -5.2598 C.3       1 <0>         0.1883
     14 H1         -1.5024    2.3072   -4.9834 H         1 <0>         0.0848
     15 O1         -1.8079    0.3434   -4.3901 O.3       1 <0>        -0.5343
     16 N1          3.4701    1.2988   -3.3320 N.am      1 <0>        -0.6750
     17 C14         3.2288    2.1963   -2.3559 C.2       1 <0>         0.5685
     18 O2          2.2719    2.9419   -2.4386 O.2       1 <0>        -0.4884
     19 C15         4.1264    2.2742   -1.1863 C.ar      1 <0>        -0.0657
     20 C16         5.2255    1.4214   -1.0872 C.ar      1 <0>        -0.0947
     21 C17         6.0615    1.4987    0.0078 C.ar      1 <0>        -0.1356
     22 C18         5.8173    2.4199    1.0129 C.ar      1 <0>        -0.1008
     23 C19         4.7371    3.2755    0.9300 C.ar      1 <0>        -0.1234
     24 C20         3.8787    3.2094   -0.1647 C.ar      1 <0>         0.0558
     25 C21         2.7164    4.1215   -0.2558 C.ar      1 <0>        -0.0278
     26 C22         2.9115    5.4948   -0.3809 C.ar      1 <0>        -0.1226
     27 C23         1.8247    6.3423   -0.4598 C.ar      1 <0>        -0.1322
     28 C24         0.5359    5.8363   -0.4212 C.ar      1 <0>        -0.1329
     29 C25         0.3217    4.4784   -0.3034 C.ar      1 <0>        -0.0864
     30 C26         1.4073    3.6060   -0.2224 C.ar      1 <0>        -0.0552
     31 C27         1.1845    2.1529   -0.0964 C.2       1 <0>         0.4944
     32 O3          2.1328    1.3968   -0.0261 O.co2     1 <0>        -0.6251
     33 H2         -1.7430    0.1939  -10.4479 H         1 <0>         0.1245
     34 H3         -3.8075    0.6620   -9.1938 H         1 <0>         0.1254
     35 H4         -3.7009    1.1864   -6.7903 H         1 <0>         0.1240
     36 H5          0.4342    0.2469   -9.3095 H         1 <0>         0.1227
     37 H6          2.4830    0.4218   -7.6812 H         1 <0>         0.1254
     38 H7          4.0748    0.6885   -5.8307 H         1 <0>         0.1293
     39 H8          0.8448    1.5659   -3.1671 H         1 <0>         0.1506
     40 H9         -2.7746    0.3549   -4.4112 H         1 <0>         0.3773
     41 H10         4.2743    0.7572   -3.3049 H         1 <0>         0.4061
     42 H11         5.4221    0.7007   -1.8671 H         1 <0>         0.1164
     43 H12         6.9118    0.8369    0.0815 H         1 <0>         0.1201
     44 H13         6.4787    2.4720    1.8651 H         1 <0>         0.1201
     45 H14         4.5556    3.9936    1.7159 H         1 <0>         0.1225
     46 H15         3.9133    5.8971   -0.4117 H         1 <0>         0.1122
     47 H16         1.9804    7.4070   -0.5525 H         1 <0>         0.1116
     48 H17        -0.3068    6.5090   -0.4833 H         1 <0>         0.1116
     49 H18        -0.6860    4.0910   -0.2736 H         1 <0>         0.1260
     50 O4         -0.0707    1.6646   -0.0592 O.co2     1 <0>        -0.7521
@<TRIPOS>BOND
     1    1    6 ar
     2    1    2 ar
     3    1   33 1
     4    2    3 ar
     5    2   34 1
     6    3    4 ar
     7    3   35 1
     8    4   13 1
     9    4    5 ar
    10    5    6 ar
    11    5    7 1
    12    6   36 1
    13    7   12 ar
    14    7    8 ar
    15    8    9 ar
    16    8   37 1
    17    9   10 ar
    18    9   38 1
    19   10   11 ar
    20   10   16 1
    21   11   12 ar
    22   11   39 1
    23   12   13 1
    24   13   14 1
    25   13   15 1
    26   15   40 1
    27   16   17 am
    28   16   41 1
    29   17   18 2
    30   17   19 1
    31   19   24 ar
    32   19   20 ar
    33   20   21 ar
    34   20   42 1
    35   21   22 ar
    36   21   43 1
    37   22   23 ar
    38   22   44 1
    39   23   24 ar
    40   23   45 1
    41   24   25 1
    42   25   30 ar
    43   25   26 ar
    44   26   27 ar
    45   26   46 1
    46   27   28 ar
    47   27   47 1
    48   28   29 ar
    49   28   48 1
    50   29   30 ar
    51   29   49 1
    52   30   31 1
    53   31   32 2
    54   31   50 1
@<TRIPOS>MOLECULE
ZINC29589888
   50    54     0     0     0
SMALL
USER_CHARGES

@<TRIPOS>ATOM
      1 C1          1.9682    1.4958   -0.6752 C.ar      1 <0>        -0.0815
      2 C2          0.9870    2.0859    0.1081 C.ar      1 <0>        -0.1416
      3 C3          0.1182    1.3122    0.8472 C.ar      1 <0>        -0.0463
      4 C4          0.2270   -0.0774    0.8068 C.ar      1 <0>        -0.1490
      5 C5          1.2252   -0.6754    0.0100 C.ar      1 <0>         0.0210
      6 C6          2.0924    0.1231   -0.7287 C.ar      1 <0>        -0.1278
      7 C7          1.3171   -2.1468   -0.0127 C.ar      1 <0>        -0.1318
      8 C8          2.2870   -2.7877   -0.7841 C.ar      1 <0>        -0.0429
      9 C9          2.3590   -4.1620   -0.7934 C.ar      1 <0>        -0.1715
     10 C10         1.4652   -4.9146   -0.0345 C.ar      1 <0>         0.2197
     11 C11         0.4980   -4.2881    0.7345 C.ar      1 <0>        -0.1671
     12 C12         0.4146   -2.9009    0.7539 C.ar      1 <0>         0.2026
     13 N1         -0.5535   -2.2788    1.5250 N.am      1 <0>        -0.6362
     14 H1         -1.1627   -2.8270    2.0439 H         1 <0>         0.4167
     15 C13        -0.6778   -0.9408    1.5791 C.2       1 <0>         0.5596
     16 O1         -1.5447   -0.4416    2.2722 O.2       1 <0>        -0.5304
     17 N2          1.5444   -6.3088   -0.0495 N.am      1 <0>        -0.6769
     18 C14         0.4231   -7.0487    0.0583 C.2       1 <0>         0.5721
     19 O2         -0.6646   -6.5056    0.0717 O.2       1 <0>        -0.4854
     20 C15         0.5156   -8.5187    0.1600 C.ar      1 <0>        -0.0621
     21 C16         1.7611   -9.1459    0.1509 C.ar      1 <0>        -0.0958
     22 C17         1.8420  -10.5201    0.2468 C.ar      1 <0>        -0.1369
     23 C18         0.6918  -11.2846    0.3519 C.ar      1 <0>        -0.1010
     24 C19        -0.5501  -10.6817    0.3622 C.ar      1 <0>        -0.1240
     25 C20        -0.6522   -9.2956    0.2727 C.ar      1 <0>         0.0623
     26 C21        -1.9812   -8.6441    0.2900 C.ar      1 <0>        -0.0292
     27 C22        -2.7778   -8.7074    1.4303 C.ar      1 <0>        -0.1235
     28 C23        -4.0168   -8.0983    1.4421 C.ar      1 <0>        -0.1360
     29 C24        -4.4772   -7.4214    0.3246 C.ar      1 <0>        -0.1316
     30 C25        -3.7037   -7.3468   -0.8151 C.ar      1 <0>        -0.0941
     31 C26        -2.4456   -7.9513   -0.8447 C.ar      1 <0>        -0.0732
     32 C27        -1.6122   -7.8705   -2.0570 C.2       1 <0>         0.5256
     33 O3         -2.0197   -7.2676   -3.0402 O.co2     1 <0>        -0.6877
     34 O4         -0.5128   -8.4063   -2.0802 O.co2     1 <0>        -0.6796
     35 H2          2.6380    2.1166   -1.2517 H         1 <0>         0.1294
     36 H3          0.9033    3.1622    0.1394 H         1 <0>         0.1296
     37 H4         -0.6426    1.7796    1.4546 H         1 <0>         0.1372
     38 H5          2.8587   -0.3293   -1.3407 H         1 <0>         0.1343
     39 H6          2.9802   -2.2060   -1.3736 H         1 <0>         0.1365
     40 H7          3.1098   -4.6582   -1.3905 H         1 <0>         0.1342
     41 H8         -0.1915   -4.8783    1.3199 H         1 <0>         0.1457
     42 H9          2.4065   -6.7446   -0.1375 H         1 <0>         0.4091
     43 H10         2.6622   -8.5562    0.0685 H         1 <0>         0.1154
     44 H11         2.8081  -11.0026    0.2394 H         1 <0>         0.1192
     45 H12         0.7670  -12.3594    0.4260 H         1 <0>         0.1192
     46 H13        -1.4423  -11.2847    0.4438 H         1 <0>         0.1212
     47 H14        -2.4265   -9.2335    2.3057 H         1 <0>         0.1108
     48 H15        -4.6314   -8.1503    2.3286 H         1 <0>         0.1105
     49 H16        -5.4483   -6.9492    0.3458 H         1 <0>         0.1099
     50 H17        -4.0695   -6.8176   -1.6826 H         1 <0>         0.1215
@<TRIPOS>BOND
     1    1    6 ar
     2    1    2 ar
     3    1   35 1
     4    2    3 ar
     5    2   36 1
     6    3    4 ar
     7    3   37 1
     8    4   15 1
     9    4    5 ar
    10    5    6 ar
    11    5    7 1
    12    6   38 1
    13    7   12 ar
    14    7    8 ar
    15    8    9 ar
    16    8   39 1
    17    9   10 ar
    18    9   40 1
    19   10   11 ar
    20   10   17 1
    21   11   12 ar
    22   11   41 1
    23   12   13 1
    24   13   14 1
    25   13   15 am
    26   15   16 2
    27   17   18 am
    28   17   42 1
    29   18   19 2
    30   18   20 1
    31   20   25 ar
    32   20   21 ar
    33   21   22 ar
    34   21   43 1
    35   22   23 ar
    36   22   44 1
    37   23   24 ar
    38   23   45 1
    39   24   25 ar
    40   24   46 1
    41   25   26 1
    42   26   31 ar
    43   26   27 ar
    44   27   28 ar
    45   27   47 1
    46   28   29 ar
    47   28   48 1
    48   29   30 ar
    49   29   49 1
    50   30   31 ar
    51   30   50 1
    52   31   32 1
    53   32   33 2
    54   32   34 1
@<TRIPOS>MOLECULE
ZINC01719567
   54    58     0     0     0
SMALL
USER_CHARGES

@<TRIPOS>ATOM
      1 C1          0.5093   -1.7576   -0.7353 C.3       1 <0>        -0.1738
      2 C2          1.2234   -0.7154    0.1276 C.3       1 <0>         0.1144
      3 N1          0.3048   -0.2205    1.1559 N.pl3     1 <0>        -0.5070
      4 C3         -0.5416    0.8632    1.0050 C.ar      1 <0>         0.1470
      5 C4         -0.7675    1.7350   -0.0563 C.ar      1 <0>        -0.1498
      6 C5         -1.6906    2.7503    0.0694 C.ar      1 <0>        -0.0865
      7 C6         -2.4016    2.9153    1.2484 C.ar      1 <0>        -0.1580
      8 C7         -2.1917    2.0626    2.3104 C.ar      1 <0>        -0.0541
      9 C8         -1.2622    1.0314    2.1966 C.ar      1 <0>        -0.1003
     10 C9         -0.8073   -0.0291    3.1147 C.ar      1 <0>        -0.0833
     11 C10         0.1549   -0.7742    2.4169 C.ar      1 <0>         0.1213
     12 C11         0.7634   -1.8593    3.0404 C.ar      1 <0>        -0.1241
     13 C12         0.4187   -2.1984    4.3305 C.ar      1 <0>        -0.1072
     14 C13        -0.5390   -1.4627    5.0226 C.ar      1 <0>         0.1372
     15 C14        -1.1471   -0.3745    4.4200 C.ar      1 <0>        -0.0630
     16 N2         -0.8810   -1.8179    6.3335 N.am      1 <0>        -0.6758
     17 C15        -2.1420   -1.6370    6.7735 C.2       1 <0>         0.5702
     18 O1         -3.0049   -1.2563    6.0062 O.2       1 <0>        -0.4906
     19 C16        -2.4756   -1.9012    8.1874 C.ar      1 <0>        -0.0582
     20 C17        -1.4882   -2.3324    9.0727 C.ar      1 <0>        -0.0974
     21 C18        -1.8052   -2.5775   10.3932 C.ar      1 <0>        -0.1372
     22 C19        -3.1010   -2.3979   10.8482 C.ar      1 <0>        -0.1039
     23 C20        -4.0920   -1.9720    9.9866 C.ar      1 <0>        -0.1243
     24 C21        -3.7906   -1.7138    8.6516 C.ar      1 <0>         0.0599
     25 C22        -4.8484   -1.2512    7.7253 C.ar      1 <0>        -0.0270
     26 C23        -5.4482   -0.0084    7.9114 C.ar      1 <0>        -0.1237
     27 C24        -6.4342    0.4194    7.0448 C.ar      1 <0>        -0.1365
     28 C25        -6.8348   -0.3802    5.9868 C.ar      1 <0>        -0.1320
     29 C26        -6.2537   -1.6149    5.7851 C.ar      1 <0>        -0.0942
     30 C27        -5.2506   -2.0626    6.6469 C.ar      1 <0>        -0.0714
     31 C28        -4.6213   -3.3775    6.4330 C.2       1 <0>         0.5261
     32 O2         -4.9738   -4.0789    5.4949 O.co2     1 <0>        -0.6893
     33 O3         -3.7464   -3.7678    7.1935 O.co2     1 <0>        -0.6790
     34 H1         -0.3584   -1.3017   -1.2122 H         1 <0>         0.0612
     35 H2          1.1927   -2.1258   -1.5004 H         1 <0>         0.0706
     36 H3          0.1847   -2.5879   -0.1081 H         1 <0>         0.0640
     37 H4          2.0911   -1.1713    0.6045 H         1 <0>         0.0849
     38 H5          1.5480    0.1149   -0.4996 H         1 <0>         0.0831
     39 H6         -0.2186    1.6158   -0.9787 H         1 <0>         0.1179
     40 H7         -1.8616    3.4237   -0.7574 H         1 <0>         0.1240
     41 H8         -3.1222    3.7151    1.3348 H         1 <0>         0.1235
     42 H9         -2.7461    2.1933    3.2280 H         1 <0>         0.1253
     43 H10         1.5071   -2.4370    2.5118 H         1 <0>         0.1231
     44 H11         0.8950   -3.0418    4.8083 H         1 <0>         0.1308
     45 H12        -1.8910    0.1964    4.9559 H         1 <0>         0.1378
     46 H13        -0.2103   -2.1941    6.9248 H         1 <0>         0.4042
     47 H14        -0.4757   -2.4750    8.7249 H         1 <0>         0.1150
     48 H15        -1.0382   -2.9117   11.0761 H         1 <0>         0.1180
     49 H16        -3.3377   -2.5927   11.8838 H         1 <0>         0.1180
     50 H17        -5.1001   -1.8346   10.3489 H         1 <0>         0.1202
     51 H18        -5.1423    0.6209    8.7341 H         1 <0>         0.1102
     52 H19        -6.8967    1.3841    7.1929 H         1 <0>         0.1097
     53 H20        -7.6073   -0.0348    5.3158 H         1 <0>         0.1091
     54 H21        -6.5716   -2.2331    4.9586 H         1 <0>         0.1207
@<TRIPOS>BOND
     1    1    2 1
     2    1   34 1
     3    1   35 1
     4    1   36 1
     5    2    3 1
     6    2   37 1
     7    2   38 1
     8    3   11 1
     9    3    4 1
    10    4    9 ar
    11    4    5 ar
    12    5    6 ar
    13    5   39 1
    14    6    7 ar
    15    6   40 1
    16    7    8 ar
    17    7   41 1
    18    8    9 ar
    19    8   42 1
    20    9   10 1
    21   10   15 ar
    22   10   11 ar
    23   11   12 ar
    24   12   13 ar
    25   12   43 1
    26   13   14 ar
    27   13   44 1
    28   14   15 ar
    29   14   16 1
    30   15   45 1
    31   16   17 am
    32   16   46 1
    33   17   18 2
    34   17   19 1
    35   19   24 ar
    36   19   20 ar
    37   20   21 ar
    38   20   47 1
    39   21   22 ar
    40   21   48 1
    41   22   23 ar
    42   22   49 1
    43   23   24 ar
    44   23   50 1
    45   24   25 1
    46   25   30 ar
    47   25   26 ar
    48   26   27 ar
    49   26   51 1
    50   27   28 ar
    51   27   52 1
    52   28   29 ar
    53   28   53 1
    54   29   30 ar
    55   29   54 1
    56   30   31 1
    57   31   32 2
    58   31   33 1
@<TRIPOS>MOLECULE
ZINC01694590
   49    53     0     0     0
SMALL
USER_CHARGES

@<TRIPOS>ATOM
      1 C1          1.7920    2.8539   -0.8389 C.ar      1 <0>        -0.1222
      2 C2          1.0898    2.0237    0.0166 C.ar      1 <0>        -0.1218
      3 C3          1.5811    0.7739    0.3308 C.ar      1 <0>        -0.1027
      4 C4          2.7918    0.3430   -0.2155 C.ar      1 <0>        -0.0409
      5 C5          3.4910    1.1856   -1.0753 C.ar      1 <0>        -0.0926
      6 C6          2.9921    2.4336   -1.3839 C.ar      1 <0>        -0.1012
      7 C7          4.7445    0.4618   -1.5020 C.3       1 <0>        -0.0425
      8 C8          4.7078   -0.8790   -0.8100 C.ar      1 <0>        -0.0656
      9 C9          3.5399   -0.9278   -0.0518 C.ar      1 <0>        -0.0933
     10 C10         3.2547   -2.0712    0.6979 C.ar      1 <0>        -0.0704
     11 C11         4.1245   -3.1398    0.6850 C.ar      1 <0>        -0.1521
     12 C12         5.2880   -3.0845   -0.0731 C.ar      1 <0>         0.1822
     13 C13         5.5753   -1.9483   -0.8217 C.ar      1 <0>        -0.1060
     14 N1          6.1683   -4.1696   -0.0832 N.am      1 <0>        -0.6769
     15 C14         7.4948   -3.9602   -0.1975 C.2       1 <0>         0.5713
     16 O1          7.9337   -2.8263   -0.1952 O.2       1 <0>        -0.4875
     17 C15         8.4150   -5.1077   -0.3257 C.ar      1 <0>        -0.0602
     18 C16         7.9160   -6.4098   -0.3347 C.ar      1 <0>        -0.0968
     19 C17         8.7804   -7.4788   -0.4546 C.ar      1 <0>        -0.1369
     20 C18        10.1447   -7.2682   -0.5666 C.ar      1 <0>        -0.1025
     21 C19        10.6573   -5.9864   -0.5596 C.ar      1 <0>        -0.1242
     22 C20         9.8007   -4.8942   -0.4453 C.ar      1 <0>         0.0609
     23 C21        10.3449   -3.5177   -0.4441 C.ar      1 <0>        -0.0277
     24 C22        10.9682   -3.0097   -1.5808 C.ar      1 <0>        -0.1236
     25 C23        11.4749   -1.7254   -1.5751 C.ar      1 <0>        -0.1363
     26 C24        11.3686   -0.9334   -0.4435 C.ar      1 <0>        -0.1321
     27 C25        10.7545   -1.4175    0.6929 C.ar      1 <0>        -0.0942
     28 C26        10.2306   -2.7116    0.7049 C.ar      1 <0>        -0.0723
     29 C27         9.5681   -3.2323    1.9135 C.2       1 <0>         0.5256
     30 O2          9.4711   -2.5285    2.9093 O.co2     1 <0>        -0.6884
     31 O3          9.1151   -4.3685    1.9212 O.co2     1 <0>        -0.6794
     32 H1          1.4004    3.8299   -1.0851 H         1 <0>         0.1233
     33 H2          0.1535    2.3558    0.4402 H         1 <0>         0.1226
     34 H3          1.0299    0.1291    0.9993 H         1 <0>         0.1207
     35 H4          3.5387    3.0833   -2.0514 H         1 <0>         0.1227
     36 H5          4.7497    0.3259   -2.5835 H         1 <0>         0.0983
     37 H6          5.6259    1.0215   -1.1892 H         1 <0>         0.1017
     38 H7          2.3517   -2.1177    1.2885 H         1 <0>         0.1233
     39 H8          3.9017   -4.0225    1.2659 H         1 <0>         0.1287
     40 H9          6.4787   -1.9044   -1.4119 H         1 <0>         0.1377
     41 H10         5.8248   -5.0736   -0.0079 H         1 <0>         0.4063
     42 H11         6.8533   -6.5817   -0.2474 H         1 <0>         0.1150
     43 H12         8.3906   -8.4860   -0.4609 H         1 <0>         0.1187
     44 H13        10.8120   -8.1123   -0.6596 H         1 <0>         0.1187
     45 H14        11.7224   -5.8303   -0.6470 H         1 <0>         0.1209
     46 H15        11.0555   -3.6205   -2.4672 H         1 <0>         0.1106
     47 H16        11.9578   -1.3355   -2.4590 H         1 <0>         0.1101
     48 H17        11.7695    0.0694   -0.4509 H         1 <0>         0.1096
     49 H18        10.6753   -0.7943    1.5714 H         1 <0>         0.1213
@<TRIPOS>BOND
     1    1    6 ar
     2    1    2 ar
     3    1   32 1
     4    2    3 ar
     5    2   33 1
     6    3    4 ar
     7    3   34 1
     8    4    9 1
     9    4    5 ar
    10    5    6 ar
    11    5    7 1
    12    6   35 1
    13    7    8 1
    14    7   36 1
    15    7   37 1
    16    8   13 ar
    17    8    9 ar
    18    9   10 ar
    19   10   11 ar
    20   10   38 1
    21   11   12 ar
    22   11   39 1
    23   12   13 ar
    24   12   14 1
    25   13   40 1
    26   14   15 am
    27   14   41 1
    28   15   16 2
    29   15   17 1
    30   17   22 ar
    31   17   18 ar
    32   18   19 ar
    33   18   42 1
    34   19   20 ar
    35   19   43 1
    36   20   21 ar
    37   20   44 1
    38   21   22 ar
    39   21   45 1
    40   22   23 1
    41   23   28 ar
    42   23   24 ar
    43   24   25 ar
    44   24   46 1
    45   25   26 ar
    46   25   47 1
    47   26   27 ar
    48   26   48 1
    49   27   28 ar
    50   27   49 1
    51   28   29 1
    52   29   30 2
    53   29   31 1
@<TRIPOS>MOLECULE
ZINC01694592
   48    52     0     0     0
SMALL
USER_CHARGES
2-[2-[(9-oxofluoren-2-yl)carbamoyl]phenyl]benzoic acid
@<TRIPOS>ATOM
      1 C1          6.3064    6.2809   -0.0060 C.ar      1 <0>        -0.0900
      2 C2          7.2150    5.4036    0.5546 C.ar      1 <0>        -0.1321
      3 C3          6.8241    4.1216    0.9020 C.ar      1 <0>        -0.0473
      4 C4          5.5123    3.7146    0.6851 C.ar      1 <0>        -0.1692
      5 C5          4.5879    4.6062    0.1155 C.ar      1 <0>        -0.0072
      6 C6          4.9960    5.8884   -0.2266 C.ar      1 <0>        -0.1096
      7 C7          3.2755    3.9197   -0.0015 C.ar      1 <0>        -0.0603
      8 C8          2.0478    4.3484   -0.4898 C.ar      1 <0>        -0.0780
      9 C9          0.9605    3.4922   -0.4845 C.ar      1 <0>        -0.1284
     10 C10         1.0870    2.2007    0.0076 C.ar      1 <0>         0.1668
     11 C11         2.3108    1.7601    0.5050 C.ar      1 <0>        -0.0413
     12 C12         3.4067    2.6129    0.4974 C.ar      1 <0>        -0.1458
     13 C13         4.8093    2.4367    0.9447 C.2       1 <0>         0.4404
     14 O1          5.2908    1.4342    1.4323 O.2       1 <0>        -0.4007
     15 N1         -0.0162    1.3436    0.0094 N.am      1 <0>        -0.6756
     16 C14         0.1584    0.0201   -0.1758 C.2       1 <0>         0.5677
     17 O2          1.2621   -0.4164   -0.4398 O.2       1 <0>        -0.4855
     18 C15        -0.9904   -0.8997   -0.0582 C.ar      1 <0>        -0.0657
     19 C16        -2.2584   -0.4038    0.2444 C.ar      1 <0>        -0.0949
     20 C17        -3.3288   -1.2678    0.3527 C.ar      1 <0>        -0.1356
     21 C18        -3.1537   -2.6286    0.1626 C.ar      1 <0>        -0.1005
     22 C19        -1.9062   -3.1379   -0.1376 C.ar      1 <0>        -0.1223
     23 C20        -0.8143   -2.2815   -0.2564 C.ar      1 <0>         0.0570
     24 C21         0.5240   -2.8223   -0.5842 C.ar      1 <0>        -0.0302
     25 C22         0.7541   -3.4223   -1.8197 C.ar      1 <0>        -0.1228
     26 C23         2.0039   -3.9249   -2.1212 C.ar      1 <0>        -0.1321
     27 C24         3.0362   -3.8374   -1.2017 C.ar      1 <0>        -0.1319
     28 C25         2.8283   -3.2471    0.0279 C.ar      1 <0>        -0.0851
     29 C26         1.5736   -2.7282    0.3487 C.ar      1 <0>        -0.0554
     30 C27         1.3471   -2.0899    1.6595 C.2       1 <0>         0.4938
     31 O3          0.2517   -1.6435    1.9365 O.co2     1 <0>        -0.6271
     32 H1          6.6197    7.2792   -0.2736 H         1 <0>         0.1304
     33 H2          8.2340    5.7194    0.7229 H         1 <0>         0.1316
     34 H3          7.5370    3.4387    1.3399 H         1 <0>         0.1330
     35 H4          4.2920    6.5800   -0.6652 H         1 <0>         0.1297
     36 H5          1.9414    5.3521   -0.8741 H         1 <0>         0.1323
     37 H6          0.0084    3.8308   -0.8658 H         1 <0>         0.1351
     38 H7          2.4084    0.7564    0.8917 H         1 <0>         0.1563
     39 H8         -0.9083    1.7015    0.1400 H         1 <0>         0.4079
     40 H9         -2.4023    0.6560    0.3943 H         1 <0>         0.1164
     41 H10        -4.3094   -0.8805    0.5868 H         1 <0>         0.1203
     42 H11        -3.9987   -3.2955    0.2495 H         1 <0>         0.1204
     43 H12        -1.7778   -4.2001   -0.2844 H         1 <0>         0.1228
     44 H13        -0.0454   -3.4941   -2.5422 H         1 <0>         0.1122
     45 H14         2.1782   -4.3891   -3.0807 H         1 <0>         0.1118
     46 H15         4.0100   -4.2335   -1.4490 H         1 <0>         0.1121
     47 H16         3.6378   -3.1824    0.7398 H         1 <0>         0.1270
     48 O4          2.3551   -2.0022    2.5493 O.co2     1 <0>        -0.7499
@<TRIPOS>BOND
     1    1    6 ar
     2    1    2 ar
     3    1   32 1
     4    2    3 ar
     5    2   33 1
     6    3    4 ar
     7    3   34 1
     8    4   13 1
     9    4    5 ar
    10    5    6 ar
    11    5    7 1
    12    6   35 1
    13    7   12 ar
    14    7    8 ar
    15    8    9 ar
    16    8   36 1
    17    9   10 ar
    18    9   37 1
    19   10   11 ar
    20   10   15 1
    21   11   12 ar
    22   11   38 1
    23   12   13 1
    24   13   14 2
    25   15   16 am
    26   15   39 1
    27   16   17 2
    28   16   18 1
    29   18   23 ar
    30   18   19 ar
    31   19   20 ar
    32   19   40 1
    33   20   21 ar
    34   20   41 1
    35   21   22 ar
    36   21   42 1
    37   22   23 ar
    38   22   43 1
    39   23   24 1
    40   24   29 ar
    41   24   25 ar
    42   25   26 ar
    43   25   44 1
    44   26   27 ar
    45   26   45 1
    46   27   28 ar
    47   27   46 1
    48   28   29 ar
    49   28   47 1
    50   29   30 1
    51   30   31 2
    52   30   48 1
@<TRIPOS>MOLECULE
ZINC01717010
   49    53     0     0     0
SMALL
USER_CHARGES
2-[2-(9H-fluoren-3-ylcarbamoyl)phenyl]benzoic acid
@<TRIPOS>ATOM
      1 C1          6.0888   -0.0086   -2.5935 C.ar      1 <0>        -0.1182
      2 C2          5.1916   -1.0126   -2.9109 C.ar      1 <0>        -0.1214
      3 C3          3.9234   -1.0083   -2.3690 C.ar      1 <0>        -0.0923
      4 C4          3.5414    0.0124   -1.4963 C.ar      1 <0>        -0.0472
      5 C5          4.4512    1.0183   -1.1829 C.ar      1 <0>        -0.0925
      6 C6          5.7173    1.0058   -1.7291 C.ar      1 <0>        -0.1054
      7 C7          3.7679    1.9690   -0.2310 C.3       1 <0>        -0.0359
      8 C8          2.3772    1.4215   -0.0209 C.ar      1 <0>        -0.1165
      9 C9          2.2648    0.2603   -0.7813 C.ar      1 <0>        -0.0428
     10 C10         1.0661   -0.4535   -0.7691 C.ar      1 <0>        -0.0941
     11 C11         0.0017   -0.0036   -0.0040 C.ar      1 <0>         0.1675
     12 C12         0.1269    1.1569    0.7504 C.ar      1 <0>        -0.1399
     13 C13         1.3141    1.8645    0.7388 C.ar      1 <0>        -0.0818
     14 N1         -1.2001   -0.7187    0.0092 N.am      1 <0>        -0.6771
     15 C14        -1.1862   -2.0619   -0.0999 C.2       1 <0>         0.5684
     16 O1         -0.1277   -2.6599   -0.1130 O.2       1 <0>        -0.4878
     17 C15        -2.4564   -2.8073   -0.2035 C.ar      1 <0>        -0.0647
     18 C16        -3.6732   -2.1259   -0.1890 C.ar      1 <0>        -0.0955
     19 C17        -4.8574   -2.8274   -0.2866 C.ar      1 <0>        -0.1354
     20 C18        -4.8476   -4.2078   -0.3994 C.ar      1 <0>        -0.1018
     21 C19        -3.6530   -4.8996   -0.4159 C.ar      1 <0>        -0.1225
     22 C20        -2.4470   -4.2092   -0.3235 C.ar      1 <0>         0.0544
     23 C21        -1.1634   -4.9461   -0.3460 C.ar      1 <0>        -0.0283
     24 C22        -0.7742   -5.6407   -1.4886 C.ar      1 <0>        -0.1230
     25 C23         0.4239   -6.3263   -1.5053 C.ar      1 <0>        -0.1325
     26 C24         1.2463   -6.3295   -0.3908 C.ar      1 <0>        -0.1320
     27 C25         0.8786   -5.6474    0.7507 C.ar      1 <0>        -0.0861
     28 C26        -0.3259   -4.9443    0.7850 C.ar      1 <0>        -0.0526
     29 C27        -0.7214   -4.2077    2.0007 C.2       1 <0>         0.4965
     30 O2         -1.7730   -3.5999    2.0275 O.co2     1 <0>        -0.6260
     31 H1          7.0807   -0.0168   -3.0207 H         1 <0>         0.1239
     32 H2          5.4854   -1.8027   -3.5861 H         1 <0>         0.1242
     33 H3          3.2259   -1.7938   -2.6198 H         1 <0>         0.1236
     34 H4          6.4192    1.7887   -1.4825 H         1 <0>         0.1222
     35 H5          3.7165    2.9660   -0.6687 H         1 <0>         0.0954
     36 H6          4.3054    2.0019    0.7167 H         1 <0>         0.0965
     37 H7          0.9693   -1.3578   -1.3515 H         1 <0>         0.1353
     38 H8         -0.7038    1.5061    1.3457 H         1 <0>         0.1294
     39 H9          1.4099    2.7659    1.3259 H         1 <0>         0.1265
     40 H10        -2.0436   -0.2479    0.0968 H         1 <0>         0.4058
     41 H11        -3.6886   -1.0496   -0.1010 H         1 <0>         0.1163
     42 H12        -5.7980   -2.2967   -0.2754 H         1 <0>         0.1199
     43 H13        -5.7805   -4.7466   -0.4751 H         1 <0>         0.1200
     44 H14        -3.6535   -5.9759   -0.5048 H         1 <0>         0.1224
     45 H15        -1.4097   -5.6428   -2.3618 H         1 <0>         0.1122
     46 H16         0.7222   -6.8634   -2.3936 H         1 <0>         0.1117
     47 H17         2.1816   -6.8690   -0.4156 H         1 <0>         0.1117
     48 H18         1.5253   -5.6537    1.6157 H         1 <0>         0.1255
     49 O3          0.0838   -4.2089    3.0811 O.co2     1 <0>        -0.7558
@<TRIPOS>BOND
     1    1    6 ar
     2    1    2 ar
     3    1   31 1
     4    2    3 ar
     5    2   32 1
     6    3    4 ar
     7    3   33 1
     8    4    9 1
     9    4    5 ar
    10    5    6 ar
    11    5    7 1
    12    6   34 1
    13    7    8 1
    14    7   35 1
    15    7   36 1
    16    8   13 ar
    17    8    9 ar
    18    9   10 ar
    19   10   11 ar
    20   10   37 1
    21   11   12 ar
    22   11   14 1
    23   12   13 ar
    24   12   38 1
    25   13   39 1
    26   14   15 am
    27   14   40 1
    28   15   16 2
    29   15   17 1
    30   17   22 ar
    31   17   18 ar
    32   18   19 ar
    33   18   41 1
    34   19   20 ar
    35   19   42 1
    36   20   21 ar
    37   20   43 1
    38   21   22 ar
    39   21   44 1
    40   22   23 1
    41   23   28 ar
    42   23   24 ar
    43   24   25 ar
    44   24   45 1
    45   25   26 ar
    46   25   46 1
    47   26   27 ar
    48   26   47 1
    49   27   28 ar
    50   27   48 1
    51   28   29 1
    52   29   30 2
    53   29   49 1
@<TRIPOS>MOLECULE
ZINC01717012
   49    53     0     0     0
SMALL
USER_CHARGES
2-[2-(9H-fluoren-4-ylcarbamoyl)phenyl]benzoic acid
@<TRIPOS>ATOM
      1 C1          0.4831    2.0800   -2.6786 C.ar      1 <0>        -0.1215
      2 C2         -0.5983    1.3280   -2.2554 C.ar      1 <0>        -0.1139
      3 C3         -1.6289    1.9233   -1.5587 C.ar      1 <0>        -0.1039
      4 C4         -1.5771    3.2883   -1.2678 C.ar      1 <0>        -0.0383
      5 C5         -0.4846    4.0366   -1.6985 C.ar      1 <0>        -0.0967
      6 C6          0.5382    3.4341   -2.3997 C.ar      1 <0>        -0.0998
      7 C7         -0.7053    5.4609   -1.2512 C.3       1 <0>        -0.0378
      8 C8         -2.0264    5.4684   -0.5216 C.ar      1 <0>        -0.0692
      9 C9         -2.5249    4.1697   -0.5441 C.ar      1 <0>        -0.1055
     10 C10        -3.7552    3.8960    0.0711 C.ar      1 <0>         0.1996
     11 C11        -4.4573    4.9173    0.6926 C.ar      1 <0>        -0.1358
     12 C12        -3.9484    6.2019    0.7060 C.ar      1 <0>        -0.0846
     13 C13        -2.7346    6.4758    0.0997 C.ar      1 <0>        -0.1322
     14 N1         -4.2712    2.5985    0.0581 N.am      1 <0>        -0.6721
     15 C14        -5.5995    2.4004    0.1720 C.2       1 <0>         0.5686
     16 O1         -6.3570    3.3513    0.1852 O.2       1 <0>        -0.4845
     17 C15        -6.1346    1.0287    0.2808 C.ar      1 <0>        -0.0656
     18 C16        -5.2696   -0.0653    0.2662 C.ar      1 <0>        -0.0966
     19 C17        -5.7750   -1.3452    0.3686 C.ar      1 <0>        -0.1341
     20 C18        -7.1393   -1.5531    0.4868 C.ar      1 <0>        -0.1007
     21 C19        -8.0109   -0.4827    0.5031 C.ar      1 <0>        -0.1219
     22 C20        -7.5199    0.8170    0.4058 C.ar      1 <0>         0.0559
     23 C21        -8.4502    1.9682    0.4285 C.ar      1 <0>        -0.0292
     24 C22        -9.1939    2.2456    1.5727 C.ar      1 <0>        -0.1225
     25 C23       -10.0596    3.3208    1.5898 C.ar      1 <0>        -0.1323
     26 C24       -10.1958    4.1299    0.4739 C.ar      1 <0>        -0.1319
     27 C25        -9.4680    3.8717   -0.6694 C.ar      1 <0>        -0.0862
     28 C26        -8.5844    2.7926   -0.7042 C.ar      1 <0>        -0.0530
     29 C27        -7.7988    2.5151   -1.9219 C.2       1 <0>         0.4958
     30 O2         -7.0330    1.5723   -1.9490 O.co2     1 <0>        -0.6258
     31 H1          1.2853    1.6095   -3.2276 H         1 <0>         0.1248
     32 H2         -0.6376    0.2714   -2.4754 H         1 <0>         0.1259
     33 H3         -2.4733    1.3333   -1.2342 H         1 <0>         0.1151
     34 H4          1.3831    4.0194   -2.7313 H         1 <0>         0.1228
     35 H5          0.0956    5.7720   -0.5804 H         1 <0>         0.0978
     36 H6         -0.7501    6.1231   -2.1157 H         1 <0>         0.0991
     37 H7         -5.4050    4.7085    1.1667 H         1 <0>         0.1510
     38 H8         -4.4993    6.9944    1.1906 H         1 <0>         0.1285
     39 H9         -2.3411    7.4814    0.1129 H         1 <0>         0.1224
     40 H10        -3.6737    1.8398   -0.0329 H         1 <0>         0.4031
     41 H11        -4.2047    0.0892    0.1743 H         1 <0>         0.1128
     42 H12        -5.1025   -2.1901    0.3570 H         1 <0>         0.1206
     43 H13        -7.5236   -2.5592    0.5670 H         1 <0>         0.1208
     44 H14        -9.0734   -0.6530    0.5959 H         1 <0>         0.1232
     45 H15        -9.0930    1.6197    2.4471 H         1 <0>         0.1125
     46 H16       -10.6342    3.5327    2.4794 H         1 <0>         0.1121
     47 H17       -10.8759    4.9685    0.4990 H         1 <0>         0.1121
     48 H18        -9.5794    4.5069   -1.5357 H         1 <0>         0.1260
     49 O3         -7.9306    3.3073   -3.0038 O.co2     1 <0>        -0.7552
@<TRIPOS>BOND
     1    1    6 ar
     2    1    2 ar
     3    1   31 1
     4    2    3 ar
     5    2   32 1
     6    3    4 ar
     7    3   33 1
     8    4    9 1
     9    4    5 ar
    10    5    6 ar
    11    5    7 1
    12    6   34 1
    13    7    8 1
    14    7   35 1
    15    7   36 1
    16    8   13 ar
    17    8    9 ar
    18    9   10 ar
    19   10   11 ar
    20   10   14 1
    21   11   12 ar
    22   11   37 1
    23   12   13 ar
    24   12   38 1
    25   13   39 1
    26   14   15 am
    27   14   40 1
    28   15   16 2
    29   15   17 1
    30   17   22 ar
    31   17   18 ar
    32   18   19 ar
    33   18   41 1
    34   19   20 ar
    35   19   42 1
    36   20   21 ar
    37   20   43 1
    38   21   22 ar
    39   21   44 1
    40   22   23 1
    41   23   28 ar
    42   23   24 ar
    43   24   25 ar
    44   24   45 1
    45   25   26 ar
    46   25   46 1
    47   26   27 ar
    48   26   47 1
    49   27   28 ar
    50   27   48 1
    51   28   29 1
    52   29   30 2
    53   29   49 1
@<TRIPOS>MOLECULE
ZINC01717014
   49    53     0     0     0
SMALL
USER_CHARGES

@<TRIPOS>ATOM
      1 C1         -0.0167    1.3770   -0.0122 C.ar      1 <0>        -0.1021
      2 C2          1.1679    2.0946   -0.0219 C.ar      1 <0>        -0.1370
      3 C3          2.3820    1.4388   -0.0297 C.ar      1 <0>        -0.0964
      4 C4          2.4211    0.0448   -0.0275 C.ar      1 <0>        -0.0603
      5 C5          1.2173   -0.6836   -0.0172 C.ar      1 <0>         0.0613
      6 C6          0.0020   -0.0034   -0.0098 C.ar      1 <0>        -0.1246
      7 C7          1.2423   -2.1636   -0.0151 C.ar      1 <0>        -0.0280
      8 C8          0.7427   -2.8743   -1.1032 C.ar      1 <0>        -0.1234
      9 C9          0.7680   -4.2547   -1.0972 C.ar      1 <0>        -0.1364
     10 C10         1.2885   -4.9428   -0.0133 C.ar      1 <0>        -0.1321
     11 C11         1.7888   -4.2578    1.0744 C.ar      1 <0>        -0.0943
     12 C12         1.7770   -2.8617    1.0848 C.ar      1 <0>        -0.0720
     13 C13         2.3151   -2.1240    2.2412 C.2       1 <0>         0.5254
     14 O1          2.7785   -2.7347    3.1944 O.co2     1 <0>        -0.6882
     15 O2          2.2984   -0.9010    2.2480 O.co2     1 <0>        -0.6790
     16 C14         3.7172   -0.6622   -0.0363 C.2       1 <0>         0.5719
     17 O3          3.7467   -1.8777   -0.0343 O.2       1 <0>        -0.4889
     18 N1          4.8677    0.0397   -0.0466 N.am      1 <0>        -0.6768
     19 C15         6.0933   -0.6259    0.0427 C.ar      1 <0>         0.1809
     20 C16         7.1499   -0.0480    0.7370 C.ar      1 <0>        -0.1490
     21 C17         8.3594   -0.7014    0.8269 C.ar      1 <0>        -0.0703
     22 C18         8.5280   -1.9484    0.2199 C.ar      1 <0>        -0.0922
     23 C19         7.4653   -2.5218   -0.4743 C.ar      1 <0>        -0.0663
     24 C20         6.2551   -1.8691   -0.5579 C.ar      1 <0>        -0.1036
     25 C21         7.9383   -3.8496   -1.0138 C.3       1 <0>        -0.0421
     26 C22         9.3730   -3.9933   -0.5687 C.ar      1 <0>        -0.0647
     27 C23         9.7019   -2.8540    0.1617 C.ar      1 <0>        -0.0482
     28 C24        10.9859   -2.7290    0.6954 C.ar      1 <0>        -0.0741
     29 C25        11.9152   -3.7287    0.4973 C.ar      1 <0>        -0.1526
     30 C26        11.5798   -4.8584   -0.2309 C.ar      1 <0>         0.0939
     31 C27        10.3064   -4.9885   -0.7629 C.ar      1 <0>        -0.1337
     32 F1         12.4942   -5.8343   -0.4222 F         1 <0>        -0.1403
     33 H1         -0.9611    1.9008   -0.0020 H         1 <0>         0.1188
     34 H2          1.1412    3.1743   -0.0237 H         1 <0>         0.1187
     35 H3          3.3017    2.0049   -0.0380 H         1 <0>         0.1149
     36 H4         -0.9260   -0.5559   -0.0022 H         1 <0>         0.1209
     37 H5          0.3349   -2.3456   -1.9521 H         1 <0>         0.1105
     38 H6          0.3791   -4.8019   -1.9432 H         1 <0>         0.1101
     39 H7          1.3022   -6.0227   -0.0198 H         1 <0>         0.1096
     40 H8          2.1930   -4.8010    1.9158 H         1 <0>         0.1213
     41 H9          4.8451    1.0070   -0.1160 H         1 <0>         0.4060
     42 H10         7.0224    0.9160    1.2069 H         1 <0>         0.1293
     43 H11         9.1781   -0.2491    1.3669 H         1 <0>         0.1244
     44 H12         5.4336   -2.3211   -1.0939 H         1 <0>         0.1437
     45 H13         7.3348   -4.6585   -0.6020 H         1 <0>         0.1066
     46 H14         7.8807   -3.8543   -2.1023 H         1 <0>         0.1029
     47 H15        11.2516   -1.8495    1.2631 H         1 <0>         0.1326
     48 H16        12.9079   -3.6302    0.9110 H         1 <0>         0.1365
     49 H17        10.0457   -5.8699   -1.3299 H         1 <0>         0.1365
@<TRIPOS>BOND
     1    1    6 ar
     2    1    2 ar
     3    1   33 1
     4    2    3 ar
     5    2   34 1
     6    3    4 ar
     7    3   35 1
     8    4    5 ar
     9    4   16 1
    10    5    6 ar
    11    5    7 1
    12    6   36 1
    13    7   12 ar
    14    7    8 ar
    15    8    9 ar
    16    8   37 1
    17    9   10 ar
    18    9   38 1
    19   10   11 ar
    20   10   39 1
    21   11   12 ar
    22   11   40 1
    23   12   13 1
    24   13   14 2
    25   13   15 1
    26   16   17 2
    27   16   18 am
    28   18   19 1
    29   18   41 1
    30   19   24 ar
    31   19   20 ar
    32   20   21 ar
    33   20   42 1
    34   21   22 ar
    35   21   43 1
    36   22   27 1
    37   22   23 ar
    38   23   24 ar
    39   23   25 1
    40   24   44 1
    41   25   26 1
    42   25   45 1
    43   25   46 1
    44   26   31 ar
    45   26   27 ar
    46   27   28 ar
    47   28   29 ar
    48   28   47 1
    49   29   30 ar
    50   29   48 1
    51   30   31 ar
    52   30   32 1
    53   31   49 1
@<TRIPOS>MOLECULE
ZINC01717024
   56    61     0     0     0
SMALL
USER_CHARGES
2-[2-(chrysen-6-ylcarbamoyl)phenyl]benzoic acid
@<TRIPOS>ATOM
      1 C1          6.0170    3.7193    0.0370 C.ar      1 <0>        -0.1146
      2 C2          4.7985    4.3904    0.0406 C.ar      1 <0>        -0.1209
      3 C3          3.6209    3.7005    0.0353 C.ar      1 <0>        -0.0907
      4 C4          3.6382    2.3030    0.0256 C.ar      1 <0>        -0.0405
      5 C5          4.8746    1.6171    0.0213 C.ar      1 <0>        -0.0433
      6 C6          6.0672    2.3571    0.0265 C.ar      1 <0>        -0.1139
      7 C7          4.8930    0.2064    0.0125 C.ar      1 <0>        -0.1199
      8 C8          3.7443   -0.5083    0.0075 C.ar      1 <0>        -0.0897
      9 C9          2.4860    0.1193    0.0114 C.ar      1 <0>        -0.0703
     10 C10         2.3966    1.5244    0.0206 C.ar      1 <0>         0.0068
     11 C11         1.1481    2.1665    0.0250 C.ar      1 <0>        -0.1426
     12 C12        -0.0153    1.4605    0.0207 C.ar      1 <0>         0.1829
     13 C13         0.0097    0.0003    0.0111 C.ar      1 <0>        -0.0575
     14 C14         1.2532   -0.6719    0.0065 C.ar      1 <0>        -0.0171
     15 C15         1.2820   -2.0691   -0.0023 C.ar      1 <0>        -0.1079
     16 C16         0.1096   -2.7688   -0.0066 C.ar      1 <0>        -0.1123
     17 C17        -1.1143   -2.1092   -0.0016 C.ar      1 <0>        -0.1198
     18 C18        -1.1751   -0.7461    0.0069 C.ar      1 <0>        -0.0982
     19 N1         -1.2363    2.1341    0.0195 N.am      1 <0>        -0.6669
     20 C19        -1.3145    3.3867   -0.4717 C.2       1 <0>         0.5685
     21 O1         -0.3458    3.8920   -1.0053 O.2       1 <0>        -0.4818
     22 C20        -2.5762    4.1453   -0.3619 C.ar      1 <0>        -0.0656
     23 C21        -3.6901    3.5700    0.2493 C.ar      1 <0>        -0.0956
     24 C22        -4.8670    4.2834    0.3492 C.ar      1 <0>        -0.1347
     25 C23        -4.9515    5.5710   -0.1543 C.ar      1 <0>        -0.1002
     26 C24        -3.8594    6.1572   -0.7622 C.ar      1 <0>        -0.1221
     27 C25        -2.6611    5.4555   -0.8680 C.ar      1 <0>         0.0567
     28 C26        -1.4856    6.0821   -1.5135 C.ar      1 <0>        -0.0299
     29 C27        -0.8795    7.1951   -0.9361 C.ar      1 <0>        -0.1225
     30 C28         0.2169    7.7760   -1.5412 C.ar      1 <0>        -0.1323
     31 C29         0.7223    7.2592   -2.7228 C.ar      1 <0>        -0.1311
     32 C30         0.1363    6.1569   -3.3103 C.ar      1 <0>        -0.0857
     33 C31        -0.9698    5.5533   -2.7114 C.ar      1 <0>        -0.0523
     34 C32        -1.5972    4.3709   -3.3320 C.2       1 <0>         0.4959
     35 O2         -2.5624    3.8505   -2.8089 O.co2     1 <0>        -0.6267
     36 H1          6.9366    4.2857    0.0421 H         1 <0>         0.1205
     37 H2          4.7842    5.4703    0.0481 H         1 <0>         0.1232
     38 H3          2.6806    4.2317    0.0382 H         1 <0>         0.1321
     39 H4          7.0205    1.8496    0.0238 H         1 <0>         0.1245
     40 H5          5.8405   -0.3120    0.0093 H         1 <0>         0.1243
     41 H6          3.7950   -1.5871    0.0001 H         1 <0>         0.1234
     42 H7          1.1101    3.2459    0.0321 H         1 <0>         0.1554
     43 H8          2.2266   -2.5926   -0.0063 H         1 <0>         0.1288
     44 H9          0.1332   -3.8485   -0.0137 H         1 <0>         0.1238
     45 H10        -2.0290   -2.6833   -0.0048 H         1 <0>         0.1245
     46 H11        -2.1320   -0.2455    0.0108 H         1 <0>         0.1236
     47 H12        -2.0295    1.7011    0.3722 H         1 <0>         0.4055
     48 H13        -3.6317    2.5664    0.6438 H         1 <0>         0.1149
     49 H14        -5.7276    3.8352    0.8234 H         1 <0>         0.1205
     50 H15        -5.8777    6.1200   -0.0706 H         1 <0>         0.1206
     51 H16        -3.9330    7.1618   -1.1517 H         1 <0>         0.1230
     52 H17        -1.2671    7.6036   -0.0145 H         1 <0>         0.1124
     53 H18         0.6839    8.6390   -1.0901 H         1 <0>         0.1119
     54 H19         1.5807    7.7218   -3.1870 H         1 <0>         0.1118
     55 H20         0.5360    5.7592   -4.2314 H         1 <0>         0.1255
     56 O3         -1.0998    3.8683   -4.4790 O.co2     1 <0>        -0.7544
@<TRIPOS>BOND
     1    1    6 ar
     2    1    2 ar
     3    1   36 1
     4    2    3 ar
     5    2   37 1
     6    3    4 ar
     7    3   38 1
     8    4   10 ar
     9    4    5 ar
    10    5    6 ar
    11    5    7 ar
    12    6   39 1
    13    7    8 ar
    14    7   40 1
    15    8    9 ar
    16    8   41 1
    17    9   14 ar
    18    9   10 ar
    19   10   11 ar
    20   11   12 ar
    21   11   42 1
    22   12   13 ar
    23   12   19 1
    24   13   18 ar
    25   13   14 ar
    26   14   15 ar
    27   15   16 ar
    28   15   43 1
    29   16   17 ar
    30   16   44 1
    31   17   18 ar
    32   17   45 1
    33   18   46 1
    34   19   20 am
    35   19   47 1
    36   20   21 2
    37   20   22 1
    38   22   27 ar
    39   22   23 ar
    40   23   24 ar
    41   23   48 1
    42   24   25 ar
    43   24   49 1
    44   25   26 ar
    45   25   50 1
    46   26   27 ar
    47   26   51 1
    48   27   28 1
    49   28   33 ar
    50   28   29 ar
    51   29   30 ar
    52   29   52 1
    53   30   31 ar
    54   30   53 1
    55   31   32 ar
    56   31   54 1
    57   32   33 ar
    58   32   55 1
    59   33   34 1
    60   34   35 2
    61   34   56 1
@<TRIPOS>MOLECULE
ZINC01719580
   49    53     0     0     0
SMALL
USER_CHARGES
5-chloro-2-[4-chloro-2-(9H-fluoren-2-ylcarbamoyl)phenyl]-benzoic acid
@<TRIPOS>ATOM
      1 C1        -10.1665    8.3005   -1.0874 C.ar      1 <0>        -0.1205
      2 C2         -9.4270    9.2762   -0.4431 C.ar      1 <0>        -0.1240
      3 C3         -8.1060    9.0469   -0.1198 C.ar      1 <0>        -0.1022
      4 C4         -7.5109    7.8256   -0.4429 C.ar      1 <0>        -0.0451
      5 C5         -8.2635    6.8499   -1.0909 C.ar      1 <0>        -0.0873
      6 C6         -9.5835    7.0881   -1.4106 C.ar      1 <0>        -0.1013
      7 C7         -7.3680    5.6549   -1.3085 C.3       1 <0>        -0.0471
      8 C8         -6.0263    6.0278   -0.7266 C.ar      1 <0>        -0.0614
      9 C9         -6.1341    7.3202   -0.2185 C.ar      1 <0>        -0.0883
     10 C10        -5.0234    7.9171    0.3832 C.ar      1 <0>        -0.0765
     11 C11        -3.8334    7.2288    0.4714 C.ar      1 <0>        -0.1529
     12 C12        -3.7325    5.9392   -0.0378 C.ar      1 <0>         0.1708
     13 C13        -4.8337    5.3438   -0.6425 C.ar      1 <0>        -0.0963
     14 N1         -2.5237    5.2441    0.0529 N.am      1 <0>        -0.6733
     15 C14        -2.5262    3.9060    0.2139 C.2       1 <0>         0.5710
     16 O1         -3.5764    3.3152    0.3764 O.2       1 <0>        -0.4865
     17 C15        -1.2538    3.1576    0.1928 C.ar      1 <0>        -0.0533
     18 C16        -0.0468    3.8308    0.0067 C.ar      1 <0>        -0.0834
     19 C17         1.1405    3.1256   -0.0125 C.ar      1 <0>        -0.0443
     20 C18         1.1415    1.7492    0.1527 C.ar      1 <0>        -0.0885
     21 C19        -0.0437    1.0667    0.3381 C.ar      1 <0>        -0.1087
     22 C20        -1.2518    1.7598    0.3547 C.ar      1 <0>         0.0588
     23 C21        -2.5254    1.0309    0.5471 C.ar      1 <0>        -0.0249
     24 C22        -2.7809    0.3717    1.7471 C.ar      1 <0>        -0.1085
     25 C23        -3.9720   -0.3025    1.9247 C.ar      1 <0>        -0.1196
     26 C24        -4.9161   -0.3393    0.9102 C.ar      1 <0>        -0.0383
     27 C25        -4.6789    0.3037   -0.2887 C.ar      1 <0>        -0.0735
     28 C26        -3.4831    0.9949   -0.4838 C.ar      1 <0>        -0.0430
     29 C27        -3.2236    1.6835   -1.7626 C.2       1 <0>         0.4968
     30 O2         -2.1806    2.2840   -1.9284 O.co2     1 <0>        -0.6206
     31 Cl1        -6.4057   -1.1983    1.1485 Cl        1 <0>        -0.0906
     32 Cl2         2.6407    3.9679   -0.2445 Cl        1 <0>        -0.0800
     33 H1        -11.2003    8.4857   -1.3389 H         1 <0>         0.1234
     34 H2         -9.8858   10.2212   -0.1926 H         1 <0>         0.1221
     35 H3         -7.5321    9.8115    0.3826 H         1 <0>         0.1198
     36 H4        -10.1626    6.3279   -1.9136 H         1 <0>         0.1240
     37 H5         -7.7721    4.7842   -0.7920 H         1 <0>         0.1032
     38 H6         -7.2706    5.4481   -2.3742 H         1 <0>         0.1038
     39 H7         -5.0980    8.9188    0.7800 H         1 <0>         0.1229
     40 H8         -2.9764    7.6926    0.9370 H         1 <0>         0.1272
     41 H9         -4.7553    4.3437   -1.0424 H         1 <0>         0.1476
     42 H10        -1.6828    5.7247   -0.0000 H         1 <0>         0.4063
     43 H11        -0.0406    4.9030   -0.1226 H         1 <0>         0.1287
     44 H12         2.0757    1.2076    0.1367 H         1 <0>         0.1338
     45 H13        -0.0347   -0.0057    0.4657 H         1 <0>         0.1354
     46 H14        -2.0486    0.3919    2.5406 H         1 <0>         0.1253
     47 H15        -4.1681   -0.8082    2.8586 H         1 <0>         0.1258
     48 H16        -5.4186    0.2711   -1.0749 H         1 <0>         0.1392
     49 O3         -4.1434    1.6462   -2.7465 O.co2     1 <0>        -0.7459
@<TRIPOS>BOND
     1    1    6 ar
     2    1    2 ar
     3    1   33 1
     4    2    3 ar
     5    2   34 1
     6    3    4 ar
     7    3   35 1
     8    4    9 1
     9    4    5 ar
    10    5    6 ar
    11    5    7 1
    12    6   36 1
    13    7    8 1
    14    7   37 1
    15    7   38 1
    16    8   13 ar
    17    8    9 ar
    18    9   10 ar
    19   10   11 ar
    20   10   39 1
    21   11   12 ar
    22   11   40 1
    23   12   13 ar
    24   12   14 1
    25   13   41 1
    26   14   15 am
    27   14   42 1
    28   15   16 2
    29   15   17 1
    30   17   22 ar
    31   17   18 ar
    32   18   19 ar
    33   18   43 1
    34   19   20 ar
    35   19   32 1
    36   20   21 ar
    37   20   44 1
    38   21   22 ar
    39   21   45 1
    40   22   23 1
    41   23   28 ar
    42   23   24 ar
    43   24   25 ar
    44   24   46 1
    45   25   26 ar
    46   25   47 1
    47   26   27 ar
    48   26   31 1
    49   27   28 ar
    50   27   48 1
    51   28   29 1
    52   29   30 2
    53   29   49 1
