@<TRIPOS>MOLECULE
ZINC00057478
   49    52     0     0     0
SMALL
USER_CHARGES
quinuclidin-3-yl 2-hydroxy-2,2-diphenyl-acetate
@<TRIPOS>ATOM
      1 C1          1.4720    2.0015    1.7120 C.ar      1 <0>        -0.1030
      2 C2          1.8758    1.1616    0.6910 C.ar      1 <0>        -0.1147
      3 C3          0.9814    0.2625    0.1411 C.ar      1 <0>        -0.1168
      4 C4         -0.3174    0.2046    0.6107 C.ar      1 <0>        -0.0905
      5 C5         -0.7218    1.0457    1.6304 C.ar      1 <0>        -0.0762
      6 C6          0.1729    1.9442    2.1811 C.ar      1 <0>        -0.1166
      7 C7         -1.2926   -0.7753    0.0108 C.3       1 <0>         0.2533
      8 C8         -1.0593   -2.1418    0.6016 C.ar      1 <0>        -0.1288
      9 C9          0.1993   -2.7112    0.5507 C.ar      1 <0>        -0.0766
     10 C10         0.4144   -3.9627    1.0970 C.ar      1 <0>        -0.1190
     11 C11        -0.6315   -4.6493    1.6848 C.ar      1 <0>        -0.1004
     12 C12        -1.8913   -4.0821    1.7311 C.ar      1 <0>        -0.1192
     13 C13        -2.1052   -2.8284    1.1895 C.ar      1 <0>        -0.1020
     14 C14        -1.0930   -0.8326   -1.4818 C.2       1 <0>         0.4468
     15 O1         -0.3846   -1.6842   -1.9644 O.2       1 <0>        -0.4737
     16 O2         -1.7023    0.0624   -2.2753 O.3       1 <0>        -0.3270
     17 C15        -1.4646   -0.0529   -3.7030 C.3       1 <0>         0.0725
     18 H1         -0.4745   -0.4748   -3.8756 H         1 <0>         0.1215
     19 C16        -2.5281   -0.9599   -4.3287 C.3       1 <0>        -0.0183
     20 C17        -3.9834    0.9338   -4.7344 C.3       1 <0>        -0.0019
     21 C18        -2.9614    1.8944   -4.1200 C.3       1 <0>        -0.1364
     22 C19        -1.5526    1.3339   -4.3524 C.3       1 <0>        -0.0967
     23 C20        -1.3293    1.1822   -5.8624 C.3       1 <0>        -0.1347
     24 C21        -2.3971    0.2417   -6.4281 C.3       1 <0>        -0.0048
     25 O3         -2.6278   -0.3542    0.2970 O.3       1 <0>        -0.5211
     26 H2          2.1710    2.7035    2.1422 H         1 <0>         0.1300
     27 H3          2.8907    1.2067    0.3243 H         1 <0>         0.1296
     28 H4          1.2986   -0.3978   -0.6525 H         1 <0>         0.1211
     29 H5         -1.7366    1.0007    1.9971 H         1 <0>         0.1361
     30 H6         -0.1430    2.6012    2.9780 H         1 <0>         0.1315
     31 H7          1.0154   -2.1766    0.0875 H         1 <0>         0.1253
     32 H8          1.3986   -4.4059    1.0606 H         1 <0>         0.1293
     33 H9         -0.4645   -5.6289    2.1077 H         1 <0>         0.1293
     34 H10        -2.7085   -4.6187    2.1901 H         1 <0>         0.1301
     35 H11        -3.0896   -2.3855    1.2253 H         1 <0>         0.1281
     36 H12        -2.0448   -1.8163   -4.7988 H         1 <0>         0.1413
     37 H13        -3.2111   -1.3076   -3.5536 H         1 <0>         0.1353
     38 H14        -4.6564    0.5726   -3.9568 H         1 <0>         0.1295
     39 H15        -4.5584    1.4553   -5.4996 H         1 <0>         0.1320
     40 H16        -3.1453    1.9877   -3.0497 H         1 <0>         0.1099
     41 H17        -3.0475    2.8731   -4.5920 H         1 <0>         0.1050
     42 H18        -0.8077    1.9998   -3.9167 H         1 <0>         0.1257
     43 H19        -1.4096    2.1571   -6.3432 H         1 <0>         0.1124
     44 H20        -0.3398    0.7631   -6.0450 H         1 <0>         0.1043
     45 H21        -1.9153   -0.6235   -6.8837 H         1 <0>         0.1309
     46 H22        -2.9849    0.7684   -7.1799 H         1 <0>         0.1343
     47 H23        -3.3099   -0.9395   -0.0598 H         1 <0>         0.3849
     48 N1         -3.2990   -0.2219   -5.3524 N.4       1 <0>        -0.3882
     49 H24        -4.0038   -0.8501   -5.7559 H         1 <0>         0.4368
@<TRIPOS>BOND
     1    1    6 ar
     2    1    2 ar
     3    1   26 1
     4    2    3 ar
     5    2   27 1
     6    3    4 ar
     7    3   28 1
     8    4    5 ar
     9    4    7 1
    10    5    6 ar
    11    5   29 1
    12    6   30 1
    13    7    8 1
    14    7   14 1
    15    7   25 1
    16    8   13 ar
    17    8    9 ar
    18    9   10 ar
    19    9   31 1
    20   10   11 ar
    21   10   32 1
    22   11   12 ar
    23   11   33 1
    24   12   13 ar
    25   12   34 1
    26   13   35 1
    27   14   15 2
    28   14   16 1
    29   16   17 1
    30   17   18 1
    31   17   22 1
    32   17   19 1
    33   19   36 1
    34   19   37 1
    35   19   48 1
    36   20   21 1
    37   20   38 1
    38   20   39 1
    39   20   48 1
    40   21   22 1
    41   21   40 1
    42   21   41 1
    43   22   23 1
    44   22   42 1
    45   23   24 1
    46   23   43 1
    47   23   44 1
    48   24   45 1
    49   24   46 1
    50   24   48 1
    51   25   47 1
    52   48   49 1
@<TRIPOS>MOLECULE
ZINC00057479
   49    52     0     0     0
SMALL
USER_CHARGES
quinuclidin-3-yl 2-hydroxy-2,2-diphenyl-acetate
@<TRIPOS>ATOM
      1 C1          0.1683   -0.8233   -3.3647 C.ar      1 <0>        -0.1003
      2 C2         -0.5192   -0.9452   -2.1717 C.ar      1 <0>        -0.1206
      3 C3         -0.1575   -0.1733   -1.0835 C.ar      1 <0>        -0.0993
      4 C4          0.8920    0.7203   -1.1882 C.ar      1 <0>        -0.1324
      5 C5          1.5761    0.8460   -2.3828 C.ar      1 <0>        -0.0766
      6 C6          1.2172    0.0709   -3.4697 C.ar      1 <0>        -0.1211
      7 C7          1.2864    1.5618   -0.0018 C.3       1 <0>         0.2537
      8 C8          1.0779    3.0183   -0.3276 C.ar      1 <0>        -0.0915
      9 C9          1.9720    3.6773   -1.1505 C.ar      1 <0>        -0.1148
     10 C10         1.7784    5.0122   -1.4529 C.ar      1 <0>        -0.1150
     11 C11         0.6958    5.6905   -0.9250 C.ar      1 <0>        -0.1030
     12 C12        -0.1954    5.0328   -0.0978 C.ar      1 <0>        -0.1175
     13 C13        -0.0042    3.6968    0.2010 C.ar      1 <0>        -0.0769
     14 C14         2.7383    1.3225    0.3233 C.2       1 <0>         0.4475
     15 O1          3.4953    0.9410   -0.5376 O.2       1 <0>        -0.4746
     16 O2          3.1905    1.5333    1.5694 O.3       1 <0>        -0.3268
     17 C15         4.6003    1.2824    1.8103 C.3       1 <0>         0.0725
     18 H1          5.1660    1.4714    0.8980 H         1 <0>         0.1212
     19 C16         4.7957   -0.1736    2.2430 C.3       1 <0>        -0.0183
     20 C17         6.7236    0.4252    3.5821 C.3       1 <0>        -0.0050
     21 C18         6.5842    1.9003    3.1846 C.3       1 <0>        -0.1343
     22 C19         5.1031    2.2054    2.9275 C.3       1 <0>        -0.0961
     23 C20         4.3106    1.8963    4.2073 C.3       1 <0>        -0.1364
     24 C21         4.5144    0.4236    4.5738 C.3       1 <0>        -0.0018
     25 O3          0.4812    1.2054    1.1237 O.3       1 <0>        -0.5215
     26 H2         -0.1138   -1.4269   -4.2147 H         1 <0>         0.1288
     27 H3         -1.3387   -1.6439   -2.0896 H         1 <0>         0.1300
     28 H4         -0.6946   -0.2686   -0.1514 H         1 <0>         0.1308
     29 H5          2.3932    1.5473   -2.4659 H         1 <0>         0.1272
     30 H6          1.7546    0.1660   -4.4017 H         1 <0>         0.1287
     31 H7          2.8200    3.1484   -1.5599 H         1 <0>         0.1216
     32 H8          2.4745    5.5259   -2.0994 H         1 <0>         0.1296
     33 H9          0.5460    6.7341   -1.1590 H         1 <0>         0.1298
     34 H10        -1.0413    5.5627    0.3146 H         1 <0>         0.1313
     35 H11        -0.7005    3.1830    0.8472 H         1 <0>         0.1367
     36 H12         3.8303   -0.6791    2.2650 H         1 <0>         0.1352
     37 H13         5.4542   -0.6778    1.5357 H         1 <0>         0.1413
     38 H14         7.1600    0.3561    4.5785 H         1 <0>         0.1344
     39 H15         7.3687   -0.0837    2.8660 H         1 <0>         0.1308
     40 H16         7.1588    2.0893    2.2779 H         1 <0>         0.1040
     41 H17         6.9534    2.5353    3.9899 H         1 <0>         0.1126
     42 H18         4.9674    3.2484    2.6414 H         1 <0>         0.1260
     43 H19         3.2513    2.0866    4.0350 H         1 <0>         0.1099
     44 H20         4.6675    2.5279    5.0208 H         1 <0>         0.1048
     45 H21         3.5511   -0.0864    4.5797 H         1 <0>         0.1294
     46 H22         4.9688    0.3540    5.5622 H         1 <0>         0.1320
     47 H23         0.5651    0.2796    1.3900 H         1 <0>         0.3858
     48 N1          5.4008   -0.2351    3.5909 N.4       1 <0>        -0.3881
     49 H24         5.5211   -1.2193    3.8576 H         1 <0>         0.4368
@<TRIPOS>BOND
     1    1    6 ar
     2    1    2 ar
     3    1   26 1
     4    2    3 ar
     5    2   27 1
     6    3    4 ar
     7    3   28 1
     8    4    5 ar
     9    4    7 1
    10    5    6 ar
    11    5   29 1
    12    6   30 1
    13    7    8 1
    14    7   14 1
    15    7   25 1
    16    8   13 ar
    17    8    9 ar
    18    9   10 ar
    19    9   31 1
    20   10   11 ar
    21   10   32 1
    22   11   12 ar
    23   11   33 1
    24   12   13 ar
    25   12   34 1
    26   13   35 1
    27   14   15 2
    28   14   16 1
    29   16   17 1
    30   17   18 1
    31   17   22 1
    32   17   19 1
    33   19   36 1
    34   19   37 1
    35   19   48 1
    36   20   21 1
    37   20   38 1
    38   20   39 1
    39   20   48 1
    40   21   22 1
    41   21   40 1
    42   21   41 1
    43   22   23 1
    44   22   42 1
    45   23   24 1
    46   23   43 1
    47   23   44 1
    48   24   45 1
    49   24   46 1
    50   24   48 1
    51   25   47 1
    52   48   49 1
@<TRIPOS>MOLECULE
ZINC00534283
   47    51     0     0     0
SMALL
USER_CHARGES

@<TRIPOS>ATOM
      1 C1         -0.0167    1.3773    0.0096 C.ar      1 <0>        -0.1352
      2 C2          1.1710    2.0858    0.0021 C.ar      1 <0>        -0.0708
      3 C3          2.3757    1.4127   -0.0135 C.ar      1 <0>        -0.1321
      4 C4          2.3983    0.0222   -0.0208 C.ar      1 <0>         0.1292
      5 C5          1.2072   -0.6846   -0.0124 C.ar      1 <0>        -0.1524
      6 C6          0.0021   -0.0041    0.0020 C.ar      1 <0>        -0.0643
      7 C7          1.2044   -2.1890   -0.0170 C.3       1 <0>         0.0245
      8 C8          2.5426   -2.7202   -0.4529 C.ar      1 <0>        -0.1664
      9 C9          2.6467   -4.0361   -0.8694 C.ar      1 <0>        -0.0674
     10 C10         3.8668   -4.5433   -1.2724 C.ar      1 <0>        -0.1443
     11 C11         4.9900   -3.7367   -1.2609 C.ar      1 <0>        -0.0718
     12 C12         4.8920   -2.4237   -0.8471 C.ar      1 <0>        -0.1348
     13 C13         3.6655   -1.9096   -0.4406 C.ar      1 <0>         0.1337
     14 O1          3.5912   -0.6193   -0.0349 O.3       1 <0>        -0.2413
     15 C14         0.8998   -2.6893    1.3715 C.2       1 <0>         0.4704
     16 O2          0.7059   -1.9029    2.2681 O.2       1 <0>        -0.4748
     17 O3          0.8438   -4.0086    1.6123 O.3       1 <0>        -0.3333
     18 C15         0.5502   -4.4119    2.9514 C.3       1 <0>         0.0747
     19 H1         -0.0780   -3.6604    3.4297 H         1 <0>         0.1193
     20 C16         1.8538   -4.5665    3.7379 C.3       1 <0>        -0.0267
     21 N1          1.9882   -5.9431    4.2203 N.4       1 <0>        -0.3724
     22 C17         2.0403   -6.8807    3.0960 C.3       1 <0>        -0.0087
     23 C18         0.7429   -6.8028    2.2881 C.3       1 <0>        -0.1364
     24 C19        -0.1833   -5.7594    2.9335 C.3       1 <0>        -0.0957
     25 C20        -0.4515   -6.1836    4.3835 C.3       1 <0>        -0.1351
     26 C21         0.8869   -6.2825    5.1245 C.3       1 <0>        -0.0108
     27 H2         -0.9593    1.9042    0.0259 H         1 <0>         0.1351
     28 H3          1.1557    3.1657    0.0081 H         1 <0>         0.1408
     29 H4          3.3027    1.9668   -0.0205 H         1 <0>         0.1408
     30 H5         -0.9269   -0.5549    0.0079 H         1 <0>         0.1280
     31 H6          0.4357   -2.5448   -0.7030 H         1 <0>         0.1338
     32 H7          1.7712   -4.6684   -0.8790 H         1 <0>         0.1337
     33 H8          3.9436   -5.5707   -1.5963 H         1 <0>         0.1333
     34 H9          5.9436   -4.1341   -1.5754 H         1 <0>         0.1395
     35 H10         5.7697   -1.7944   -0.8387 H         1 <0>         0.1412
     36 H11         2.6973   -4.3261    3.0908 H         1 <0>         0.1370
     37 H12         1.8464   -3.8845    4.5881 H         1 <0>         0.1418
     38 H13         2.8828   -6.6273    2.4525 H         1 <0>         0.1309
     39 H14         2.1695   -7.8941    3.4759 H         1 <0>         0.1337
     40 H15         0.9679   -6.5066    1.2635 H         1 <0>         0.1079
     41 H16         0.2526   -7.7763    2.2897 H         1 <0>         0.1046
     42 H17        -1.1132   -5.6758    2.3710 H         1 <0>         0.1271
     43 H18        -1.0837   -5.4411    4.8703 H         1 <0>         0.1041
     44 H19        -0.9491   -7.1534    4.3943 H         1 <0>         0.1120
     45 H20         1.0224   -7.2991    5.4938 H         1 <0>         0.1359
     46 H21         0.8844   -5.5908    5.9670 H         1 <0>         0.1324
     47 H22         2.8553   -6.0194    4.7305 H         1 <0>         0.4296
@<TRIPOS>BOND
     1    1    6 ar
     2    1    2 ar
     3    1   27 1
     4    2    3 ar
     5    2   28 1
     6    3    4 ar
     7    3   29 1
     8    4   14 1
     9    4    5 ar
    10    5    6 ar
    11    5    7 1
    12    6   30 1
    13    7    8 1
    14    7   15 1
    15    7   31 1
    16    8   13 ar
    17    8    9 ar
    18    9   10 ar
    19    9   32 1
    20   10   11 ar
    21   10   33 1
    22   11   12 ar
    23   11   34 1
    24   12   13 ar
    25   12   35 1
    26   13   14 1
    27   15   16 2
    28   15   17 1
    29   17   18 1
    30   18   19 1
    31   18   24 1
    32   18   20 1
    33   20   21 1
    34   20   36 1
    35   20   37 1
    36   21   26 1
    37   21   22 1
    38   21   47 1
    39   22   23 1
    40   22   38 1
    41   22   39 1
    42   23   24 1
    43   23   40 1
    44   23   41 1
    45   24   25 1
    46   24   42 1
    47   25   26 1
    48   25   43 1
    49   25   44 1
    50   26   45 1
    51   26   46 1
@<TRIPOS>MOLECULE
ZINC02003680
   52    53     0     0     0
SMALL
USER_CHARGES

@<TRIPOS>ATOM
      1 C1         -2.8165    1.1642    1.4065 C.3       1 <0>        -0.1875
      2 C2         -2.7146   -0.3619    1.3665 C.3       1 <0>        -0.0188
      3 N1         -2.0186   -0.7743    0.1404 N.4       1 <0>        -0.3886
      4 C3         -0.6312   -0.2930    0.1794 C.3       1 <0>        -0.0160
      5 C4          0.0456   -0.5785   -1.1627 C.3       1 <0>        -0.1890
      6 C5         -2.0259   -2.2400    0.0425 C.3       1 <0>        -0.0058
      7 C6         -3.4631   -2.7318   -0.1398 C.3       1 <0>         0.0280
      8 O1         -3.9776   -2.2496   -1.3827 O.3       1 <0>        -0.3604
      9 C7         -5.2664   -2.5112   -1.6514 C.2       1 <0>         0.4820
     10 O2         -5.9601   -3.0473   -0.8200 O.2       1 <0>        -0.4701
     11 C8         -5.8482   -2.1362   -2.9900 C.3       1 <0>         0.0449
     12 C9         -5.1392   -2.9244   -4.0932 C.3       1 <0>        -0.1469
     13 C10        -7.3197   -2.4610   -3.0070 C.ar      1 <0>        -0.0913
     14 C11        -8.2400   -1.4815   -3.3303 C.ar      1 <0>        -0.1015
     15 C12        -9.5898   -1.7795   -3.3459 C.ar      1 <0>        -0.1207
     16 C13       -10.0192   -3.0570   -3.0386 C.ar      1 <0>        -0.1045
     17 C14        -9.0988   -4.0367   -2.7162 C.ar      1 <0>        -0.1195
     18 C15        -7.7487   -3.7398   -2.7048 C.ar      1 <0>        -0.0838
     19 C16        -5.6569   -0.6600   -3.2251 C.ar      1 <0>        -0.0827
     20 C17        -6.0947    0.2524   -2.2834 C.ar      1 <0>        -0.1162
     21 C18        -5.9192    1.6065   -2.4990 C.ar      1 <0>        -0.1175
     22 C19        -5.3056    2.0482   -3.6562 C.ar      1 <0>        -0.1106
     23 C20        -4.8669    1.1359   -4.5976 C.ar      1 <0>        -0.1125
     24 C21        -5.0386   -0.2184   -4.3799 C.ar      1 <0>        -0.1044
     25 H1         -3.3330    1.4702    2.3163 H         1 <0>         0.1073
     26 H2         -1.8156    1.5956    1.3942 H         1 <0>         0.0821
     27 H3         -3.3736    1.5140    0.5373 H         1 <0>         0.0808
     28 H4         -2.1575   -0.7117    2.2357 H         1 <0>         0.1327
     29 H5         -3.7155   -0.7933    1.3788 H         1 <0>         0.1272
     30 H6         -0.6242    0.7804    0.3688 H         1 <0>         0.1340
     31 H7         -0.0910   -0.8059    0.9751 H         1 <0>         0.1306
     32 H8         -0.0023   -1.6468   -1.3738 H         1 <0>         0.0799
     33 H9         -0.4668   -0.0288   -1.9522 H         1 <0>         0.0819
     34 H10         1.0881   -0.2633   -1.1183 H         1 <0>         0.1072
     35 H11        -1.4246   -2.5500   -0.8121 H         1 <0>         0.1454
     36 H12        -1.6086   -2.6671    0.9544 H         1 <0>         0.1511
     37 H13        -3.4770   -3.8217   -0.1392 H         1 <0>         0.1151
     38 H14        -4.0808   -2.3601    0.6778 H         1 <0>         0.0934
     39 H15        -5.2776   -3.9921   -3.9231 H         1 <0>         0.0716
     40 H16        -5.5600   -2.6531   -5.0614 H         1 <0>         0.0870
     41 H17        -4.0749   -2.6894   -4.0809 H         1 <0>         0.0764
     42 H18        -7.9046   -0.4834   -3.5704 H         1 <0>         0.1271
     43 H19       -10.3089   -1.0141   -3.5978 H         1 <0>         0.1267
     44 H20       -11.0738   -3.2896   -3.0501 H         1 <0>         0.1270
     45 H21        -9.4343   -5.0347   -2.4758 H         1 <0>         0.1268
     46 H22        -7.0294   -4.5062   -2.4565 H         1 <0>         0.1182
     47 H23        -6.5742   -0.0928   -1.3793 H         1 <0>         0.1182
     48 H24        -6.2619    2.3193   -1.7636 H         1 <0>         0.1264
     49 H25        -5.1691    3.1062   -3.8250 H         1 <0>         0.1276
     50 H26        -4.3878    1.4810   -5.5018 H         1 <0>         0.1297
     51 H27        -4.6926   -0.9314   -5.1137 H         1 <0>         0.1336
     52 H28        -2.4884   -0.3813   -0.6614 H         1 <0>         0.4285
@<TRIPOS>BOND
     1    1    2 1
     2    1   25 1
     3    1   26 1
     4    1   27 1
     5    2    3 1
     6    2   28 1
     7    2   29 1
     8    3    4 1
     9    3    6 1
    10    3   52 1
    11    4    5 1
    12    4   30 1
    13    4   31 1
    14    5   32 1
    15    5   33 1
    16    5   34 1
    17    6    7 1
    18    6   35 1
    19    6   36 1
    20    7    8 1
    21    7   37 1
    22    7   38 1
    23    8    9 1
    24    9   10 2
    25    9   11 1
    26   11   12 1
    27   11   13 1
    28   11   19 1
    29   12   39 1
    30   12   40 1
    31   12   41 1
    32   13   18 ar
    33   13   14 ar
    34   14   15 ar
    35   14   42 1
    36   15   16 ar
    37   15   43 1
    38   16   17 ar
    39   16   44 1
    40   17   18 ar
    41   17   45 1
    42   18   46 1
    43   19   24 ar
    44   19   20 ar
    45   20   21 ar
    46   20   47 1
    47   21   22 ar
    48   21   48 1
    49   22   23 ar
    50   22   49 1
    51   23   24 ar
    52   23   50 1
    53   24   51 1
@<TRIPOS>MOLECULE
ZINC19632927
   48    51     0     0     0
SMALL
USER_CHARGES

@<TRIPOS>ATOM
      1 C1         -0.0178    1.4648    0.0101 C.3       1 <0>        -0.0455
      2 N1          0.0021   -0.0041    0.0020 N.4       1 <0>        -0.3894
      3 C2          0.6881   -0.4775   -1.2074 C.3       1 <0>        -0.0008
      4 C3          0.6925   -2.0076   -1.2257 C.3       1 <0>         0.0269
      5 N2          1.3783   -2.5070   -0.0254 N.3       1 <0>        -0.5225
      6 C4          0.7172   -2.0206    1.1938 C.3       1 <0>         0.0161
      7 C5          0.7125   -0.4904    1.1921 C.3       1 <0>         0.0015
      8 C6          1.4533   -3.9741   -0.0341 C.3       1 <0>         0.0426
      9 C7          2.3669   -4.4368    1.0715 C.2       1 <0>         0.5351
     10 O1          2.9027   -3.6245    1.7954 O.2       1 <0>        -0.4900
     11 N3          2.5885   -5.7534    1.2559 N.am      1 <0>        -0.5088
     12 C8          3.4268   -6.1930    2.2788 C.ar      1 <0>         0.1626
     13 C9          4.7558   -5.7953    2.3068 C.ar      1 <0>        -0.1029
     14 C10         5.5974   -6.2612    3.2975 C.ar      1 <0>        -0.0752
     15 C11         5.1221   -7.1293    4.2666 C.ar      1 <0>        -0.1148
     16 C12         3.8013   -7.5220    4.2622 C.ar      1 <0>        -0.0472
     17 C13         2.9321   -7.0440    3.2767 C.ar      1 <0>        -0.1388
     18 C14         1.5076   -7.3936    3.3274 C.2       1 <0>         0.5693
     19 O2          0.9941   -7.4628    4.4272 O.2       1 <0>        -0.5115
     20 N4          0.7308   -7.6402    2.2834 N.am      1 <0>        -0.6546
     21 C15         1.1049   -7.6466    0.9429 C.ar      1 <0>         0.1116
     22 C16         1.9766   -6.6982    0.4280 C.ar      1 <0>         0.3036
     23 N5          2.2523   -6.6867   -0.8690 N.ar      1 <0>        -0.4707
     24 C17         1.7527   -7.5835   -1.6967 C.ar      1 <0>         0.1138
     25 C18         0.9140   -8.5804   -1.2402 C.ar      1 <0>        -0.1334
     26 C19         0.5835   -8.6183    0.0940 C.ar      1 <0>        -0.0812
     27 H1          1.0047    1.8421    0.0024 H         1 <0>         0.1237
     28 H2         -0.5450    1.8259   -0.8730 H         1 <0>         0.1244
     29 H3         -0.5280    1.8163    0.9069 H         1 <0>         0.1243
     30 H4          0.1675   -0.1052   -2.0897 H         1 <0>         0.1384
     31 H5          1.7147   -0.1111   -1.2098 H         1 <0>         0.1397
     32 H6         -0.3339   -2.3742   -1.2371 H         1 <0>         0.0623
     33 H7          1.2146   -2.3592   -2.1156 H         1 <0>         0.1270
     34 H8         -0.3088   -2.3874    1.2222 H         1 <0>         0.0573
     35 H9          1.2573   -2.3817    2.0691 H         1 <0>         0.1369
     36 H10         1.7390   -0.1239    1.1774 H         1 <0>         0.1407
     37 H11         0.2100   -0.1276    2.0887 H         1 <0>         0.1368
     38 H12         0.4575   -4.3897    0.1196 H         1 <0>         0.0732
     39 H13         1.8441   -4.3122   -0.9938 H         1 <0>         0.1348
     40 H14         5.1327   -5.1207    1.5523 H         1 <0>         0.1352
     41 H15         6.6308   -5.9477    3.3166 H         1 <0>         0.1412
     42 H16         5.7903   -7.5006    5.0294 H         1 <0>         0.1426
     43 H17         3.4373   -8.1998    5.0202 H         1 <0>         0.1436
     44 H18        -0.1996   -7.8381    2.4737 H         1 <0>         0.4153
     45 H19         2.0029   -7.5372   -2.7463 H         1 <0>         0.1750
     46 H20         0.5246   -9.3217   -1.9223 H         1 <0>         0.1560
     47 H21        -0.0739   -9.3867    0.4732 H         1 <0>         0.1543
     48 H22        -0.9446   -0.3531    0.0097 H         1 <0>         0.4216
@<TRIPOS>BOND
     1    1    2 1
     2    1   27 1
     3    1   28 1
     4    1   29 1
     5    2    7 1
     6    2    3 1
     7    2   48 1
     8    3    4 1
     9    3   30 1
    10    3   31 1
    11    4    5 1
    12    4   32 1
    13    4   33 1
    14    5    6 1
    15    5    8 1
    16    6    7 1
    17    6   34 1
    18    6   35 1
    19    7   36 1
    20    7   37 1
    21    8    9 1
    22    8   38 1
    23    8   39 1
    24    9   10 2
    25    9   11 am
    26   11   22 1
    27   11   12 1
    28   12   17 ar
    29   12   13 ar
    30   13   14 ar
    31   13   40 1
    32   14   15 ar
    33   14   41 1
    34   15   16 ar
    35   15   42 1
    36   16   17 ar
    37   16   43 1
    38   17   18 1
    39   18   19 2
    40   18   20 am
    41   20   21 1
    42   20   44 1
    43   21   26 ar
    44   21   22 ar
    45   22   23 ar
    46   23   24 ar
    47   24   25 ar
    48   24   45 1
    49   25   26 ar
    50   25   46 1
    51   26   47 1
@<TRIPOS>MOLECULE
ZINC19632927
   48    51     0     0     0
SMALL
USER_CHARGES

@<TRIPOS>ATOM
      1 C1         -0.0178    1.4648    0.0101 C.3       1 <0>         0.0196
      2 N1          0.0021   -0.0041    0.0020 N.3       1 <0>        -0.5444
      3 C2          0.6054   -0.5158   -1.2366 C.3       1 <0>         0.0258
      4 C3          0.5529   -2.0452   -1.2320 C.3       1 <0>        -0.0018
      5 N2          1.2823   -2.5567   -0.0641 N.4       1 <0>        -0.3733
      6 C4          0.6533   -2.0570    1.1655 C.3       1 <0>        -0.0155
      7 C5          0.7065   -0.5278    1.1808 C.3       1 <0>         0.0300
      8 C6          1.2470   -4.0253   -0.0699 C.3       1 <0>        -0.0244
      9 C7          2.0969   -4.5526    1.0573 C.2       1 <0>         0.5235
     10 O1          2.6751   -3.7810    1.7931 O.2       1 <0>        -0.4949
     11 N3          2.2146   -5.8816    1.2479 N.am      1 <0>        -0.4846
     12 C8          2.9932   -6.3804    2.2906 C.ar      1 <0>         0.1484
     13 C9          4.3473   -6.0836    2.3497 C.ar      1 <0>        -0.1002
     14 C10         5.1280   -6.6089    3.3605 C.ar      1 <0>        -0.0741
     15 C11         4.5660   -7.4364    4.3187 C.ar      1 <0>        -0.1065
     16 C12         3.2199   -7.7288    4.2833 C.ar      1 <0>        -0.0453
     17 C13         2.4126   -7.1893    3.2772 C.ar      1 <0>        -0.1310
     18 C14         0.9650   -7.4308    3.2944 C.2       1 <0>         0.5660
     19 O2          0.4220   -7.4585    4.3818 O.2       1 <0>        -0.5020
     20 N4          0.1966   -7.6210    2.2325 N.am      1 <0>        -0.6563
     21 C15         0.6007   -7.6588    0.9012 C.ar      1 <0>         0.1240
     22 C16         1.5531   -6.7799    0.4064 C.ar      1 <0>         0.2781
     23 N5          1.8594   -6.7924   -0.8838 N.ar      1 <0>        -0.4751
     24 C17         1.3134   -7.6512   -1.7224 C.ar      1 <0>         0.1160
     25 C18         0.3916   -8.5811   -1.2851 C.ar      1 <0>        -0.1227
     26 C19         0.0278   -8.5907    0.0409 C.ar      1 <0>        -0.0791
     27 H1          1.0047    1.8421    0.0024 H         1 <0>         0.0402
     28 H2         -0.5450    1.8259   -0.8730 H         1 <0>         0.0841
     29 H3         -0.5280    1.8163    0.9069 H         1 <0>         0.0845
     30 H4          0.0516   -0.1355   -2.0950 H         1 <0>         0.1271
     31 H5          1.6430   -0.1877   -1.2984 H         1 <0>         0.0626
     32 H6         -0.4855   -2.3730   -1.1840 H         1 <0>         0.1398
     33 H7          1.0127   -2.4272   -2.1434 H         1 <0>         0.1394
     34 H8         -0.3857   -2.3847    1.2013 H         1 <0>         0.1346
     35 H9          1.1874   -2.4478    2.0316 H         1 <0>         0.1491
     36 H10         1.7458   -0.1998    1.1589 H         1 <0>         0.0634
     37 H11         0.2266   -0.1562    2.0862 H         1 <0>         0.1249
     38 H12         0.2194   -4.3646    0.0604 H         1 <0>         0.1577
     39 H13         1.6338   -4.3943   -1.0199 H         1 <0>         0.1742
     40 H14         4.7915   -5.4410    1.6039 H         1 <0>         0.1353
     41 H15         6.1812   -6.3738    3.4038 H         1 <0>         0.1444
     42 H16         5.1863   -7.8550    5.0974 H         1 <0>         0.1462
     43 H17         2.7883   -8.3754    5.0330 H         1 <0>         0.1472
     44 H18        -0.7502   -7.7480    2.4009 H         1 <0>         0.4187
     45 H19         1.5909   -7.6265   -2.7658 H         1 <0>         0.1794
     46 H20        -0.0363   -9.2928   -1.9757 H         1 <0>         0.1603
     47 H21        -0.6942   -9.3066    0.4050 H         1 <0>         0.1586
     48 H22         2.2406   -2.2435   -0.1027 H         1 <0>         0.4278
@<TRIPOS>BOND
     1    1    2 1
     2    1   27 1
     3    1   28 1
     4    1   29 1
     5    2    7 1
     6    2    3 1
     7    3    4 1
     8    3   30 1
     9    3   31 1
    10    4    5 1
    11    4   32 1
    12    4   33 1
    13    5    6 1
    14    5    8 1
    15    5   48 1
    16    6    7 1
    17    6   34 1
    18    6   35 1
    19    7   36 1
    20    7   37 1
    21    8    9 1
    22    8   38 1
    23    8   39 1
    24    9   10 2
    25    9   11 am
    26   11   22 1
    27   11   12 1
    28   12   17 ar
    29   12   13 ar
    30   13   14 ar
    31   13   40 1
    32   14   15 ar
    33   14   41 1
    34   15   16 ar
    35   15   42 1
    36   16   17 ar
    37   16   43 1
    38   17   18 1
    39   18   19 2
    40   18   20 am
    41   20   21 1
    42   20   44 1
    43   21   26 ar
    44   21   22 ar
    45   22   23 ar
    46   23   24 ar
    47   24   25 ar
    48   24   45 1
    49   25   26 ar
    50   25   46 1
    51   26   47 1
@<TRIPOS>MOLECULE
ZINC19632927
   47    50     0     0     0
SMALL
USER_CHARGES

@<TRIPOS>ATOM
      1 C1         -0.0178    1.4648    0.0101 C.3       1 <0>         0.0248
      2 N1          0.0021   -0.0041    0.0020 N.3       1 <0>        -0.5479
      3 C2          0.6031   -0.5158   -1.2375 C.3       1 <0>         0.0571
      4 C3          0.5329   -2.0447   -1.2421 C.3       1 <0>         0.0591
      5 N2          1.2373   -2.5683   -0.0634 N.3       1 <0>        -0.5228
      6 C4          0.6362   -2.0566    1.1762 C.3       1 <0>         0.0505
      7 C5          0.7064   -0.5277    1.1807 C.3       1 <0>         0.0599
      8 C6          1.2572   -4.0372   -0.0715 C.3       1 <0>         0.0451
      9 C7          2.1875   -4.5329    1.0055 C.2       1 <0>         0.5341
     10 O1          2.7761   -3.7405    1.7103 O.2       1 <0>        -0.4817
     11 N3          2.3656   -5.8566    1.1853 N.am      1 <0>        -0.5193
     12 C8          3.2191   -6.3265    2.1819 C.ar      1 <0>         0.1729
     13 C9          4.5622   -5.9787    2.1669 C.ar      1 <0>        -0.1042
     14 C10         5.4170   -6.4750    3.1313 C.ar      1 <0>        -0.0765
     15 C11         4.9406   -7.3239    4.1167 C.ar      1 <0>        -0.1213
     16 C12         3.6066   -7.6669    4.1551 C.ar      1 <0>        -0.0489
     17 C13         2.7249   -7.1575    3.1968 C.ar      1 <0>        -0.1413
     18 C14         1.2907   -7.4536    3.2934 C.2       1 <0>         0.5714
     19 O2          0.8103   -7.5027    4.4091 O.2       1 <0>        -0.5168
     20 N4          0.4724   -7.6719    2.2751 N.am      1 <0>        -0.6527
     21 C15         0.8031   -7.6933    0.9234 C.ar      1 <0>         0.1066
     22 C16         1.6928   -6.7786    0.3792 C.ar      1 <0>         0.3179
     23 N5          1.9273   -6.7785   -0.9260 N.ar      1 <0>        -0.4679
     24 C17         1.3685   -7.6566   -1.7356 C.ar      1 <0>         0.1140
     25 C18         0.5081   -8.6211   -1.2507 C.ar      1 <0>        -0.1400
     26 C19         0.2190   -8.6455    0.0935 C.ar      1 <0>        -0.0822
     27 H1          1.0047    1.8421    0.0024 H         1 <0>         0.0275
     28 H2         -0.5450    1.8259   -0.8730 H         1 <0>         0.0690
     29 H3         -0.5280    1.8163    0.9069 H         1 <0>         0.0692
     30 H4          0.0565   -0.1241   -2.0954 H         1 <0>         0.0824
     31 H5          1.6447   -0.1994   -1.2942 H         1 <0>         0.0451
     32 H6         -0.5098   -2.3609   -1.2128 H         1 <0>         0.0448
     33 H7          1.0041   -2.4277   -2.1472 H         1 <0>         0.0835
     34 H8         -0.4053   -2.3729    1.2329 H         1 <0>         0.0384
     35 H9          1.1828   -2.4483    2.0340 H         1 <0>         0.0945
     36 H10         1.7492   -0.2115    1.1515 H         1 <0>         0.0462
     37 H11         0.2352   -0.1447    2.0859 H         1 <0>         0.0803
     38 H12         0.2519   -4.4152    0.1146 H         1 <0>         0.0611
     39 H13         1.6043   -4.3905   -1.0424 H         1 <0>         0.1222
     40 H14         4.9398   -5.3192    1.3995 H         1 <0>         0.1359
     41 H15         6.4613   -6.2003    3.1169 H         1 <0>         0.1387
     42 H16         5.6185   -7.7193    4.8587 H         1 <0>         0.1391
     43 H17         3.2419   -8.3300    4.9256 H         1 <0>         0.1408
     44 H18        -0.4582   -7.8347    2.4953 H         1 <0>         0.4144
     45 H19         1.5866   -7.6205   -2.7927 H         1 <0>         0.1727
     46 H20         0.0697   -9.3478   -1.9185 H         1 <0>         0.1527
     47 H21        -0.4542   -9.3885    0.4949 H         1 <0>         0.1514
@<TRIPOS>BOND
     1    1    2 1
     2    1   27 1
     3    1   28 1
     4    1   29 1
     5    2    7 1
     6    2    3 1
     7    3    4 1
     8    3   30 1
     9    3   31 1
    10    4    5 1
    11    4   32 1
    12    4   33 1
    13    5    6 1
    14    5    8 1
    15    6    7 1
    16    6   34 1
    17    6   35 1
    18    7   36 1
    19    7   37 1
    20    8    9 1
    21    8   38 1
    22    8   39 1
    23    9   10 2
    24    9   11 am
    25   11   22 1
    26   11   12 1
    27   12   17 ar
    28   12   13 ar
    29   13   14 ar
    30   13   40 1
    31   14   15 ar
    32   14   41 1
    33   15   16 ar
    34   15   42 1
    35   16   17 ar
    36   16   43 1
    37   17   18 1
    38   18   19 2
    39   18   20 am
    40   20   21 1
    41   20   44 1
    42   21   26 ar
    43   21   22 ar
    44   22   23 ar
    45   23   24 ar
    46   24   25 ar
    47   24   45 1
    48   25   26 ar
    49   25   46 1
    50   26   47 1
