@<TRIPOS>MOLECULE
ZINC01539579
   53    55     0     0     0
SMALL
USER_CHARGES

@<TRIPOS>ATOM
      1 C1         -0.0184    1.5028    0.0103 C.3       1 <0>        -0.1142
      2 C2          0.0021   -0.0041    0.0020 C.ar      1 <0>        -0.0728
      3 C3          0.0059   -0.6899   -1.1923 C.ar      1 <0>        -0.1203
      4 C4          0.0272   -2.0796   -1.2131 C.ar      1 <0>        -0.0621
      5 C5          0.0478   -2.7839   -0.0284 C.ar      1 <0>        -0.0668
      6 C6          0.0400   -2.1020    1.1788 C.ar      1 <0>        -0.0985
      7 C7          0.0231   -0.7112    1.2029 C.ar      1 <0>        -0.0418
      8 C8          0.0217    0.0137    2.4968 C.2       1 <0>        -0.0323
      9 C9          1.1360    0.6210    2.9254 C.2       1 <0>        -0.1735
     10 C10        -1.2120    0.0660    3.3151 C.ar      1 <0>        -0.0657
     11 C11        -1.7321   -1.1055    3.8683 C.ar      1 <0>        -0.1208
     12 C12        -2.8741   -1.0587    4.6256 C.ar      1 <0>        -0.0854
     13 C13        -3.5179    0.1638    4.8442 C.ar      1 <0>        -0.1283
     14 C14        -2.9954    1.3369    4.2896 C.ar      1 <0>        -0.0860
     15 C15        -1.8502    1.2876    3.5371 C.ar      1 <0>        -0.1227
     16 C16        -4.7457    0.2157    5.6574 C.2       1 <0>         0.5179
     17 O1         -5.2024   -0.8105    6.1417 O.co2     1 <0>        -0.6875
     18 O2         -5.3082    1.2850    5.8482 O.co2     1 <0>        -0.6876
     19 C17         0.0879   -4.2891    0.0190 C.3       1 <0>        -0.0214
     20 C18        -0.3365   -4.8809   -1.3234 C.3       1 <0>        -0.1116
     21 C19         0.4845   -4.2083   -2.4299 C.3       1 <0>        -0.1102
     22 C20         0.0227   -2.7583   -2.5584 C.3       1 <0>        -0.0222
     23 C21        -1.3949   -2.7293   -3.1333 C.3       1 <0>        -0.1396
     24 C22         0.9650   -2.0106   -3.5039 C.3       1 <0>        -0.1406
     25 C23         1.5115   -4.7458    0.3441 C.3       1 <0>        -0.1382
     26 C24        -0.8617   -4.7848    1.1115 C.3       1 <0>        -0.1446
     27 H1          1.0042    1.8801    0.0026 H         1 <0>         0.0670
     28 H2         -0.5455    1.8639   -0.8728 H         1 <0>         0.0624
     29 H3         -0.5286    1.8543    0.9071 H         1 <0>         0.0713
     30 H4         -0.0082   -0.1420   -2.1229 H         1 <0>         0.1199
     31 H5          0.0510   -2.6543    2.1068 H         1 <0>         0.1223
     32 H6          1.1350    1.1488    3.8676 H         1 <0>         0.1054
     33 H7          2.0354    0.5828    2.3288 H         1 <0>         0.0997
     34 H8         -1.2348   -2.0492    3.6994 H         1 <0>         0.1108
     35 H9         -3.2766   -1.9653    5.0528 H         1 <0>         0.1261
     36 H10        -3.4913    2.2814    4.4575 H         1 <0>         0.1267
     37 H11        -1.4443    2.1937    3.1122 H         1 <0>         0.1131
     38 H12        -0.1479   -5.9544   -1.3274 H         1 <0>         0.0657
     39 H13        -1.3975   -4.6935   -1.4882 H         1 <0>         0.0692
     40 H14         1.5426   -4.2350   -2.1697 H         1 <0>         0.0677
     41 H15         0.3248   -4.7295   -3.3738 H         1 <0>         0.0648
     42 H16        -1.7207   -1.6951   -3.2449 H         1 <0>         0.0557
     43 H17        -1.4023   -3.2196   -4.1068 H         1 <0>         0.0561
     44 H18        -2.0717   -3.2526   -2.4579 H         1 <0>         0.0592
     45 H19         1.9746   -2.0203   -3.0932 H         1 <0>         0.0553
     46 H20         0.9644   -2.4988   -4.4784 H         1 <0>         0.0559
     47 H21         0.6272   -0.9801   -3.6135 H         1 <0>         0.0581
     48 H22         1.8108   -4.3417    1.3112 H         1 <0>         0.0559
     49 H23         1.5446   -5.8348    0.3794 H         1 <0>         0.0567
     50 H24         2.1933   -4.3864   -0.4266 H         1 <0>         0.0564
     51 H25        -1.8760   -4.4531    0.8892 H         1 <0>         0.0587
     52 H26        -0.8356   -5.8738    1.1490 H         1 <0>         0.0570
     53 H27        -0.5501   -4.3805    2.0746 H         1 <0>         0.0598
@<TRIPOS>BOND
     1    1    2 1
     2    1   27 1
     3    1   28 1
     4    1   29 1
     5    2    7 ar
     6    2    3 ar
     7    3    4 ar
     8    3   30 1
     9    4   22 1
    10    4    5 ar
    11    5    6 ar
    12    5   19 1
    13    6    7 ar
    14    6   31 1
    15    7    8 1
    16    8    9 2
    17    8   10 1
    18    9   32 1
    19    9   33 1
    20   10   15 ar
    21   10   11 ar
    22   11   12 ar
    23   11   34 1
    24   12   13 ar
    25   12   35 1
    26   13   14 ar
    27   13   16 1
    28   14   15 ar
    29   14   36 1
    30   15   37 1
    31   16   17 2
    32   16   18 1
    33   19   20 1
    34   19   25 1
    35   19   26 1
    36   20   21 1
    37   20   38 1
    38   20   39 1
    39   21   22 1
    40   21   40 1
    41   21   41 1
    42   22   23 1
    43   22   24 1
    44   23   42 1
    45   23   43 1
    46   23   44 1
    47   24   45 1
    48   24   46 1
    49   24   47 1
    50   25   48 1
    51   25   49 1
    52   25   50 1
    53   26   51 1
    54   26   52 1
    55   26   53 1
@<TRIPOS>MOLECULE
ZINC01892655
   64    65     0     0     0
SMALL
USER_CHARGES
3-methyl-7-(5,5,8,8-tetramethyl-3-propoxy-tetralin-2-yl)-octa-2,4,6-trienoic acid
@<TRIPOS>ATOM
      1 C1          1.2679    0.9152   -2.2124 C.3       1 <0>        -0.1489
      2 C2          0.2710    1.4468   -1.1807 C.3       1 <0>        -0.1232
      3 C3          0.7206    1.0345    0.2224 C.3       1 <0>         0.0592
      4 O1         -0.2105    1.5310    1.1861 O.3       1 <0>        -0.3008
      5 C4          0.0435    1.2510    2.4895 C.ar      1 <0>         0.1431
      6 C5          1.1607    0.5162    2.8397 C.ar      1 <0>        -0.2099
      7 C6          1.4307    0.2243    4.1705 C.ar      1 <0>        -0.0233
      8 C7          0.5821    0.6745    5.1628 C.ar      1 <0>        -0.1001
      9 C8         -0.5432    1.4090    4.8300 C.ar      1 <0>        -0.0698
     10 C9         -0.8237    1.7103    3.4949 C.ar      1 <0>        -0.0709
     11 C10        -2.0151    2.4934    3.1459 C.2       1 <0>        -0.0952
     12 C11        -1.8884    3.7912    2.7745 C.2       1 <0>        -0.0936
     13 C12        -0.6141    4.3876    2.7235 C.2       1 <0>        -0.1397
     14 C13        -0.4868    5.6919    2.3502 C.2       1 <0>        -0.0861
     15 C14         0.7846    6.2870    2.2994 C.2       1 <0>        -0.0903
     16 C15         0.9119    7.5911    1.9261 C.2       1 <0>        -0.1510
     17 C16         2.1934    8.1459    1.7272 C.2       1 <0>         0.4663
     18 O2          3.1798    7.4343    1.7808 O.co2     1 <0>        -0.6275
     19 C17         2.0078    5.4830    2.6577 C.3       1 <0>        -0.0958
     20 C18        -3.3790    1.8550    3.2005 C.3       1 <0>        -0.1027
     21 C19         0.8308    0.4051    6.6244 C.3       1 <0>        -0.0171
     22 C20         1.8171   -0.7479    6.7979 C.3       1 <0>        -0.1098
     23 C21         3.0532   -0.4601    5.9377 C.3       1 <0>        -0.1121
     24 C22         2.6602   -0.5948    4.4683 C.3       1 <0>        -0.0236
     25 C23         2.3747   -2.0650    4.1553 C.3       1 <0>        -0.1370
     26 C24         3.8151   -0.1082    3.5907 C.3       1 <0>        -0.1431
     27 C25         1.4053    1.6632    7.2787 C.3       1 <0>        -0.1413
     28 C26        -0.4920    0.0438    7.3030 C.3       1 <0>        -0.1414
     29 H1          2.2554    1.3302   -2.0108 H         1 <0>         0.0589
     30 H2          1.3109   -0.1721   -2.1495 H         1 <0>         0.0543
     31 H3          0.9475    1.2089   -3.2121 H         1 <0>         0.0635
     32 H4         -0.7166    1.0319   -1.3823 H         1 <0>         0.0706
     33 H5          0.2280    2.5341   -1.2436 H         1 <0>         0.0769
     34 H6          0.7636   -0.0528    0.2854 H         1 <0>         0.0564
     35 H7          1.7082    1.4495    0.4241 H         1 <0>         0.0616
     36 H8          1.8313    0.1646    2.0695 H         1 <0>         0.1264
     37 H9         -1.2067    1.7555    5.6085 H         1 <0>         0.1270
     38 H10        -2.7650    4.3674    2.5177 H         1 <0>         0.1118
     39 H11         0.2625    3.8114    2.9803 H         1 <0>         0.1176
     40 H12        -1.3634    6.2681    2.0934 H         1 <0>         0.1090
     41 H13         0.0316    8.2001    1.7824 H         1 <0>         0.1036
     42 H14         2.4549    5.0776    1.7500 H         1 <0>         0.0604
     43 H15         2.7295    6.1250    3.1627 H         1 <0>         0.0876
     44 H16         1.7237    4.6648    3.3195 H         1 <0>         0.0343
     45 H17        -3.8045    1.9913    4.1947 H         1 <0>         0.0636
     46 H18        -4.0286    2.3219    2.4601 H         1 <0>         0.0628
     47 H19        -3.2905    0.7900    2.9860 H         1 <0>         0.0590
     48 H20         2.1089   -0.8270    7.8451 H         1 <0>         0.0652
     49 H21         1.3531   -1.6797    6.4747 H         1 <0>         0.0669
     50 H22         3.4076    0.5522    6.1315 H         1 <0>         0.0711
     51 H23         3.8401   -1.1761    6.1749 H         1 <0>         0.0655
     52 H24         2.1133   -2.1681    3.1021 H         1 <0>         0.0537
     53 H25         3.2619   -2.6610    4.3695 H         1 <0>         0.0572
     54 H26         1.5457   -2.4133    4.7713 H         1 <0>         0.0580
     55 H27         4.0155    0.9419    3.8032 H         1 <0>         0.0604
     56 H28         4.7066   -0.6984    3.8032 H         1 <0>         0.0575
     57 H29         3.5462   -0.2216    2.5405 H         1 <0>         0.0559
     58 H30         0.6954    2.4836    7.1741 H         1 <0>         0.0571
     59 H31         1.5866    1.4722    8.3364 H         1 <0>         0.0555
     60 H32         2.3432    1.9300    6.7917 H         1 <0>         0.0594
     61 H33        -0.9100   -0.8466    6.8334 H         1 <0>         0.0548
     62 H34        -0.3162   -0.1518    8.3608 H         1 <0>         0.0557
     63 H35        -1.1923    0.8725    7.1983 H         1 <0>         0.0585
     64 O3          2.3262    9.4663    1.4774 O.co2     1 <0>        -0.7720
@<TRIPOS>BOND
     1    1    2 1
     2    1   29 1
     3    1   30 1
     4    1   31 1
     5    2    3 1
     6    2   32 1
     7    2   33 1
     8    3    4 1
     9    3   34 1
    10    3   35 1
    11    4    5 1
    12    5   10 ar
    13    5    6 ar
    14    6    7 ar
    15    6   36 1
    16    7   24 1
    17    7    8 ar
    18    8    9 ar
    19    8   21 1
    20    9   10 ar
    21    9   37 1
    22   10   11 1
    23   11   12 2
    24   11   20 1
    25   12   13 1
    26   12   38 1
    27   13   14 2
    28   13   39 1
    29   14   15 1
    30   14   40 1
    31   15   16 2
    32   15   19 1
    33   16   17 1
    34   16   41 1
    35   17   18 2
    36   17   64 1
    37   19   42 1
    38   19   43 1
    39   19   44 1
    40   20   45 1
    41   20   46 1
    42   20   47 1
    43   21   22 1
    44   21   27 1
    45   21   28 1
    46   22   23 1
    47   22   48 1
    48   22   49 1
    49   23   24 1
    50   23   50 1
    51   23   51 1
    52   24   25 1
    53   24   26 1
    54   25   52 1
    55   25   53 1
    56   25   54 1
    57   26   55 1
    58   26   56 1
    59   26   57 1
    60   27   58 1
    61   27   59 1
    62   27   60 1
    63   28   61 1
    64   28   62 1
    65   28   63 1
@<TRIPOS>MOLECULE
ZINC03936873
   55    60     0     0     0
SMALL
USER_CHARGES

@<TRIPOS>ATOM
      1 C1         -0.0170    1.4035    0.0098 C.ar      1 <0>        -0.0944
      2 C2          1.1498    2.0982    0.0023 C.ar      1 <0>        -0.1211
      3 C3          2.3849    1.4303   -0.0130 C.ar      1 <0>        -0.0621
      4 C4          2.4374    0.0477   -0.0209 C.ar      1 <0>        -0.0910
      5 C5          1.2449   -0.6893   -0.0135 C.ar      1 <0>        -0.0504
      6 C6          0.0021   -0.0041    0.0020 C.ar      1 <0>        -0.0546
      7 C7         -1.1909   -0.7402    0.0089 C.ar      1 <0>        -0.0809
      8 C8         -1.1381   -2.1265    0.0006 C.ar      1 <0>        -0.1256
      9 C9          0.1015   -2.7941   -0.0148 C.ar      1 <0>        -0.0672
     10 C10         1.2655   -2.0977   -0.0217 C.ar      1 <0>        -0.1373
     11 C11        -2.3888   -2.9062    0.0083 C.2       1 <0>         0.5181
     12 O1         -3.4681   -2.3308    0.0220 O.co2     1 <0>        -0.6846
     13 O2         -2.3474   -4.1286    0.0010 O.co2     1 <0>        -0.6851
     14 C12         3.6438    2.2135   -0.0213 C.ar      1 <0>        -0.0334
     15 C13         4.8745    1.5578   -0.0424 C.ar      1 <0>        -0.1058
     16 C14         6.0432    2.2889   -0.0500 C.ar      1 <0>        -0.1383
     17 C15         5.9959    3.6768   -0.0368 C.ar      1 <0>         0.1002
     18 C16         4.7723    4.3325   -0.0159 C.ar      1 <0>        -0.0908
     19 C17         3.5996    3.6069   -0.0139 C.ar      1 <0>        -0.1017
     20 C18         4.7256    5.8387   -0.0011 C.3       1 <0>        -0.0018
     21 C19         3.2681    6.3035    0.0209 C.3       1 <0>        -0.1076
     22 C20         3.2207    7.8327    0.0359 C.3       1 <0>        -0.0855
     23 C21         3.9408    8.3531    1.2815 C.3       1 <0>        -0.1092
     24 C22         5.3983    7.8883    1.2595 C.3       1 <0>        -0.0857
     25 C23         5.4457    6.3591    1.2445 C.3       1 <0>        -0.1007
     26 C24         6.0883    8.4322    0.0070 C.3       1 <0>        -0.1064
     27 C25         5.3682    7.9118   -1.2387 C.3       1 <0>        -0.0841
     28 C26         3.9107    8.3767   -1.2167 C.3       1 <0>        -0.1086
     29 C27         5.4156    6.3826   -1.2537 C.3       1 <0>        -0.1009
     30 O3          7.1495    4.3944   -0.0439 O.3       1 <0>        -0.4920
     31 H1         -0.9594    1.9308    0.0261 H         1 <0>         0.1262
     32 H2          1.1276    3.1780    0.0080 H         1 <0>         0.1187
     33 H3          3.3904   -0.4602   -0.0331 H         1 <0>         0.1244
     34 H4         -2.1438   -0.2321    0.0211 H         1 <0>         0.1336
     35 H5          0.1259   -3.8738   -0.0208 H         1 <0>         0.1296
     36 H6          2.2088   -2.6235   -0.0334 H         1 <0>         0.1204
     37 H7          4.9119    0.4785   -0.0523 H         1 <0>         0.1286
     38 H8          6.9966    1.7817   -0.0659 H         1 <0>         0.1272
     39 H9          2.6480    4.1176   -0.0022 H         1 <0>         0.1335
     40 H10         2.7551    5.9328   -0.8665 H         1 <0>         0.0655
     41 H11         2.7765    5.9160    0.9132 H         1 <0>         0.0661
     42 H12         2.1823    8.1639    0.0515 H         1 <0>         0.0698
     43 H13         3.9070    9.4425    1.2922 H         1 <0>         0.0596
     44 H14         3.4492    7.9656    2.1738 H         1 <0>         0.0612
     45 H15         5.9113    8.2590    2.1469 H         1 <0>         0.0677
     46 H16         4.9541    5.9715    2.1369 H         1 <0>         0.0576
     47 H17         6.4841    6.0279    1.2289 H         1 <0>         0.0815
     48 H18         6.0545    9.5216    0.0177 H         1 <0>         0.0588
     49 H19         7.1266    8.1010   -0.0087 H         1 <0>         0.0617
     50 H20         5.8597    8.2994   -2.1310 H         1 <0>         0.0682
     51 H21         3.3977    8.0059   -2.1041 H         1 <0>         0.0612
     52 H22         3.8769    9.4661   -1.2060 H         1 <0>         0.0604
     53 H23         6.4540    6.0515   -1.2693 H         1 <0>         0.0648
     54 H24         4.9026    6.0119   -2.1411 H         1 <0>         0.0608
     55 H25         7.4730    4.6102   -0.9293 H         1 <0>         0.3815
@<TRIPOS>BOND
     1    1    6 ar
     2    1    2 ar
     3    1   31 1
     4    2    3 ar
     5    2   32 1
     6    3    4 ar
     7    3   14 1
     8    4    5 ar
     9    4   33 1
    10    5   10 ar
    11    5    6 ar
    12    6    7 ar
    13    7    8 ar
    14    7   34 1
    15    8    9 ar
    16    8   11 1
    17    9   10 ar
    18    9   35 1
    19   10   36 1
    20   11   12 2
    21   11   13 1
    22   14   19 ar
    23   14   15 ar
    24   15   16 ar
    25   15   37 1
    26   16   17 ar
    27   16   38 1
    28   17   18 ar
    29   17   30 1
    30   18   19 ar
    31   18   20 1
    32   19   39 1
    33   20   25 1
    34   20   29 1
    35   20   21 1
    36   21   22 1
    37   21   40 1
    38   21   41 1
    39   22   28 1
    40   22   23 1
    41   22   42 1
    42   23   24 1
    43   23   43 1
    44   23   44 1
    45   24   25 1
    46   24   26 1
    47   24   45 1
    48   25   46 1
    49   25   47 1
    50   26   27 1
    51   26   48 1
    52   26   49 1
    53   27   28 1
    54   27   29 1
    55   27   50 1
    56   28   51 1
    57   28   52 1
    58   29   53 1
    59   29   54 1
    60   30   55 1
@<TRIPOS>MOLECULE
ZINC03784182
   58    63     0     0     0
SMALL
USER_CHARGES

@<TRIPOS>ATOM
      1 C1         -0.0173    1.4248    0.0099 C.3       1 <0>         0.0235
      2 O1          0.0021   -0.0041    0.0020 O.3       1 <0>        -0.3074
      3 C2          0.6056   -0.6069   -1.0553 C.ar      1 <0>         0.1256
      4 C3          1.1725    0.1642   -2.0617 C.ar      1 <0>        -0.2022
      5 C4          1.7856   -0.4445   -3.1359 C.ar      1 <0>        -0.0802
      6 C5          1.8362   -1.8361   -3.2114 C.ar      1 <0>        -0.0638
      7 C6          1.2662   -2.6074   -2.1996 C.ar      1 <0>        -0.0777
      8 C7          0.6593   -1.9925   -1.1248 C.ar      1 <0>        -0.0986
      9 C8          0.0487   -2.8254   -0.0272 C.3       1 <0>         0.0029
     10 C9         -1.4466   -2.5176    0.0747 C.3       1 <0>        -0.0996
     11 C10        -2.0665   -3.3631    1.1890 C.3       1 <0>        -0.0847
     12 C11        -1.8718   -4.8471    0.8715 C.3       1 <0>        -0.1086
     13 C12        -0.3765   -5.1549    0.7695 C.3       1 <0>        -0.0851
     14 C13         0.2434   -4.3093   -0.3448 C.3       1 <0>        -0.1077
     15 C14         0.3041   -4.8243    2.0993 C.3       1 <0>        -0.1086
     16 C15         0.1094   -3.3403    2.4168 C.3       1 <0>        -0.0847
     17 C16        -1.3859   -3.0326    2.5188 C.3       1 <0>        -0.1054
     18 C17         0.7293   -2.4948    1.3026 C.3       1 <0>        -0.0996
     19 C18         2.4944   -2.4940   -4.3656 C.ar      1 <0>        -0.0533
     20 C19         2.5359   -3.8962   -4.4369 C.ar      1 <0>        -0.1233
     21 C20         3.1327   -4.5223   -5.4834 C.ar      1 <0>        -0.0935
     22 C21         3.7196   -3.7646   -6.5151 C.ar      1 <0>        -0.0573
     23 C22         4.3402   -4.3914   -7.6046 C.ar      1 <0>        -0.0797
     24 C23         4.9089   -3.6166   -8.6051 C.ar      1 <0>        -0.1277
     25 C24         4.8662   -2.2111   -8.5314 C.ar      1 <0>        -0.0669
     26 C25         4.2697   -1.5883   -7.4845 C.ar      1 <0>        -0.1387
     27 C26         3.6830   -2.3474   -6.4533 C.ar      1 <0>        -0.0482
     28 C27         3.0572   -1.7215   -5.3656 C.ar      1 <0>        -0.0975
     29 C28         5.5629   -4.2694   -9.7533 C.2       1 <0>         0.5183
     30 O2          5.6029   -5.4901   -9.8215 O.co2     1 <0>        -0.6851
     31 O3          6.0657   -3.5906  -10.6379 O.co2     1 <0>        -0.6857
     32 H1          1.0053    1.8021    0.0021 H         1 <0>         0.0537
     33 H2         -0.5445    1.7859   -0.8732 H         1 <0>         0.0537
     34 H3         -0.5275    1.7763    0.9067 H         1 <0>         0.0967
     35 H4          1.1327    1.2419   -2.0028 H         1 <0>         0.1269
     36 H5          2.2260    0.1557   -3.9184 H         1 <0>         0.1269
     37 H6          1.3034   -3.6853   -2.2554 H         1 <0>         0.1360
     38 H7         -1.5853   -1.4604    0.3009 H         1 <0>         0.0758
     39 H8         -1.9314   -2.7531   -0.8727 H         1 <0>         0.0574
     40 H9         -3.1317   -3.1439    1.2616 H         1 <0>         0.0665
     41 H10        -2.3134   -5.4495    1.6653 H         1 <0>         0.0591
     42 H11        -2.3566   -5.0826   -0.0759 H         1 <0>         0.0609
     43 H12        -0.2378   -6.2121    0.5433 H         1 <0>         0.0692
     44 H13        -0.2415   -4.5449   -1.2921 H         1 <0>         0.0655
     45 H14         1.3086   -4.5286   -0.4174 H         1 <0>         0.0655
     46 H15        -0.1376   -5.4267    2.8931 H         1 <0>         0.0591
     47 H16         1.3693   -5.0436    2.0267 H         1 <0>         0.0609
     48 H17         0.5942   -3.1048    3.3642 H         1 <0>         0.0665
     49 H18        -1.5246   -1.9753    2.7450 H         1 <0>         0.0608
     50 H19        -1.8275   -3.6350    3.3126 H         1 <0>         0.0575
     51 H20         1.7945   -2.7140    1.2299 H         1 <0>         0.0574
     52 H21         0.5905   -1.4376    1.5288 H         1 <0>         0.0757
     53 H22         2.0879   -4.4837   -3.6492 H         1 <0>         0.1184
     54 H23         3.1576   -5.6012   -5.5245 H         1 <0>         0.1257
     55 H24         4.3758   -5.4691   -7.6645 H         1 <0>         0.1332
     56 H25         5.3141   -1.6219   -9.3179 H         1 <0>         0.1289
     57 H26         4.2447   -0.5095   -7.4415 H         1 <0>         0.1195
     58 H27         3.0181   -0.6438   -5.3073 H         1 <0>         0.1229
@<TRIPOS>BOND
     1    1    2 1
     2    1   32 1
     3    1   33 1
     4    1   34 1
     5    2    3 1
     6    3    8 ar
     7    3    4 ar
     8    4    5 ar
     9    4   35 1
    10    5    6 ar
    11    5   36 1
    12    6    7 ar
    13    6   19 1
    14    7    8 ar
    15    7   37 1
    16    8    9 1
    17    9   14 1
    18    9   18 1
    19    9   10 1
    20   10   11 1
    21   10   38 1
    22   10   39 1
    23   11   17 1
    24   11   12 1
    25   11   40 1
    26   12   13 1
    27   12   41 1
    28   12   42 1
    29   13   14 1
    30   13   15 1
    31   13   43 1
    32   14   44 1
    33   14   45 1
    34   15   16 1
    35   15   46 1
    36   15   47 1
    37   16   17 1
    38   16   18 1
    39   16   48 1
    40   17   49 1
    41   17   50 1
    42   18   51 1
    43   18   52 1
    44   19   28 ar
    45   19   20 ar
    46   20   21 ar
    47   20   53 1
    48   21   22 ar
    49   21   54 1
    50   22   27 ar
    51   22   23 ar
    52   23   24 ar
    53   23   55 1
    54   24   25 ar
    55   24   29 1
    56   25   26 ar
    57   25   56 1
    58   26   27 ar
    59   26   57 1
    60   27   28 ar
    61   28   58 1
    62   29   30 2
    63   29   31 1
@<TRIPOS>MOLECULE
ZINC01542199
   46    48     0     0     0
SMALL
USER_CHARGES

@<TRIPOS>ATOM
      1 C1         -0.0187    1.5258    0.0104 C.3       1 <0>        -0.1536
      2 C2          0.0021   -0.0041    0.0020 C.3       1 <0>         0.0613
      3 O1          0.6709   -0.4649   -1.1737 O.3       1 <0>        -0.3472
      4 C3          0.7759   -1.7988   -1.3348 C.2       1 <0>         0.5156
      5 O2          0.3121   -2.5500   -0.4998 O.2       1 <0>        -0.4982
      6 C4          1.4533   -2.3466   -2.5240 C.ar      1 <0>        -0.1784
      7 C5          1.5626   -3.7349   -2.7036 C.ar      1 <0>        -0.0058
      8 C6          2.1990   -4.2012   -3.8213 C.ar      1 <0>        -0.1547
      9 C7          2.7187   -3.2871   -4.7461 C.ar      1 <0>         0.2724
     10 N1          2.5999   -1.9753   -4.5489 N.ar      1 <0>        -0.4745
     11 C8          1.9900   -1.4905   -3.4901 C.ar      1 <0>         0.1697
     12 C9          3.3864   -3.7687   -5.9178 C.1       1 <0>        -0.1297
     13 C10         3.9338   -4.1634   -6.8784 C.1       1 <0>        -0.0528
     14 C11         4.6016   -4.6449   -8.0501 C.ar      1 <0>        -0.0009
     15 C12         4.7284   -6.0213   -8.2715 C.ar      1 <0>        -0.0740
     16 C13         5.3792   -6.4648   -9.3959 C.ar      1 <0>        -0.0993
     17 C14         5.9089   -5.5592  -10.3206 C.ar      1 <0>        -0.0584
     18 C15         5.7763   -4.1949  -10.1182 C.ar      1 <0>        -0.0713
     19 C16         5.1233   -3.7450   -8.9784 C.ar      1 <0>        -0.0739
     20 C17         6.2673   -3.1412  -11.0668 C.3       1 <0>        -0.0300
     21 C18         7.4062   -3.6044  -11.9579 C.3       1 <0>        -0.1133
     22 C19         6.9214   -4.7766  -12.8234 C.3       1 <0>        -0.1112
     23 S1          6.7485   -6.2162  -11.7282 S.3       1 <0>        -0.1157
     24 C20         5.1011   -2.7000  -11.9535 C.3       1 <0>        -0.1461
     25 C21         6.7419   -1.9348  -10.2543 C.3       1 <0>        -0.1453
     26 H1          1.0039    1.9031    0.0027 H         1 <0>         0.0683
     27 H2         -0.5459    1.8868   -0.8726 H         1 <0>         0.0683
     28 H3         -0.5289    1.8773    0.9072 H         1 <0>         0.0821
     29 H4          0.5293   -0.3651    0.8851 H         1 <0>         0.0707
     30 H5         -1.0205   -0.3814    0.0098 H         1 <0>         0.0707
     31 H6          1.1535   -4.4195   -1.9754 H         1 <0>         0.1570
     32 H7          2.2999   -5.2634   -3.9885 H         1 <0>         0.1527
     33 H8          1.9070   -0.4213   -3.3630 H         1 <0>         0.1796
     34 H9          4.3185   -6.7274   -7.5645 H         1 <0>         0.1359
     35 H10         5.4837   -7.5258   -9.5683 H         1 <0>         0.1358
     36 H11         5.0222   -2.6836   -8.8063 H         1 <0>         0.1350
     37 H12         7.7230   -2.7832  -12.6009 H         1 <0>         0.0877
     38 H13         8.2434   -3.9292  -11.3402 H         1 <0>         0.0808
     39 H14         5.9583   -4.5335  -13.2720 H         1 <0>         0.0992
     40 H15         7.6524   -4.9893  -13.6035 H         1 <0>         0.1146
     41 H16         4.3037   -2.2953  -11.3303 H         1 <0>         0.0619
     42 H17         5.4432   -1.9335  -12.6489 H         1 <0>         0.0658
     43 H18         4.7257   -3.5567  -12.5130 H         1 <0>         0.0592
     44 H19         7.5494   -2.2399   -9.5887 H         1 <0>         0.0613
     45 H20         7.1020   -1.1599  -10.9310 H         1 <0>         0.0644
     46 H21         5.9124   -1.5450   -9.6643 H         1 <0>         0.0638
@<TRIPOS>BOND
     1    1    2 1
     2    1   26 1
     3    1   27 1
     4    1   28 1
     5    2    3 1
     6    2   29 1
     7    2   30 1
     8    3    4 1
     9    4    5 2
    10    4    6 1
    11    6   11 ar
    12    6    7 ar
    13    7    8 ar
    14    7   31 1
    15    8    9 ar
    16    8   32 1
    17    9   10 ar
    18    9   12 1
    19   10   11 ar
    20   11   33 1
    21   12   13 3
    22   13   14 1
    23   14   19 ar
    24   14   15 ar
    25   15   16 ar
    26   15   34 1
    27   16   17 ar
    28   16   35 1
    29   17   23 1
    30   17   18 ar
    31   18   19 ar
    32   18   20 1
    33   19   36 1
    34   20   21 1
    35   20   24 1
    36   20   25 1
    37   21   22 1
    38   21   37 1
    39   21   38 1
    40   22   23 1
    41   22   39 1
    42   22   40 1
    43   24   41 1
    44   24   42 1
    45   24   43 1
    46   25   44 1
    47   25   45 1
    48   25   46 1
@<TRIPOS>MOLECULE
ZINC05762194
   52    55     0     0     0
SMALL
USER_CHARGES
6-(5,5,8,8-tetramethyltetralin-2-yl)naphthalene-2-carboxylic acid
@<TRIPOS>ATOM
      1 C1          3.9463   -1.2963    1.3948 C.3       1 <0>        -0.1390
      2 C2          3.6853   -0.7627   -0.0152 C.3       1 <0>        -0.0224
      3 C3          4.8622    0.1079   -0.4499 C.3       1 <0>        -0.1115
      4 C4          4.8545    1.3885    0.3932 C.3       1 <0>        -0.1110
      5 C5          3.6560    2.2357   -0.0293 C.3       1 <0>        -0.0228
      6 C6          2.3939    1.4131   -0.0133 C.ar      1 <0>        -0.0598
      7 C7          2.4069    0.0348   -0.0157 C.ar      1 <0>        -0.0685
      8 C8          1.2082   -0.6689   -0.0105 C.ar      1 <0>        -0.1155
      9 C9          0.0021   -0.0041    0.0020 C.ar      1 <0>        -0.1162
     10 C10        -0.0168    1.3895    0.0097 C.ar      1 <0>        -0.0329
     11 C11         1.1844    2.0910    0.0020 C.ar      1 <0>        -0.1119
     12 C12        -1.3081    2.1191    0.0198 C.ar      1 <0>        -0.0576
     13 C13        -1.3138    3.5235    0.0333 C.ar      1 <0>        -0.1211
     14 C14        -2.4826    4.2146    0.0376 C.ar      1 <0>        -0.0943
     15 C15        -3.7089    3.5231    0.0397 C.ar      1 <0>        -0.0562
     16 C16        -4.9272    4.2174    0.0501 C.ar      1 <0>        -0.0806
     17 C17        -6.1175    3.5073    0.0528 C.ar      1 <0>        -0.1053
     18 C18        -6.1098    2.1003    0.0448 C.ar      1 <0>        -0.0623
     19 C19        -4.9407    1.4117    0.0342 C.ar      1 <0>        -0.1371
     20 C20        -3.7147    2.1043    0.0316 C.ar      1 <0>        -0.0470
     21 C21        -2.4956    1.4107    0.0216 C.ar      1 <0>        -0.0932
     22 C22        -7.4031    4.2327    0.0638 C.2       1 <0>         0.4873
     23 O1         -7.4151    5.4475    0.0707 O.co2     1 <0>        -0.6290
     24 C23         3.8906    2.7723   -1.4427 C.3       1 <0>        -0.1397
     25 C24         3.5038    3.4120    0.9372 C.3       1 <0>        -0.1432
     26 C25         3.5454   -1.9407   -0.9815 C.3       1 <0>        -0.1420
     27 H1          3.1175   -1.9345    1.7009 H         1 <0>         0.0558
     28 H2          4.8707   -1.8740    1.3993 H         1 <0>         0.0565
     29 H3          4.0369   -0.4605    2.0886 H         1 <0>         0.0580
     30 H4          4.7604    0.3624   -1.5049 H         1 <0>         0.0686
     31 H5          5.7964   -0.4307   -0.2908 H         1 <0>         0.0654
     32 H6          5.7759    1.9455    0.2234 H         1 <0>         0.0660
     33 H7          4.7690    1.1323    1.4492 H         1 <0>         0.0685
     34 H8          1.2228   -1.7487   -0.0167 H         1 <0>         0.1211
     35 H9         -0.9241   -0.5596    0.0055 H         1 <0>         0.1238
     36 H10         1.1749    3.1709    0.0076 H         1 <0>         0.1251
     37 H11        -0.3768    4.0605    0.0362 H         1 <0>         0.1188
     38 H12        -2.4715    5.2945    0.0442 H         1 <0>         0.1261
     39 H13        -4.9380    5.2974    0.0559 H         1 <0>         0.1337
     40 H14        -7.0459    1.5618    0.0468 H         1 <0>         0.1334
     41 H15        -4.9504    0.3318    0.0282 H         1 <0>         0.1219
     42 H16        -2.4844    0.3307    0.0157 H         1 <0>         0.1248
     43 H17         3.0459    3.3936   -1.7404 H         1 <0>         0.0570
     44 H18         4.8032    3.3682   -1.4583 H         1 <0>         0.0572
     45 H19         3.9899    1.9375   -2.1365 H         1 <0>         0.0578
     46 H20         3.3267    3.0343    1.9442 H         1 <0>         0.0568
     47 H21         4.4153    4.0097    0.9285 H         1 <0>         0.0574
     48 H22         2.6611    4.0300    0.6276 H         1 <0>         0.0595
     49 H23         3.3493   -1.5654   -1.9859 H         1 <0>         0.0563
     50 H24         4.4685   -2.5203   -0.9839 H         1 <0>         0.0564
     51 H25         2.7186   -2.5756   -0.6630 H         1 <0>         0.0587
     52 O2         -8.5632    3.5475    0.0660 O.co2     1 <0>        -0.7521
@<TRIPOS>BOND
     1    1    2 1
     2    1   27 1
     3    1   28 1
     4    1   29 1
     5    2    7 1
     6    2    3 1
     7    2   26 1
     8    3    4 1
     9    3   30 1
    10    3   31 1
    11    4    5 1
    12    4   32 1
    13    4   33 1
    14    5    6 1
    15    5   24 1
    16    5   25 1
    17    6   11 ar
    18    6    7 ar
    19    7    8 ar
    20    8    9 ar
    21    8   34 1
    22    9   10 ar
    23    9   35 1
    24   10   11 ar
    25   10   12 1
    26   11   36 1
    27   12   21 ar
    28   12   13 ar
    29   13   14 ar
    30   13   37 1
    31   14   15 ar
    32   14   38 1
    33   15   20 ar
    34   15   16 ar
    35   16   17 ar
    36   16   39 1
    37   17   18 ar
    38   17   22 1
    39   18   19 ar
    40   18   40 1
    41   19   20 ar
    42   19   41 1
    43   20   21 ar
    44   21   42 1
    45   22   23 2
    46   22   52 1
    47   24   43 1
    48   24   44 1
    49   24   45 1
    50   25   46 1
    51   25   47 1
    52   25   48 1
    53   26   49 1
    54   26   50 1
    55   26   51 1
@<TRIPOS>MOLECULE
ZINC04475360
   53    55     0     0     0
SMALL
USER_CHARGES

@<TRIPOS>ATOM
      1 C1         -0.6726    1.3902    0.0708 C.3       1 <0>        -0.1130
      2 C2         -0.1822   -0.0338    0.0192 C.2       1 <0>        -0.1017
      3 C3          0.1237   -0.6810    1.1570 C.2       1 <0>        -0.0866
      4 C4          0.1262    0.0436    2.4377 C.ar      1 <0>        -0.0792
      5 C5         -0.2630   -0.6103    3.6126 C.ar      1 <0>        -0.1209
      6 C6         -0.2607    0.0620    4.8007 C.ar      1 <0>        -0.0901
      7 C7          0.1303    1.4053    4.8440 C.ar      1 <0>        -0.1241
      8 C8          0.5195    2.0592    3.6692 C.ar      1 <0>        -0.0915
      9 C9          0.5232    1.3852    2.4821 C.ar      1 <0>        -0.1251
     10 C10         0.1318    2.1308    6.1256 C.2       1 <0>         0.5167
     11 O1         -0.2087    1.5594    7.1524 O.co2     1 <0>        -0.6874
     12 O2          0.4736    3.3048    6.1635 O.co2     1 <0>        -0.6872
     13 C11        -0.0380   -0.7167   -1.2783 C.ar      1 <0>        -0.0375
     14 C12         1.2245   -1.1109   -1.7311 C.ar      1 <0>        -0.1096
     15 C13         1.3430   -1.7451   -2.9462 C.ar      1 <0>        -0.1183
     16 C14         0.2213   -2.0002   -3.7285 C.ar      1 <0>        -0.0673
     17 C15        -1.0274   -1.6187   -3.2860 C.ar      1 <0>        -0.0622
     18 C16        -1.1604   -0.9806   -2.0628 C.ar      1 <0>        -0.1067
     19 C17        -2.2825   -1.8800   -4.0774 C.3       1 <0>        -0.0225
     20 C18        -1.9453   -2.1845   -5.5354 C.3       1 <0>        -0.1110
     21 C19        -0.8758   -3.2826   -5.5654 C.3       1 <0>        -0.1114
     22 C20         0.4350   -2.6924   -5.0499 C.3       1 <0>        -0.0227
     23 C21         0.9682   -1.6824   -6.0680 C.3       1 <0>        -0.1389
     24 C22         1.4584   -3.8156   -4.8714 C.3       1 <0>        -0.1420
     25 C23        -3.0220   -3.0741   -3.4707 C.3       1 <0>        -0.1397
     26 C24        -3.1840   -0.6453   -4.0155 C.3       1 <0>        -0.1430
     27 H1          0.1792    2.0694    0.0348 H         1 <0>         0.0694
     28 H2         -1.3254    1.5808   -0.7810 H         1 <0>         0.0555
     29 H3         -1.2263    1.5505    0.9959 H         1 <0>         0.0763
     30 H4          0.3677   -1.7328    1.1312 H         1 <0>         0.1147
     31 H5         -0.5654   -1.6465    3.5791 H         1 <0>         0.1138
     32 H6         -0.5610   -0.4425    5.7072 H         1 <0>         0.1260
     33 H7          0.8212    3.0956    3.7027 H         1 <0>         0.1260
     34 H8          0.8277    1.8885    1.5763 H         1 <0>         0.1227
     35 H9          2.1015   -0.9185   -1.1309 H         1 <0>         0.1218
     36 H10         2.3184   -2.0482   -3.2971 H         1 <0>         0.1203
     37 H11        -2.1389   -0.6818   -1.7171 H         1 <0>         0.1221
     38 H12        -2.8396   -2.5288   -6.0549 H         1 <0>         0.0658
     39 H13        -1.5624   -1.2859   -6.0191 H         1 <0>         0.0683
     40 H14        -1.1819   -4.1108   -4.9261 H         1 <0>         0.0685
     41 H15        -0.7420   -3.6371   -6.5874 H         1 <0>         0.0654
     42 H16         1.9140   -1.2732   -5.7128 H         1 <0>         0.0557
     43 H17         1.1241   -2.1794   -7.0255 H         1 <0>         0.0564
     44 H18         0.2464   -0.8749   -6.1910 H         1 <0>         0.0579
     45 H19         1.0869   -4.5327   -4.1394 H         1 <0>         0.0562
     46 H20         1.6157   -4.3188   -5.8254 H         1 <0>         0.0564
     47 H21         2.4017   -3.3956   -4.5223 H         1 <0>         0.0587
     48 H22        -3.2822   -2.8527   -2.4357 H         1 <0>         0.0570
     49 H23        -3.9310   -3.2664   -4.0407 H         1 <0>         0.0570
     50 H24        -2.3796   -3.9541   -3.5036 H         1 <0>         0.0575
     51 H25        -2.6574    0.2106   -4.4377 H         1 <0>         0.0562
     52 H26        -4.0934   -0.8304   -4.5872 H         1 <0>         0.0570
     53 H27        -3.4434   -0.4364   -2.9777 H         1 <0>         0.0600
@<TRIPOS>BOND
     1    1    2 1
     2    1   27 1
     3    1   28 1
     4    1   29 1
     5    2    3 2
     6    2   13 1
     7    3    4 1
     8    3   30 1
     9    4    9 ar
    10    4    5 ar
    11    5    6 ar
    12    5   31 1
    13    6    7 ar
    14    6   32 1
    15    7    8 ar
    16    7   10 1
    17    8    9 ar
    18    8   33 1
    19    9   34 1
    20   10   11 2
    21   10   12 1
    22   13   18 ar
    23   13   14 ar
    24   14   15 ar
    25   14   35 1
    26   15   16 ar
    27   15   36 1
    28   16   22 1
    29   16   17 ar
    30   17   18 ar
    31   17   19 1
    32   18   37 1
    33   19   20 1
    34   19   25 1
    35   19   26 1
    36   20   21 1
    37   20   38 1
    38   20   39 1
    39   21   22 1
    40   21   40 1
    41   21   41 1
    42   22   23 1
    43   22   24 1
    44   23   42 1
    45   23   43 1
    46   23   44 1
    47   24   45 1
    48   24   46 1
    49   24   47 1
    50   25   48 1
    51   25   49 1
    52   25   50 1
    53   26   51 1
    54   26   52 1
    55   26   53 1
@<TRIPOS>MOLECULE
ZINC03873121
   55    58     0     0     0
SMALL
USER_CHARGES
6-[1-(3,5,5,8,8-pentamethyltetralin-2-yl)cyclopropyl]pyridine-3-carboxylic acid
@<TRIPOS>ATOM
      1 C1          3.8982    6.1941    0.4554 C.3       1 <0>        -0.1214
      2 C2          3.7381    7.5328   -0.2177 C.ar      1 <0>        -0.0654
      3 C3          4.8501    8.2353   -0.6348 C.ar      1 <0>        -0.1205
      4 C4          4.7131    9.4720   -1.2513 C.ar      1 <0>        -0.0608
      5 C5          3.4563    9.9959   -1.4575 C.ar      1 <0>        -0.0693
      6 C6          2.3384    9.2863   -1.0389 C.ar      1 <0>        -0.1038
      7 C7          2.4767    8.0589   -0.4241 C.ar      1 <0>        -0.0410
      8 C8          1.2569    7.2972    0.0264 C.3       1 <0>        -0.0414
      9 C9         -0.0240    7.4659   -0.7932 C.3       1 <0>        -0.1535
     10 C10         0.7659    6.1569   -0.8676 C.3       1 <0>        -0.1441
     11 C11         1.1119    7.1250    1.5165 C.ar      1 <0>         0.1567
     12 C12         1.9311    7.8453    2.3676 C.ar      1 <0>        -0.1754
     13 C13         1.7951    7.6852    3.7350 C.ar      1 <0>        -0.0452
     14 C14         0.8241    6.7918    4.2053 C.ar      1 <0>        -0.1647
     15 C15         0.0412    6.0991    3.2804 C.ar      1 <0>         0.1382
     16 N1          0.2056    6.2901    1.9879 N.ar      1 <0>        -0.4969
     17 C16         0.6362    6.5816    5.6554 C.2       1 <0>         0.4940
     18 O1          1.3267    7.1861    6.4512 O.co2     1 <0>        -0.6289
     19 C17         3.2323   11.3224   -2.1351 C.3       1 <0>        -0.0206
     20 C18         4.5161   12.1497   -2.1341 C.3       1 <0>        -0.1114
     21 C19         5.6522   11.2815   -2.6875 C.3       1 <0>        -0.1102
     22 C20         5.9695   10.1932   -1.6640 C.3       1 <0>        -0.0221
     23 C21         6.6126   10.8319   -0.4314 C.3       1 <0>        -0.1397
     24 C22         6.9475    9.1908   -2.2801 C.3       1 <0>        -0.1412
     25 C23         2.7879   11.0824   -3.5794 C.3       1 <0>        -0.1380
     26 C24         2.1369   12.0898   -1.3921 C.3       1 <0>        -0.1433
     27 H1          3.9807    5.4143   -0.3017 H         1 <0>         0.0671
     28 H2          4.7989    6.2013    1.0691 H         1 <0>         0.0629
     29 H3          3.0307    5.9982    1.0856 H         1 <0>         0.0757
     30 H4          5.8352    7.8218   -0.4768 H         1 <0>         0.1205
     31 H5          1.3526    9.6985   -1.1962 H         1 <0>         0.1226
     32 H6         -0.9715    7.4523   -0.2547 H         1 <0>         0.1014
     33 H7          0.0157    8.1275   -1.6585 H         1 <0>         0.0943
     34 H8          1.3250    5.9578   -1.7819 H         1 <0>         0.0919
     35 H9          0.3380    5.2820   -0.3781 H         1 <0>         0.1083
     36 H10         2.6693    8.5252    1.9687 H         1 <0>         0.1254
     37 H11         2.4215    8.2346    4.4221 H         1 <0>         0.1355
     38 H12        -0.7084    5.4036    3.6279 H         1 <0>         0.1655
     39 H13         4.7528   12.4587   -1.1160 H         1 <0>         0.0689
     40 H14         4.3866   13.0299   -2.7640 H         1 <0>         0.0649
     41 H15         6.5361   11.8968   -2.8551 H         1 <0>         0.0647
     42 H16         5.3408   10.8231   -3.6261 H         1 <0>         0.0676
     43 H17         6.8583   10.0559    0.2936 H         1 <0>         0.0566
     44 H18         7.5224   11.3549   -0.7261 H         1 <0>         0.0560
     45 H19         5.9154   11.5400    0.0165 H         1 <0>         0.0587
     46 H20         6.4895    8.7261   -3.1533 H         1 <0>         0.0553
     47 H21         7.8582    9.7091   -2.5800 H         1 <0>         0.0558
     48 H22         7.1914    8.4230   -1.5459 H         1 <0>         0.0588
     49 H23         1.8610   10.5088   -3.5837 H         1 <0>         0.0555
     50 H24         2.6247   12.0403   -4.0732 H         1 <0>         0.0559
     51 H25         3.5613   10.5271   -4.1100 H         1 <0>         0.0569
     52 H26         2.4452   12.2545   -0.3596 H         1 <0>         0.0574
     53 H27         1.9719   13.0506   -1.8796 H         1 <0>         0.0560
     54 H28         1.2134   11.5111   -1.4076 H         1 <0>         0.0592
     55 O2         -0.3010    5.7196    6.0951 O.co2     1 <0>        -0.7498
@<TRIPOS>BOND
     1    1    2 1
     2    1   27 1
     3    1   28 1
     4    1   29 1
     5    2    7 ar
     6    2    3 ar
     7    3    4 ar
     8    3   30 1
     9    4   22 1
    10    4    5 ar
    11    5    6 ar
    12    5   19 1
    13    6    7 ar
    14    6   31 1
    15    7    8 1
    16    8   10 1
    17    8    9 1
    18    8   11 1
    19    9   10 1
    20    9   32 1
    21    9   33 1
    22   10   34 1
    23   10   35 1
    24   11   16 ar
    25   11   12 ar
    26   12   13 ar
    27   12   36 1
    28   13   14 ar
    29   13   37 1
    30   14   15 ar
    31   14   17 1
    32   15   16 ar
    33   15   38 1
    34   17   18 2
    35   17   55 1
    36   19   20 1
    37   19   25 1
    38   19   26 1
    39   20   21 1
    40   20   39 1
    41   20   40 1
    42   21   22 1
    43   21   41 1
    44   21   42 1
    45   22   23 1
    46   22   24 1
    47   23   43 1
    48   23   44 1
    49   23   45 1
    50   24   46 1
    51   24   47 1
    52   24   48 1
    53   25   49 1
    54   25   50 1
    55   25   51 1
    56   26   52 1
    57   26   53 1
    58   26   54 1
@<TRIPOS>MOLECULE
ZINC03871916
   54    57     0     0     0
SMALL
USER_CHARGES
6-(5,5,8,8-tetramethyltetralin-2-yl)carbonylnaphthalene-2-carboxylic acid
@<TRIPOS>ATOM
      1 C1         -6.1428    7.5118    0.6860 C.3       1 <0>        -0.1434
      2 C2         -5.2050    8.2130   -0.2988 C.3       1 <0>        -0.0264
      3 C3         -5.1437    9.7015    0.0371 C.3       1 <0>        -0.1123
      4 C4         -4.0439   10.3447   -0.8159 C.3       1 <0>        -0.1116
      5 C5         -2.6909    9.8477   -0.3111 C.3       1 <0>        -0.0225
      6 C6         -2.6789    8.3439   -0.2199 C.ar      1 <0>        -0.0728
      7 C7         -3.8350    7.5921   -0.2081 C.ar      1 <0>        -0.0388
      8 C8         -3.7604    6.2067   -0.1132 C.ar      1 <0>        -0.1284
      9 C9         -2.5421    5.5705   -0.0402 C.ar      1 <0>        -0.0840
     10 C10        -1.3673    6.3261   -0.0490 C.ar      1 <0>        -0.1512
     11 C11        -1.4466    7.7150   -0.1413 C.ar      1 <0>        -0.0653
     12 C12        -0.0518    5.6589    0.0327 C.2       1 <0>         0.4420
     13 O1          0.9027    6.1226   -0.5601 O.2       1 <0>        -0.4564
     14 C13         0.1037    4.4279    0.8350 C.ar      1 <0>        -0.1768
     15 C14        -0.9569    3.9847    1.6460 C.ar      1 <0>        -0.1059
     16 C15        -0.8353    2.8605    2.3965 C.ar      1 <0>        -0.1054
     17 C16         0.3583    2.1143    2.3603 C.ar      1 <0>        -0.0341
     18 C17         0.5004    0.9461    3.1241 C.ar      1 <0>        -0.0892
     19 C18         1.6893    0.2368    3.0716 C.ar      1 <0>        -0.0910
     20 C19         2.7497    0.6793    2.2607 C.ar      1 <0>        -0.0674
     21 C20         2.6309    1.8074    1.5151 C.ar      1 <0>        -0.1247
     22 C21         1.4352    2.5502    1.5463 C.ar      1 <0>        -0.0669
     23 C22         1.2932    3.7184    0.7823 C.ar      1 <0>        -0.0277
     24 C23         1.8442   -0.9945    3.8735 C.2       1 <0>         0.4862
     25 O2          0.9312   -1.3811    4.5753 O.co2     1 <0>        -0.6262
     26 C24        -2.4209   10.4393    1.0739 C.3       1 <0>        -0.1408
     27 C25        -1.5942   10.3034   -1.2758 C.3       1 <0>        -0.1446
     28 C26        -5.7440    8.0383   -1.7200 C.3       1 <0>        -0.1399
     29 H1         -7.1401    7.9450    0.6092 H         1 <0>         0.0589
     30 H2         -6.1892    6.4488    0.4495 H         1 <0>         0.0608
     31 H3         -5.7672    7.6422    1.7009 H         1 <0>         0.0580
     32 H4         -4.9109    9.8301    1.0941 H         1 <0>         0.0701
     33 H5         -6.1026   10.1688   -0.1871 H         1 <0>         0.0679
     34 H6         -4.0945   11.4295   -0.7231 H         1 <0>         0.0680
     35 H7         -4.1738   10.0591   -1.8597 H         1 <0>         0.0694
     36 H8         -4.6689    5.6228   -0.1015 H         1 <0>         0.1289
     37 H9         -2.4948    4.4937    0.0275 H         1 <0>         0.1379
     38 H10        -0.5418    8.3045   -0.1520 H         1 <0>         0.1294
     39 H11        -1.8775    4.5486    1.6754 H         1 <0>         0.1332
     40 H12        -1.6565    2.5351    3.0179 H         1 <0>         0.1302
     41 H13        -0.3112    0.6020    3.7481 H         1 <0>         0.1368
     42 H14         3.6700    0.1148    2.2311 H         1 <0>         0.1364
     43 H15         3.4538    2.1350    0.8970 H         1 <0>         0.1260
     44 H16         2.1045    4.0620    0.1577 H         1 <0>         0.1349
     45 H17        -1.4470   10.1026    1.4292 H         1 <0>         0.0570
     46 H18        -2.4288   11.5275    1.0120 H         1 <0>         0.0590
     47 H19        -3.1946   10.1092    1.7671 H         1 <0>         0.0590
     48 H20        -1.7771    9.8761   -2.2617 H         1 <0>         0.0572
     49 H21        -1.5997   11.3912   -1.3444 H         1 <0>         0.0591
     50 H22        -0.6245    9.9674   -0.9084 H         1 <0>         0.0605
     51 H23        -5.0836    8.5448   -2.4239 H         1 <0>         0.0588
     52 H24        -5.7892    6.9768   -1.9635 H         1 <0>         0.0575
     53 H25        -6.7432    8.4689   -1.7851 H         1 <0>         0.0592
     54 O3          2.9980   -1.6882    3.8265 O.co2     1 <0>        -0.7487
@<TRIPOS>BOND
     1    1    2 1
     2    1   29 1
     3    1   30 1
     4    1   31 1
     5    2    7 1
     6    2    3 1
     7    2   28 1
     8    3    4 1
     9    3   32 1
    10    3   33 1
    11    4    5 1
    12    4   34 1
    13    4   35 1
    14    5    6 1
    15    5   26 1
    16    5   27 1
    17    6   11 ar
    18    6    7 ar
    19    7    8 ar
    20    8    9 ar
    21    8   36 1
    22    9   10 ar
    23    9   37 1
    24   10   11 ar
    25   10   12 1
    26   11   38 1
    27   12   13 2
    28   12   14 1
    29   14   23 ar
    30   14   15 ar
    31   15   16 ar
    32   15   39 1
    33   16   17 ar
    34   16   40 1
    35   17   22 ar
    36   17   18 ar
    37   18   19 ar
    38   18   41 1
    39   19   20 ar
    40   19   24 1
    41   20   21 ar
    42   20   42 1
    43   21   22 ar
    44   21   43 1
    45   22   23 ar
    46   23   44 1
    47   24   25 2
    48   24   54 1
    49   26   45 1
    50   26   46 1
    51   26   47 1
    52   27   48 1
    53   27   49 1
    54   27   50 1
    55   28   51 1
    56   28   52 1
    57   28   53 1
@<TRIPOS>MOLECULE
ZINC03777578
   46    47     0     0     0
SMALL
USER_CHARGES
7-(4,4-dimethylchroman-6-yl)-3-methyl-octa-2,4,6-trienoic acid
@<TRIPOS>ATOM
      1 C1         -0.8376    3.3362   -0.0680 C.3       1 <0>        -0.0992
      2 C2         -1.0467    1.8473    0.0342 C.2       1 <0>        -0.0995
      3 C3         -0.0122    0.9956   -0.2120 C.2       1 <0>        -0.1411
      4 C4          1.2090    1.4950   -0.7110 C.2       1 <0>         0.4644
      5 O1          1.3038    2.6669   -1.0269 O.co2     1 <0>        -0.6256
      6 C5         -2.3083    1.3375    0.3833 C.2       1 <0>        -0.0705
      7 C6         -3.3429    2.1892    0.6295 C.2       1 <0>        -0.1615
      8 C7         -4.6074    1.6782    0.9794 C.2       1 <0>        -0.0937
      9 C8         -5.6368    2.5256    1.2244 C.2       1 <0>        -0.1068
     10 C9         -5.4277    4.0145    1.1222 C.3       1 <0>        -0.1119
     11 C10        -6.9555    1.9927    1.5893 C.ar      1 <0>        -0.0677
     12 C11        -7.6874    1.2318    0.6686 C.ar      1 <0>        -0.0761
     13 C12        -8.9191    0.7338    1.0209 C.ar      1 <0>        -0.1478
     14 C13        -9.4507    0.9910    2.2846 C.ar      1 <0>         0.1266
     15 C14        -8.7311    1.7466    3.1987 C.ar      1 <0>        -0.1471
     16 C15        -7.4909    2.2467    2.8565 C.ar      1 <0>        -0.0708
     17 C16        -9.2723    2.0375    4.5759 C.3       1 <0>        -0.0214
     18 C17       -10.7825    1.7890    4.5996 C.3       1 <0>        -0.1502
     19 C18       -11.0556    0.4229    3.9574 C.3       1 <0>         0.0597
     20 O2        -10.6762    0.4878    2.5822 O.3       1 <0>        -0.3172
     21 C19        -8.5898    1.1228    5.5949 C.3       1 <0>        -0.1412
     22 C20        -8.9920    3.4982    4.9350 C.3       1 <0>        -0.1389
     23 H1         -0.9554    3.6493   -1.1054 H         1 <0>         0.0639
     24 H2         -1.5724    3.8497    0.5521 H         1 <0>         0.0362
     25 H3          0.1661    3.5866    0.2754 H         1 <0>         0.0886
     26 H4         -0.1286   -0.0624   -0.0293 H         1 <0>         0.1053
     27 H5         -2.4581    0.2704    0.4565 H         1 <0>         0.1105
     28 H6         -3.1931    3.2563    0.5563 H         1 <0>         0.1242
     29 H7         -4.7573    0.6112    1.0527 H         1 <0>         0.1092
     30 H8         -5.6395    4.3421    0.1044 H         1 <0>         0.0676
     31 H9         -6.0978    4.5239    1.8147 H         1 <0>         0.0582
     32 H10        -4.3946    4.2545    1.3736 H         1 <0>         0.0705
     33 H11        -7.2833    1.0334   -0.3131 H         1 <0>         0.1299
     34 H12        -9.4812    0.1430    0.3128 H         1 <0>         0.1290
     35 H13        -6.9326    2.8360    3.5688 H         1 <0>         0.1258
     36 H14       -11.1387    1.7886    5.6297 H         1 <0>         0.0837
     37 H15       -11.2922    2.5697    4.0349 H         1 <0>         0.0776
     38 H16       -10.4703   -0.3445    4.4639 H         1 <0>         0.0652
     39 H17       -12.1169    0.1866    4.0346 H         1 <0>         0.1051
     40 H18        -7.5147    1.3020    5.5813 H         1 <0>         0.0618
     41 H19        -8.9806    1.3326    6.5906 H         1 <0>         0.0601
     42 H20        -8.7879    0.0820    5.3387 H         1 <0>         0.0554
     43 H21        -9.4767    4.1504    4.2085 H         1 <0>         0.0580
     44 H22        -9.3829    3.7091    5.9304 H         1 <0>         0.0591
     45 H23        -7.9166    3.6755    4.9219 H         1 <0>         0.0623
     46 O3          2.2729    0.6732   -0.8384 O.co2     1 <0>        -0.7696
@<TRIPOS>BOND
     1    1    2 1
     2    1   23 1
     3    1   24 1
     4    1   25 1
     5    2    3 2
     6    2    6 1
     7    3    4 1
     8    3   26 1
     9    4    5 2
    10    4   46 1
    11    6    7 2
    12    6   27 1
    13    7    8 1
    14    7   28 1
    15    8    9 2
    16    8   29 1
    17    9   10 1
    18    9   11 1
    19   10   30 1
    20   10   31 1
    21   10   32 1
    22   11   16 ar
    23   11   12 ar
    24   12   13 ar
    25   12   33 1
    26   13   14 ar
    27   13   34 1
    28   14   20 1
    29   14   15 ar
    30   15   16 ar
    31   15   17 1
    32   16   35 1
    33   17   18 1
    34   17   21 1
    35   17   22 1
    36   18   19 1
    37   18   36 1
    38   18   37 1
    39   19   20 1
    40   19   38 1
    41   19   39 1
    42   21   40 1
    43   21   41 1
    44   21   42 1
    45   22   43 1
    46   22   44 1
    47   22   45 1
@<TRIPOS>MOLECULE
ZINC01543482
   53    56     0     0     0
SMALL
USER_CHARGES
4-[2-[5,5-dimethyl-8-(p-tolyl)-6H-naphthalen-2-yl]ethynyl]benzoic acid
@<TRIPOS>ATOM
      1 C1          8.6907   -4.9969    1.5181 C.3       1 <0>        -0.1169
      2 C2          7.4057   -5.6652    1.1019 C.ar      1 <0>        -0.0837
      3 C3          7.2415   -6.0897   -0.2044 C.ar      1 <0>        -0.1205
      4 C4          6.0669   -6.7023   -0.5912 C.ar      1 <0>        -0.1019
      5 C5          5.0449   -6.8930    0.3373 C.ar      1 <0>        -0.0521
      6 C6          5.2138   -6.4581    1.6508 C.ar      1 <0>        -0.0975
      7 C7          6.3947   -5.8515    2.0276 C.ar      1 <0>        -0.1193
      8 C8          3.7805   -7.5507   -0.0722 C.2       1 <0>        -0.0480
      9 C9          3.7788   -8.8316   -0.4605 C.2       1 <0>        -0.1276
     10 C10         2.5043   -9.5059   -0.8867 C.3       1 <0>        -0.0803
     11 C11         1.3252   -9.0092   -0.0531 C.3       1 <0>        -0.0222
     12 C12         1.2982   -7.5031   -0.0469 C.ar      1 <0>        -0.0598
     13 C13         2.5030   -6.7963   -0.0557 C.ar      1 <0>        -0.0412
     14 C14         2.4977   -5.4083   -0.0494 C.ar      1 <0>        -0.0783
     15 C15         1.2797   -4.7246   -0.0342 C.ar      1 <0>         0.0300
     16 C16         0.0802   -5.4428   -0.0203 C.ar      1 <0>        -0.0945
     17 C17         0.0970   -6.8233   -0.0327 C.ar      1 <0>        -0.1153
     18 C18         1.2598   -3.2927   -0.0268 C.1       1 <0>        -0.1591
     19 C19         1.2434   -2.1189   -0.0207 C.1       1 <0>        -0.0750
     20 C20         1.2235   -0.6870   -0.0133 C.ar      1 <0>        -0.0142
     21 C21         0.0021   -0.0041    0.0020 C.ar      1 <0>        -0.1040
     22 C22        -0.0164    1.3613    0.0095 C.ar      1 <0>        -0.0898
     23 C23         1.1850    2.0772    0.0019 C.ar      1 <0>        -0.0944
     24 C24         2.4060    1.3951   -0.0134 C.ar      1 <0>        -0.0807
     25 C25         2.4255    0.0298   -0.0209 C.ar      1 <0>        -0.1047
     26 C26         1.1645    3.5520    0.0100 C.2       1 <0>         0.4862
     27 O1          0.1040    4.1448    0.0233 O.co2     1 <0>        -0.6279
     28 C27         0.0207   -9.5383   -0.6524 C.3       1 <0>        -0.1435
     29 C28         1.4666   -9.5205    1.3820 C.3       1 <0>        -0.1381
     30 H1          8.6046   -3.9204    1.3708 H         1 <0>         0.0727
     31 H2          8.8844   -5.2053    2.5703 H         1 <0>         0.0659
     32 H3          9.5125   -5.3817    0.9142 H         1 <0>         0.0656
     33 H4          8.0341   -5.9416   -0.9229 H         1 <0>         0.1226
     34 H5          5.9397   -7.0329   -1.6115 H         1 <0>         0.1225
     35 H6          4.4234   -6.5990    2.3732 H         1 <0>         0.1216
     36 H7          6.5283   -5.5178    3.0460 H         1 <0>         0.1228
     37 H8          4.7046   -9.3878   -0.4681 H         1 <0>         0.1184
     38 H9          2.3174   -9.2882   -1.9382 H         1 <0>         0.0792
     39 H10         2.6073  -10.5832   -0.7566 H         1 <0>         0.0788
     40 H11         3.4286   -4.8609   -0.0567 H         1 <0>         0.1273
     41 H12        -0.8625   -4.9160   -0.0041 H         1 <0>         0.1274
     42 H13        -0.8326   -7.3730   -0.0262 H         1 <0>         0.1312
     43 H14        -0.9257   -0.5568    0.0082 H         1 <0>         0.1208
     44 H15        -0.9590    1.8884    0.0168 H         1 <0>         0.1333
     45 H16         3.3335    1.9484   -0.0192 H         1 <0>         0.1371
     46 H17         3.3683   -0.4969   -0.0323 H         1 <0>         0.1207
     47 H18         0.0352  -10.6282   -0.6494 H         1 <0>         0.0600
     48 H19        -0.8219   -9.1845   -0.0583 H         1 <0>         0.0622
     49 H20        -0.0805   -9.1791   -1.6766 H         1 <0>         0.0597
     50 H21         2.3974   -9.1487    1.8102 H         1 <0>         0.0586
     51 H22         0.6255   -9.1667    1.9783 H         1 <0>         0.0573
     52 H23         1.4775  -10.6105    1.3800 H         1 <0>         0.0593
     53 O2          2.3220    4.2420    0.0026 O.co2     1 <0>        -0.7506
@<TRIPOS>BOND
     1    1    2 1
     2    1   30 1
     3    1   31 1
     4    1   32 1
     5    2    7 ar
     6    2    3 ar
     7    3    4 ar
     8    3   33 1
     9    4    5 ar
    10    4   34 1
    11    5    6 ar
    12    5    8 1
    13    6    7 ar
    14    6   35 1
    15    7   36 1
    16    8   13 1
    17    8    9 2
    18    9   10 1
    19    9   37 1
    20   10   11 1
    21   10   38 1
    22   10   39 1
    23   11   12 1
    24   11   28 1
    25   11   29 1
    26   12   17 ar
    27   12   13 ar
    28   13   14 ar
    29   14   15 ar
    30   14   40 1
    31   15   16 ar
    32   15   18 1
    33   16   17 ar
    34   16   41 1
    35   17   42 1
    36   18   19 3
    37   19   20 1
    38   20   25 ar
    39   20   21 ar
    40   21   22 ar
    41   21   43 1
    42   22   23 ar
    43   22   44 1
    44   23   24 ar
    45   23   26 1
    46   24   25 ar
    47   24   45 1
    48   25   46 1
    49   26   27 2
    50   26   53 1
    51   28   47 1
    52   28   48 1
    53   28   49 1
    54   29   50 1
    55   29   51 1
    56   29   52 1
@<TRIPOS>MOLECULE
ZINC12358651
   49    49     0     0     0
SMALL
USER_CHARGES

@<TRIPOS>ATOM
      1 C1         -2.0286   -1.1701   -2.0302 C.3       1 <0>        -0.1228
      2 C2         -0.9130   -0.9655   -1.0380 C.2       1 <0>        -0.1195
      3 C3         -1.0509   -0.0121   -0.1319 C.2       1 <0>        -0.0846
      4 C4         -0.0157    0.3046    0.9079 C.3       1 <0>        -0.0189
      5 C5          0.9697   -0.8582    1.0413 C.3       1 <0>        -0.1095
      6 C6          1.4613   -1.2436   -0.3593 C.3       1 <0>        -0.1215
      7 C7          0.2895   -1.8593   -1.1300 C.3       1 <0>        -0.0797
      8 C8         -0.7043    0.5427    2.2533 C.3       1 <0>        -0.1380
      9 C9          0.7436    1.5685    0.4993 C.3       1 <0>        -0.1378
     10 C10        -2.2434    0.7543   -0.1436 C.2       1 <0>        -0.1259
     11 C11        -3.4484    0.1381   -0.0202 C.2       1 <0>        -0.0971
     12 C12        -4.6247    0.9039    0.0582 C.2       1 <0>        -0.1171
     13 C13        -5.8350    0.2850    0.1820 C.2       1 <0>        -0.0909
     14 C14        -7.0080    1.0486    0.2602 C.2       1 <0>        -0.1590
     15 C15        -8.2286    0.4243    0.3851 C.2       1 <0>        -0.0727
     16 C16        -9.4006    1.1873    0.4632 C.2       1 <0>        -0.0846
     17 C17       -10.6211    0.5631    0.5882 C.2       1 <0>        -0.1309
     18 C18       -11.8049    1.3147    0.5138 C.2       1 <0>         0.4385
     19 O1        -11.7538    2.6103    0.2004 O.co2     1 <0>        -0.6898
     20 O2        -12.9805    0.7331    0.7567 O.co2     1 <0>        -0.7140
     21 C19        -9.3254    2.6915    0.4105 C.3       1 <0>        -0.1010
     22 C20        -4.5496    2.4081    0.0054 C.3       1 <0>        -0.1197
     23 H1         -1.7305   -1.9205   -2.7624 H         1 <0>         0.0534
     24 H2         -2.9229   -1.5082   -1.5068 H         1 <0>         0.0707
     25 H3         -2.2392   -0.2295   -2.5391 H         1 <0>         0.0657
     26 H4          1.8167   -0.5519    1.6552 H         1 <0>         0.0638
     27 H5          0.4699   -1.7107    1.5013 H         1 <0>         0.0637
     28 H6          1.8197   -0.3550   -0.8789 H         1 <0>         0.0667
     29 H7          2.2672   -1.9728   -0.2767 H         1 <0>         0.0625
     30 H8          0.0477   -2.8349   -0.7083 H         1 <0>         0.0717
     31 H9          0.5710   -1.9797   -2.1761 H         1 <0>         0.0688
     32 H10        -1.1790   -0.3801    2.5868 H         1 <0>         0.0541
     33 H11         0.0353    0.8575    2.9894 H         1 <0>         0.0532
     34 H12        -1.4600    1.3203    2.1420 H         1 <0>         0.0599
     35 H13         0.0450    2.4010    0.4154 H         1 <0>         0.0553
     36 H14         1.4959    1.8002    1.2533 H         1 <0>         0.0549
     37 H15         1.2309    1.4048   -0.4619 H         1 <0>         0.0560
     38 H16        -2.1943    1.8279   -0.2505 H         1 <0>         0.1163
     39 H17        -3.5023   -0.9399    0.0176 H         1 <0>         0.1126
     40 H18        -5.8889   -0.7930    0.2198 H         1 <0>         0.1099
     41 H19        -6.9541    2.1266    0.2224 H         1 <0>         0.1254
     42 H20        -8.2825   -0.6536    0.4229 H         1 <0>         0.1124
     43 H21       -10.6682   -0.5046    0.7433 H         1 <0>         0.1098
     44 H22        -9.4930    3.0280   -0.6126 H         1 <0>         0.0660
     45 H23       -10.0886    3.1165    1.0624 H         1 <0>         0.0952
     46 H24        -8.3402    3.0179    0.7436 H         1 <0>         0.0335
     47 H25        -4.6201    2.7393   -1.0307 H         1 <0>         0.0655
     48 H26        -5.3726    2.8334    0.5797 H         1 <0>         0.0686
     49 H27        -3.6015    2.7395    0.4291 H         1 <0>         0.0613
@<TRIPOS>BOND
     1    1    2 1
     2    1   23 1
     3    1   24 1
     4    1   25 1
     5    2    7 1
     6    2    3 2
     7    3    4 1
     8    3   10 1
     9    4    5 1
    10    4    8 1
    11    4    9 1
    12    5    6 1
    13    5   26 1
    14    5   27 1
    15    6    7 1
    16    6   28 1
    17    6   29 1
    18    7   30 1
    19    7   31 1
    20    8   32 1
    21    8   33 1
    22    8   34 1
    23    9   35 1
    24    9   36 1
    25    9   37 1
    26   10   11 2
    27   10   38 1
    28   11   12 1
    29   11   39 1
    30   12   13 2
    31   12   22 1
    32   13   14 1
    33   13   40 1
    34   14   15 2
    35   14   41 1
    36   15   16 1
    37   15   42 1
    38   16   17 2
    39   16   21 1
    40   17   18 1
    41   17   43 1
    42   18   19 2
    43   18   20 1
    44   21   44 1
    45   21   45 1
    46   21   46 1
    47   22   47 1
    48   22   48 1
    49   22   49 1
@<TRIPOS>MOLECULE
ZINC13522253
   63    63     0     0     0
SMALL
USER_CHARGES
(2E,4E,6Z)-7-[3,5-ditert-butyl-2-(2,2-difluoroethoxy)phenyl]-3-methyl-octa-2,4,6-trienoic acid
@<TRIPOS>ATOM
      1 C1         -3.8934    1.7062    6.6584 C.3       1 <0>        -0.0966
      2 C2         -4.9030    0.7856    6.0225 C.2       1 <0>        -0.0992
      3 C3         -6.1703    0.7179    6.5180 C.2       1 <0>        -0.1402
      4 C4         -6.5833    1.6168    7.5235 C.2       1 <0>         0.4642
      5 O1         -5.8476    2.5229    7.8696 O.co2     1 <0>        -0.6252
      6 C5         -4.5374   -0.0027    4.9188 C.2       1 <0>        -0.0716
      7 C6         -3.2699    0.0650    4.4232 C.2       1 <0>        -0.1624
      8 C7         -2.9035   -0.7251    3.3170 C.2       1 <0>        -0.1034
      9 C8         -1.6423   -0.6577    2.8239 C.2       1 <0>        -0.0978
     10 C9         -1.2501   -1.5034    1.6398 C.3       1 <0>        -0.1033
     11 C10        -0.6590    0.2389    3.4433 C.ar      1 <0>        -0.0531
     12 C11        -0.0615   -0.1046    4.6620 C.ar      1 <0>        -0.0999
     13 C12         0.8565    0.7447    5.2394 C.ar      1 <0>        -0.0672
     14 C13         1.1958    1.9356    4.6174 C.ar      1 <0>        -0.1077
     15 C14         0.6178    2.2856    3.4120 C.ar      1 <0>        -0.0745
     16 C15        -0.3076    1.4452    2.8148 C.ar      1 <0>         0.0985
     17 O2         -0.8761    1.7883    1.6311 O.3       1 <0>        -0.3078
     18 C16        -2.2212    2.2691    1.6726 C.3       1 <0>        -0.0010
     19 C17        -2.6365    2.7434    0.2786 C.3       1 <0>         0.2719
     20 F1         -1.7856    3.7735   -0.1363 F         1 <0>        -0.1982
     21 F2         -2.5503    1.6762   -0.6220 F         1 <0>        -0.1979
     22 C18         0.9953    3.5835    2.7457 C.3       1 <0>        -0.0193
     23 C19         2.1273    4.2494    3.5305 C.3       1 <0>        -0.1441
     24 C20         1.4613    3.3057    1.3151 C.3       1 <0>        -0.1391
     25 C21        -0.2195    4.5131    2.7149 C.3       1 <0>        -0.1509
     26 C22         1.4952    0.3768    6.5538 C.3       1 <0>        -0.0274
     27 C23         1.1687    1.4473    7.5970 C.3       1 <0>        -0.1407
     28 C24         0.9535   -0.9749    7.0234 C.3       1 <0>        -0.1463
     29 C25         3.0120    0.2842    6.3755 C.3       1 <0>        -0.1368
     30 H1         -4.0046    2.7086    6.2448 H         1 <0>         0.0613
     31 H2         -4.0578    1.7372    7.7355 H         1 <0>         0.0882
     32 H3         -2.8876    1.3386    6.4548 H         1 <0>         0.0354
     33 H4         -6.8587   -0.0239    6.1410 H         1 <0>         0.1049
     34 H5         -5.2609   -0.6624    4.4631 H         1 <0>         0.1107
     35 H6         -2.5464    0.7247    4.8789 H         1 <0>         0.1205
     36 H7         -3.6270   -1.3848    2.8613 H         1 <0>         0.1155
     37 H8         -0.9515   -2.4938    1.9837 H         1 <0>         0.0646
     38 H9         -2.0985   -1.5948    0.9616 H         1 <0>         0.0643
     39 H10        -0.4166   -1.0335    1.1178 H         1 <0>         0.0643
     40 H11        -0.3229   -1.0317    5.1504 H         1 <0>         0.1308
     41 H12         1.9166    2.5949    5.0781 H         1 <0>         0.1292
     42 H13        -2.2883    3.1005    2.3743 H         1 <0>         0.0903
     43 H14        -2.8841    1.4665    1.9958 H         1 <0>         0.0921
     44 H15        -3.6624    3.1101    0.3102 H         1 <0>         0.1258
     45 H16         2.9927    3.5872    3.5525 H         1 <0>         0.0564
     46 H17         2.4003    5.1882    3.0485 H         1 <0>         0.0572
     47 H18         1.7953    4.4474    4.5497 H         1 <0>         0.0578
     48 H19         0.6247    2.9276    0.7275 H         1 <0>         0.0777
     49 H20         1.8318    4.2281    0.8681 H         1 <0>         0.0508
     50 H21         2.2593    2.5633    1.3306 H         1 <0>         0.0485
     51 H22        -0.5515    4.7110    3.7340 H         1 <0>         0.0543
     52 H23         0.0535    5.4519    2.2329 H         1 <0>         0.0583
     53 H24        -1.0260    4.0387    2.1557 H         1 <0>         0.0662
     54 H25         0.0882    1.5133    7.7240 H         1 <0>         0.0614
     55 H26         1.6308    1.1812    8.5476 H         1 <0>         0.0579
     56 H27         1.5547    2.4103    7.2624 H         1 <0>         0.0557
     57 H28         1.1861   -1.7376    6.2803 H         1 <0>         0.0572
     58 H29         1.4155   -1.2410    7.9741 H         1 <0>         0.0578
     59 H30        -0.1270   -0.9089    7.1504 H         1 <0>         0.0624
     60 H31         3.3979    1.2471    6.0410 H         1 <0>         0.0556
     61 H32         3.4740    0.0181    7.3262 H         1 <0>         0.0574
     62 H33         3.2446   -0.4785    5.6324 H         1 <0>         0.0551
     63 O3         -7.7947    1.4722    8.1023 O.co2     1 <0>        -0.7691
@<TRIPOS>BOND
     1    1    2 1
     2    1   30 1
     3    1   31 1
     4    1   32 1
     5    2    3 2
     6    2    6 1
     7    3    4 1
     8    3   33 1
     9    4    5 2
    10    4   63 1
    11    6    7 2
    12    6   34 1
    13    7    8 1
    14    7   35 1
    15    8    9 2
    16    8   36 1
    17    9   10 1
    18    9   11 1
    19   10   37 1
    20   10   38 1
    21   10   39 1
    22   11   16 ar
    23   11   12 ar
    24   12   13 ar
    25   12   40 1
    26   13   14 ar
    27   13   26 1
    28   14   15 ar
    29   14   41 1
    30   15   16 ar
    31   15   22 1
    32   16   17 1
    33   17   18 1
    34   18   19 1
    35   18   42 1
    36   18   43 1
    37   19   20 1
    38   19   21 1
    39   19   44 1
    40   22   23 1
    41   22   24 1
    42   22   25 1
    43   23   45 1
    44   23   46 1
    45   23   47 1
    46   24   48 1
    47   24   49 1
    48   24   50 1
    49   25   51 1
    50   25   52 1
    51   25   53 1
    52   26   27 1
    53   26   28 1
    54   26   29 1
    55   27   54 1
    56   27   55 1
    57   27   56 1
    58   28   57 1
    59   28   58 1
    60   28   59 1
    61   29   60 1
    62   29   61 1
    63   29   62 1
@<TRIPOS>MOLECULE
ZINC03990465
   53    57     0     0     0
SMALL
USER_CHARGES

@<TRIPOS>ATOM
      1 C1         -3.6603   -1.0928    0.0153 C.ar      1 <0>        -0.1148
      2 C2         -2.4866   -0.3940    0.0126 C.ar      1 <0>        -0.1044
      3 C3         -2.5041    1.0019    0.0198 C.ar      1 <0>        -0.0694
      4 C4         -3.7206    1.6868    0.0351 C.ar      1 <0>        -0.1016
      5 C5         -4.8967    0.9922    0.0325 C.ar      1 <0>        -0.1190
      6 C6         -4.8816   -0.4079    0.0253 C.ar      1 <0>        -0.0256
      7 C7         -6.1457   -1.1576    0.0277 C.2       1 <0>        -0.1263
      8 C8         -7.3233   -0.4959    0.0373 C.2       1 <0>        -0.1373
      9 C9         -8.5801   -1.2413    0.0397 C.2       1 <0>         0.4720
     10 O1         -8.5660   -2.4576    0.0330 O.co2     1 <0>        -0.6331
     11 C10        -1.2297    1.7577    0.0174 C.ar      1 <0>        -0.0344
     12 C11        -0.0126    1.0758    0.0080 C.ar      1 <0>        -0.1053
     13 C12         1.1711    1.7819    0.0004 C.ar      1 <0>        -0.1390
     14 C13         1.1532    3.1708    0.0071 C.ar      1 <0>         0.1010
     15 C14        -0.0564    3.8525    0.0219 C.ar      1 <0>        -0.0900
     16 C15        -1.2441    3.1523    0.0294 C.ar      1 <0>        -0.1020
     17 C16        -0.0711    5.3594    0.0291 C.3       1 <0>        -0.0022
     18 C17        -1.5184    5.8553    0.0452 C.3       1 <0>        -0.1081
     19 C18        -1.5333    7.3852    0.0525 C.3       1 <0>        -0.0856
     20 C19        -0.8051    7.8964    1.2973 C.3       1 <0>        -0.1094
     21 C20         0.6422    7.4005    1.2812 C.3       1 <0>        -0.0856
     22 C21         0.6571    5.8706    1.2738 C.3       1 <0>        -0.1005
     23 C22         1.3465    7.9233    0.0276 C.3       1 <0>        -0.1064
     24 C23         0.6184    7.4122   -1.2172 C.3       1 <0>        -0.0841
     25 C24        -0.8289    7.9081   -1.2011 C.3       1 <0>        -0.1088
     26 C25         0.6333    5.8823   -1.2245 C.3       1 <0>        -0.1007
     27 O2          2.3216    3.8637   -0.0003 O.3       1 <0>        -0.4918
     28 H1         -3.6463   -2.1727    0.0094 H         1 <0>         0.1265
     29 H2         -1.5444   -0.9218    0.0053 H         1 <0>         0.1222
     30 H3         -3.7317    2.7667    0.0448 H         1 <0>         0.1214
     31 H4         -5.8375    1.5224    0.0398 H         1 <0>         0.1298
     32 H5         -6.1332   -2.2375    0.0218 H         1 <0>         0.1284
     33 H6         -7.3358    0.5840    0.0432 H         1 <0>         0.1077
     34 H7          0.0021   -0.0041    0.0020 H         1 <0>         0.1284
     35 H8          2.1136    1.2547   -0.0110 H         1 <0>         0.1272
     36 H9         -2.1846    3.6831    0.0405 H         1 <0>         0.1336
     37 H10        -2.0371    5.4911   -0.8416 H         1 <0>         0.0657
     38 H11        -2.0202    5.4828    0.9383 H         1 <0>         0.0662
     39 H12        -2.5644    7.7385    0.0640 H         1 <0>         0.0705
     40 H13        -1.3069    7.5239    2.1903 H         1 <0>         0.0613
     41 H14        -0.8157    8.9863    1.3025 H         1 <0>         0.0598
     42 H15         1.1609    7.7646    2.1680 H         1 <0>         0.0678
     43 H16         0.1553    5.4981    2.1669 H         1 <0>         0.0576
     44 H17         1.6882    5.5173    1.2624 H         1 <0>         0.0813
     45 H18         1.3359    9.0133    0.0328 H         1 <0>         0.0590
     46 H19         2.3776    7.5701    0.0161 H         1 <0>         0.0615
     47 H20         1.1202    7.7847   -2.1102 H         1 <0>         0.0682
     48 H21        -1.3477    7.5439   -2.0879 H         1 <0>         0.0614
     49 H22        -0.8395    8.9980   -1.1958 H         1 <0>         0.0606
     50 H23         1.6643    5.5290   -1.2360 H         1 <0>         0.0645
     51 H24         0.1145    5.5181   -2.1113 H         1 <0>         0.0608
     52 H25         2.6518    4.0684   -0.8858 H         1 <0>         0.3818
     53 O3         -9.7564   -0.5803    0.0493 O.co2     1 <0>        -0.7607
@<TRIPOS>BOND
     1    1    6 ar
     2    1    2 ar
     3    1   28 1
     4    2    3 ar
     5    2   29 1
     6    3    4 ar
     7    3   11 1
     8    4    5 ar
     9    4   30 1
    10    5    6 ar
    11    5   31 1
    12    6    7 1
    13    7    8 2
    14    7   32 1
    15    8    9 1
    16    8   33 1
    17    9   10 2
    18    9   53 1
    19   11   16 ar
    20   11   12 ar
    21   12   13 ar
    22   12   34 1
    23   13   14 ar
    24   13   35 1
    25   14   15 ar
    26   14   27 1
    27   15   16 ar
    28   15   17 1
    29   16   36 1
    30   17   22 1
    31   17   26 1
    32   17   18 1
    33   18   19 1
    34   18   37 1
    35   18   38 1
    36   19   25 1
    37   19   20 1
    38   19   39 1
    39   20   21 1
    40   20   40 1
    41   20   41 1
    42   21   22 1
    43   21   23 1
    44   21   42 1
    45   22   43 1
    46   22   44 1
    47   23   24 1
    48   23   45 1
    49   23   46 1
    50   24   25 1
    51   24   26 1
    52   24   47 1
    53   25   48 1
    54   25   49 1
    55   26   50 1
    56   26   51 1
    57   27   52 1
@<TRIPOS>MOLECULE
ZINC21992287
   49    49     0     0     0
SMALL
USER_CHARGES
(2E,4E,6E,8Z)-3,7-dimethyl-9-(2,6,6-trimethyl-1-cyclohexenyl)nona-2,4,6,8-tetraenoic acid
@<TRIPOS>ATOM
      1 C1          0.9863    0.8016    4.4633 C.3       1 <0>        -0.1472
      2 C2         -0.0989    1.4780    3.6659 C.2       1 <0>        -0.0943
      3 C3          0.2607    2.3152    2.7077 C.2       1 <0>        -0.0927
      4 C4         -0.7145    3.0615    1.8444 C.3       1 <0>        -0.0161
      5 C5         -2.0979    2.4140    1.9319 C.3       1 <0>        -0.1092
      6 C6         -2.4551    2.2253    3.4113 C.3       1 <0>        -0.1239
      7 C7         -1.5270    1.1587    4.0002 C.3       1 <0>        -0.0795
      8 C8         -0.8032    4.5136    2.3181 C.3       1 <0>        -0.1536
      9 C9         -0.2320    3.0331    0.3928 C.3       1 <0>        -0.1399
     10 C10         1.6457    2.5192    2.4826 C.2       1 <0>        -0.1192
     11 C11         2.4427    2.9478    3.4958 C.2       1 <0>        -0.1064
     12 C12         1.8754    3.3167    4.7288 C.2       1 <0>        -0.1129
     13 C13         0.8410    4.2051    4.7651 C.2       1 <0>        -0.1166
     14 C14         0.2751    4.5731    5.9950 C.2       1 <0>        -0.1492
     15 C15        -0.7605    5.4624    6.0313 C.2       1 <0>        -0.0880
     16 C16        -1.2400    5.9308    7.2636 C.2       1 <0>        -0.0788
     17 C17        -2.3412    6.7343    7.3061 C.2       1 <0>        -0.1565
     18 C18        -2.7751    7.2712    8.5352 C.2       1 <0>         0.4740
     19 O1         -2.1109    7.1024    9.5415 O.co2     1 <0>        -0.6140
     20 O2         -3.9275    7.9726    8.5964 O.co2     1 <0>        -0.7601
     21 C19        -0.5382    5.5463    8.5406 C.3       1 <0>        -0.1977
     22 C20         2.4105    2.7305    6.0099 C.3       1 <0>        -0.1356
     23 H1          1.9698    1.1363    4.1017 H         1 <0>         0.0848
     24 H2          0.9034   -0.2888    4.3441 H         1 <0>         0.0503
     25 H3          0.8778    1.0636    5.5261 H         1 <0>         0.0747
     26 H4         -2.8393    3.0662    1.4472 H         1 <0>         0.0632
     27 H5         -2.0792    1.4389    1.4232 H         1 <0>         0.0612
     28 H6         -2.3207    3.1776    3.9453 H         1 <0>         0.0715
     29 H7         -3.5029    1.9015    3.4971 H         1 <0>         0.0631
     30 H8         -1.7914    0.1773    3.5796 H         1 <0>         0.0682
     31 H9         -1.6513    1.1348    5.0929 H         1 <0>         0.0717
     32 H10        -1.5175    5.0623    1.6866 H         1 <0>         0.0571
     33 H11         0.1882    4.9845    2.2446 H         1 <0>         0.0603
     34 H12        -1.1441    4.5380    3.3637 H         1 <0>         0.0723
     35 H13        -0.9455    3.5796   -0.2415 H         1 <0>         0.0541
     36 H14        -0.1611    1.9902    0.0504 H         1 <0>         0.0533
     37 H15         0.7574    3.5091    0.3259 H         1 <0>         0.0568
     38 H16         2.0748    2.3304    1.4875 H         1 <0>         0.1146
     39 H17         3.5317    3.0063    3.3519 H         1 <0>         0.1146
     40 H18         0.4505    4.6330    3.8300 H         1 <0>         0.1371
     41 H19         0.6657    4.1452    6.9301 H         1 <0>         0.1210
     42 H20        -1.2188    5.8115    5.0942 H         1 <0>         0.1079
     43 H21        -2.8909    6.9635    6.3812 H         1 <0>         0.1052
     44 H22        -1.0556    6.0054    9.3959 H         1 <0>         0.1704
     45 H23         0.5025    5.9011    8.5082 H         1 <0>         0.0434
     46 H24        -0.5492    4.4518    8.6498 H         1 <0>         0.0373
     47 H25         1.8451    3.1349    6.8624 H         1 <0>         0.0704
     48 H26         3.4734    2.9928    6.1173 H         1 <0>         0.0578
     49 H27         2.3036    1.6360    5.9850 H         1 <0>         0.0752
@<TRIPOS>BOND
     1    1    2 1
     2    1   23 1
     3    1   24 1
     4    1   25 1
     5    2    7 1
     6    2    3 2
     7    3    4 1
     8    3   10 1
     9    4    5 1
    10    4    8 1
    11    4    9 1
    12    5    6 1
    13    5   26 1
    14    5   27 1
    15    6    7 1
    16    6   28 1
    17    6   29 1
    18    7   30 1
    19    7   31 1
    20    8   32 1
    21    8   33 1
    22    8   34 1
    23    9   35 1
    24    9   36 1
    25    9   37 1
    26   10   11 2
    27   10   38 1
    28   11   12 1
    29   11   39 1
    30   12   13 2
    31   12   22 1
    32   13   14 1
    33   13   40 1
    34   14   15 2
    35   14   41 1
    36   15   16 1
    37   15   42 1
    38   16   17 2
    39   16   21 1
    40   17   18 1
    41   17   43 1
    42   18   19 2
    43   18   20 1
    44   21   44 1
    45   21   45 1
    46   21   46 1
    47   22   47 1
    48   22   48 1
    49   22   49 1
@<TRIPOS>MOLECULE
ZINC38493164
   48    50     0     0     0
SMALL
USER_CHARGES

@<TRIPOS>ATOM
      1 C1         -0.0187    1.5258    0.0104 C.3       1 <0>        -0.1395
      2 C2          0.0021   -0.0041    0.0020 C.3       1 <0>        -0.0235
      3 C3         -1.4327   -0.5269   -0.0155 C.3       1 <0>        -0.1120
      4 C4         -2.0778   -0.2148    1.3399 C.3       1 <0>        -0.1112
      5 C5         -1.4277   -1.1039    2.3980 C.3       1 <0>        -0.0227
      6 C6          0.0737   -0.9998    2.3276 C.ar      1 <0>        -0.0607
      7 C7          0.7318   -0.4977    1.2246 C.ar      1 <0>        -0.0607
      8 C8          2.1209   -0.4323    1.2157 C.ar      1 <0>        -0.1168
      9 C9          2.8532   -0.8602    2.2994 C.ar      1 <0>        -0.1016
     10 C10         2.1928   -1.3667    3.4222 C.ar      1 <0>         0.0314
     11 C11         0.7994   -1.4327    3.4257 C.ar      1 <0>        -0.0982
     12 C12         2.9400   -1.8144    4.5588 C.1       1 <0>        -0.1615
     13 C13         3.5526   -2.1815    5.4907 C.1       1 <0>        -0.0755
     14 C14         4.2998   -2.6292    6.6273 C.ar      1 <0>        -0.0192
     15 C15         5.6976   -2.5554    6.6193 C.ar      1 <0>        -0.1042
     16 C16         6.4098   -2.9822    7.7028 C.ar      1 <0>        -0.0891
     17 C17         5.7424   -3.4942    8.8216 C.ar      1 <0>        -0.1131
     18 C18         4.3447   -3.5681    8.8296 C.ar      1 <0>        -0.0892
     19 C19         3.6321   -3.1354    7.7486 C.ar      1 <0>        -0.1042
     20 C20         6.5109   -3.9556    9.9901 C.2       1 <0>         0.5169
     21 O1          7.7326   -3.8914    9.9829 O.co2     1 <0>        -0.6838
     22 O2          5.9276   -4.4031   10.9679 O.co2     1 <0>        -0.6838
     23 C21        -1.8444   -2.5569    2.1613 C.3       1 <0>        -0.1406
     24 C22        -1.8994   -0.6642    3.7855 C.3       1 <0>        -0.1445
     25 C23         0.7311   -0.4916   -1.2517 C.3       1 <0>        -0.1425
     26 H1          1.0039    1.9031    0.0027 H         1 <0>         0.0564
     27 H2         -0.5459    1.8868   -0.8726 H         1 <0>         0.0577
     28 H3         -0.5289    1.8773    0.9072 H         1 <0>         0.0587
     29 H4         -1.9929   -0.0350   -0.8107 H         1 <0>         0.0667
     30 H5         -1.4288   -1.6043   -0.1809 H         1 <0>         0.0694
     31 H6         -1.9158    0.8334    1.5911 H         1 <0>         0.0692
     32 H7         -3.1472   -0.4208    1.2937 H         1 <0>         0.0673
     33 H8          2.6311   -0.0407    0.3480 H         1 <0>         0.1254
     34 H9          3.9317   -0.8053    2.2823 H         1 <0>         0.1252
     35 H10         0.2829   -1.8229    4.2902 H         1 <0>         0.1261
     36 H11         6.2126   -2.1610    5.7558 H         1 <0>         0.1189
     37 H12         7.4883   -2.9253    7.6966 H         1 <0>         0.1330
     38 H13         3.8298   -3.9631    9.6929 H         1 <0>         0.1330
     39 H14         2.5534   -3.1883    7.7566 H         1 <0>         0.1187
     40 H15        -1.5188   -2.8713    1.1697 H         1 <0>         0.0585
     41 H16        -1.3822   -3.1947    2.9148 H         1 <0>         0.0574
     42 H17        -2.9290   -2.6397    2.2308 H         1 <0>         0.0584
     43 H18        -2.9838   -0.7567    3.8467 H         1 <0>         0.0586
     44 H19        -1.4374   -1.2966    4.5436 H         1 <0>         0.0604
     45 H20        -1.6131    0.3738    3.9545 H         1 <0>         0.0572
     46 H21         1.7530   -0.1124   -1.2484 H         1 <0>         0.0593
     47 H22         0.7480   -1.5814   -1.2614 H         1 <0>         0.0570
     48 H23         0.2116   -0.1284   -2.1384 H         1 <0>         0.0576
@<TRIPOS>BOND
     1    1    2 1
     2    1   26 1
     3    1   27 1
     4    1   28 1
     5    2    7 1
     6    2    3 1
     7    2   25 1
     8    3    4 1
     9    3   29 1
    10    3   30 1
    11    4    5 1
    12    4   31 1
    13    4   32 1
    14    5    6 1
    15    5   23 1
    16    5   24 1
    17    6   11 ar
    18    6    7 ar
    19    7    8 ar
    20    8    9 ar
    21    8   33 1
    22    9   10 ar
    23    9   34 1
    24   10   11 ar
    25   10   12 1
    26   11   35 1
    27   12   13 3
    28   13   14 1
    29   14   19 ar
    30   14   15 ar
    31   15   16 ar
    32   15   36 1
    33   16   17 ar
    34   16   37 1
    35   17   18 ar
    36   17   20 1
    37   18   19 ar
    38   18   38 1
    39   19   39 1
    40   20   21 2
    41   20   22 1
    42   23   40 1
    43   23   41 1
    44   23   42 1
    45   24   43 1
    46   24   44 1
    47   24   45 1
    48   25   46 1
    49   25   47 1
    50   25   48 1
@<TRIPOS>MOLECULE
ZINC01550770
   57    59     0     0     0
SMALL
USER_CHARGES
3-methyl-5-[2-methyl-2-(5,5,8,8-tetramethyltetralin-2-yl)-cyclopropyl]-penta-2,4-dienoic acid
@<TRIPOS>ATOM
      1 C1          0.6153    5.3961    5.9905 C.3       1 <0>        -0.0953
      2 C2          1.6881    6.3574    5.5475 C.2       1 <0>        -0.0845
      3 C3          2.9226    6.2934    6.0973 C.2       1 <0>        -0.1636
      4 C4          3.2634    5.2140    6.9510 C.2       1 <0>         0.4695
      5 O1          2.4645    4.3179    7.1471 O.co2     1 <0>        -0.6292
      6 C5          1.3946    7.3597    4.5231 C.2       1 <0>        -0.1012
      7 C6          0.1769    7.4227    3.9809 C.2       1 <0>        -0.1333
      8 C7         -0.1254    8.4552    2.9256 C.3       1 <0>        -0.1016
      9 H1          0.5451    9.3142    2.9023 H         1 <0>         0.1073
     10 C8         -1.5947    8.6961    2.5734 C.3       1 <0>        -0.1612
     11 C9         -0.6836    7.9583    1.5905 C.3       1 <0>        -0.0829
     12 C10        -0.2582    8.7050    0.3246 C.3       1 <0>        -0.1085
     13 C11        -0.8889    6.4738    1.4314 C.ar      1 <0>        -0.0443
     14 C12         0.1755    5.6055    1.5890 C.ar      1 <0>        -0.0973
     15 C13        -0.0199    4.2483    1.4392 C.ar      1 <0>        -0.1149
     16 C14        -1.2778    3.7458    1.1311 C.ar      1 <0>        -0.0633
     17 C15        -2.3383    4.6101    0.9782 C.ar      1 <0>        -0.0665
     18 C16        -2.1391    5.9767    1.1276 C.ar      1 <0>        -0.1110
     19 C17        -3.7305    4.1357    0.6530 C.3       1 <0>        -0.0211
     20 C18        -3.6978    2.7102    0.1058 C.3       1 <0>        -0.1102
     21 C19        -2.8858    1.8409    1.0720 C.3       1 <0>        -0.1117
     22 C20        -1.4185    2.2541    0.9765 C.3       1 <0>        -0.0225
     23 C21        -0.8637    1.8336   -0.3860 C.3       1 <0>        -0.1377
     24 C22        -0.6246    1.5551    2.0820 C.3       1 <0>        -0.1444
     25 C23        -4.5844    4.1696    1.9221 C.3       1 <0>        -0.1394
     26 C24        -4.3481    5.0643   -0.3945 C.3       1 <0>        -0.1402
     27 H2          0.7131    4.4623    5.4369 H         1 <0>         0.0623
     28 H3          0.7220    5.1990    7.0572 H         1 <0>         0.0883
     29 H4         -0.3650    5.8318    5.7978 H         1 <0>         0.0325
     30 H5          3.6485    7.0647    5.8858 H         1 <0>         0.1013
     31 H6          2.1634    8.0486    4.2056 H         1 <0>         0.1082
     32 H7         -0.5919    6.7338    4.2983 H         1 <0>         0.1154
     33 H8         -1.8909    9.7137    2.3185 H         1 <0>         0.0956
     34 H9         -2.3429    8.1079    3.1048 H         1 <0>         0.0949
     35 H10        -0.7304    8.2460   -0.5440 H         1 <0>         0.0599
     36 H11        -0.5666    9.7479    0.3971 H         1 <0>         0.0583
     37 H12         0.8254    8.6531    0.2189 H         1 <0>         0.0604
     38 H13         1.1563    5.9885    1.8289 H         1 <0>         0.1200
     39 H14         0.8121    3.5707    1.5622 H         1 <0>         0.1209
     40 H15        -2.9700    6.6556    1.0046 H         1 <0>         0.1177
     41 H16        -4.7138    2.3230    0.0287 H         1 <0>         0.0641
     42 H17        -3.2268    2.7049   -0.8772 H         1 <0>         0.0672
     43 H18        -2.9903    0.7915    0.7966 H         1 <0>         0.0649
     44 H19        -3.2439    1.9912    2.0904 H         1 <0>         0.0692
     45 H20        -0.9551    0.7532   -0.4977 H         1 <0>         0.0560
     46 H21         0.1863    2.1183   -0.4543 H         1 <0>         0.0558
     47 H22        -1.4268    2.3296   -1.1764 H         1 <0>         0.0559
     48 H23         0.4251    1.8402    2.0112 H         1 <0>         0.0608
     49 H24        -1.0171    1.8523    3.0545 H         1 <0>         0.0590
     50 H25        -0.7163    0.4750    1.9678 H         1 <0>         0.0561
     51 H26        -4.6260    5.1893    2.3050 H         1 <0>         0.0553
     52 H27        -5.5929    3.8269    1.6907 H         1 <0>         0.0554
     53 H28        -4.1425    3.5166    2.6748 H         1 <0>         0.0593
     54 H29        -3.7374    5.0507   -1.2973 H         1 <0>         0.0547
     55 H30        -5.3560    4.7241   -0.6325 H         1 <0>         0.0551
     56 H31        -4.3909    6.0795   -0.0001 H         1 <0>         0.0580
     57 O2          4.4740    5.1807    7.5461 O.co2     1 <0>        -0.7734
@<TRIPOS>BOND
     1    1    2 1
     2    1   27 1
     3    1   28 1
     4    1   29 1
     5    2    3 2
     6    2    6 1
     7    3    4 1
     8    3   30 1
     9    4    5 2
    10    4   57 1
    11    6    7 2
    12    6   31 1
    13    7    8 1
    14    7   32 1
    15    8    9 1
    16    8   11 1
    17    8   10 1
    18   10   11 1
    19   10   33 1
    20   10   34 1
    21   11   12 1
    22   11   13 1
    23   12   35 1
    24   12   36 1
    25   12   37 1
    26   13   18 ar
    27   13   14 ar
    28   14   15 ar
    29   14   38 1
    30   15   16 ar
    31   15   39 1
    32   16   22 1
    33   16   17 ar
    34   17   18 ar
    35   17   19 1
    36   18   40 1
    37   19   20 1
    38   19   25 1
    39   19   26 1
    40   20   21 1
    41   20   41 1
    42   20   42 1
    43   21   22 1
    44   21   43 1
    45   21   44 1
    46   22   23 1
    47   22   24 1
    48   23   45 1
    49   23   46 1
    50   23   47 1
    51   24   48 1
    52   24   49 1
    53   24   50 1
    54   25   51 1
    55   25   52 1
    56   25   53 1
    57   26   54 1
    58   26   55 1
    59   26   56 1
@<TRIPOS>MOLECULE
ZINC03784077
   50    52     0     0     0
SMALL
USER_CHARGES

@<TRIPOS>ATOM
      1 C1          0.0187    1.5482    0.0053 C.3       1 <0>        -0.1427
      2 C2          0.0260    0.0182   -0.0034 C.3       1 <0>        -0.0265
      3 C3          0.7154   -0.4748   -1.2737 C.3       1 <0>        -0.1125
      4 C4          0.9062   -1.9920   -1.1629 C.3       1 <0>        -0.1118
      5 C5          1.9658   -2.2669   -0.0979 C.3       1 <0>        -0.0226
      6 C6          1.6374   -1.5351    1.1775 C.ar      1 <0>        -0.0706
      7 C7          0.7485   -0.4820    1.2207 C.ar      1 <0>        -0.0386
      8 C8          0.4907    0.1583    2.4276 C.ar      1 <0>        -0.1258
      9 C9          1.1116   -0.2483    3.5871 C.ar      1 <0>        -0.0894
     10 C10         2.0097   -1.3163    3.5507 C.ar      1 <0>        -0.1318
     11 C11         2.2665   -1.9544    2.3391 C.ar      1 <0>        -0.0555
     12 C12         2.6830   -1.7661    4.7872 C.2       1 <0>         0.5531
     13 O1          3.4642   -2.6966    4.7498 O.2       1 <0>        -0.5157
     14 N1          2.4308   -1.1445    5.9562 N.am      1 <0>        -0.6616
     15 C13         2.9904   -1.6272    7.1362 C.ar      1 <0>         0.1205
     16 C14         2.2701   -1.5574    8.3255 C.ar      1 <0>        -0.1582
     17 C15         2.8176   -2.0317    9.4896 C.ar      1 <0>        -0.0705
     18 C16         4.1022   -2.5865    9.4812 C.ar      1 <0>        -0.1412
     19 C17         4.8230   -2.6550    8.2838 C.ar      1 <0>        -0.0706
     20 C18         4.2664   -2.1837    7.1228 C.ar      1 <0>        -0.1324
     21 C19         4.6940   -3.0965   10.7290 C.2       1 <0>         0.5197
     22 O2          4.0626   -3.0355   11.7751 O.co2     1 <0>        -0.6894
     23 O3          5.8172   -3.5813   10.7199 O.co2     1 <0>        -0.6876
     24 C20         3.3296   -1.7999   -0.6107 C.3       1 <0>        -0.1413
     25 C21         2.0210   -3.7700    0.1828 C.3       1 <0>        -0.1462
     26 C22        -1.4159   -0.4931    0.0179 C.3       1 <0>        -0.1400
     27 H1          1.0446    1.9165   -0.0000 H         1 <0>         0.0576
     28 H2         -0.5033    1.9140   -0.8789 H         1 <0>         0.0592
     29 H3         -0.4905    1.9040    0.9010 H         1 <0>         0.0598
     30 H4          0.0957   -0.2450   -2.1405 H         1 <0>         0.0682
     31 H5          1.6859    0.0107   -1.3767 H         1 <0>         0.0702
     32 H6         -0.0348   -2.4603   -0.8741 H         1 <0>         0.0696
     33 H7          1.2368   -2.3916   -2.1216 H         1 <0>         0.0688
     34 H8         -0.2043    0.9845    2.4558 H         1 <0>         0.1285
     35 H9          0.9053    0.2563    4.5194 H         1 <0>         0.1255
     36 H10         2.9604   -2.7813    2.3049 H         1 <0>         0.1378
     37 H11         1.8595   -0.3608    5.9754 H         1 <0>         0.4046
     38 H12         1.2788   -1.1287    8.3313 H         1 <0>         0.1162
     39 H13         2.2584   -1.9768   10.4119 H         1 <0>         0.1302
     40 H14         5.8147   -3.0825    8.2733 H         1 <0>         0.1295
     41 H15         4.8202   -2.2405    6.1973 H         1 <0>         0.1309
     42 H16         3.2920   -0.7311   -0.8213 H         1 <0>         0.0582
     43 H17         4.0887   -1.9945    0.1469 H         1 <0>         0.0587
     44 H18         3.5796   -2.3415   -1.5230 H         1 <0>         0.0597
     45 H19         2.2776   -4.3015   -0.7335 H         1 <0>         0.0598
     46 H20         2.7764   -3.9702    0.9427 H         1 <0>         0.0631
     47 H21         1.0483   -4.1090    0.5393 H         1 <0>         0.0572
     48 H22        -1.9448   -0.1253   -0.8613 H         1 <0>         0.0595
     49 H23        -1.4150   -1.5831    0.0118 H         1 <0>         0.0596
     50 H24        -1.9151   -0.1352    0.9183 H         1 <0>         0.0571
@<TRIPOS>BOND
     1    1    2 1
     2    1   27 1
     3    1   28 1
     4    1   29 1
     5    2    7 1
     6    2    3 1
     7    2   26 1
     8    3    4 1
     9    3   30 1
    10    3   31 1
    11    4    5 1
    12    4   32 1
    13    4   33 1
    14    5    6 1
    15    5   24 1
    16    5   25 1
    17    6   11 ar
    18    6    7 ar
    19    7    8 ar
    20    8    9 ar
    21    8   34 1
    22    9   10 ar
    23    9   35 1
    24   10   11 ar
    25   10   12 1
    26   11   36 1
    27   12   13 2
    28   12   14 am
    29   14   15 1
    30   14   37 1
    31   15   20 ar
    32   15   16 ar
    33   16   17 ar
    34   16   38 1
    35   17   18 ar
    36   17   39 1
    37   18   19 ar
    38   18   21 1
    39   19   20 ar
    40   19   40 1
    41   20   41 1
    42   21   22 2
    43   21   23 1
    44   24   42 1
    45   24   43 1
    46   24   44 1
    47   25   45 1
    48   25   46 1
    49   25   47 1
    50   26   48 1
    51   26   49 1
    52   26   50 1
@<TRIPOS>MOLECULE
ZINC12661824
   49    49     0     0     0
SMALL
USER_CHARGES

@<TRIPOS>ATOM
      1 C1         -2.1403   -2.1286   -2.0604 C.3       1 <0>        -0.1245
      2 C2         -0.9727   -2.0739   -1.1091 C.2       1 <0>        -0.1129
      3 C3         -0.9348   -1.0922   -0.2237 C.2       1 <0>        -0.0907
      4 C4          0.1717   -0.9136    0.7747 C.3       1 <0>        -0.0176
      5 C5          0.9760   -2.2085    0.9067 C.3       1 <0>        -0.1106
      6 C6          1.3553   -2.6920   -0.4984 C.3       1 <0>        -0.1204
      7 C7          0.0785   -3.1400   -1.2161 C.3       1 <0>        -0.0819
      8 C8         -0.4263   -0.5472    2.1345 C.3       1 <0>        -0.1381
      9 C9          1.0969    0.2131    0.3104 C.3       1 <0>        -0.1367
     10 C10        -1.9989   -0.1556   -0.2175 C.2       1 <0>        -0.1221
     11 C11        -3.2775   -0.5809   -0.0407 C.2       1 <0>        -0.1037
     12 C12        -4.3225    0.3546    0.0550 C.2       1 <0>        -0.1163
     13 C13        -5.6067   -0.0726    0.2326 C.2       1 <0>        -0.0923
     14 C14        -5.8834   -1.4441    0.3196 C.2       1 <0>        -0.1580
     15 C15        -7.1787   -1.8749    0.4988 C.2       1 <0>        -0.0749
     16 C16        -7.4552   -3.2452    0.5857 C.2       1 <0>        -0.0835
     17 C17        -8.7503   -3.6760    0.7648 C.2       1 <0>        -0.1321
     18 C18        -9.0115   -5.0348    1.0038 C.2       1 <0>         0.4387
     19 O1         -8.0008   -5.8874    1.1796 O.co2     1 <0>        -0.6899
     20 O2        -10.2703   -5.4730    1.0550 O.co2     1 <0>        -0.7144
     21 C19        -6.3349   -4.2479    0.4831 C.3       1 <0>        -0.1004
     22 C20        -4.0250    1.8289   -0.0385 C.3       1 <0>        -0.1133
     23 H1         -1.9836   -2.9301   -2.7822 H         1 <0>         0.0553
     24 H2         -3.0564   -2.3176   -1.5007 H         1 <0>         0.0727
     25 H3         -2.2254   -1.1776   -2.5862 H         1 <0>         0.0643
     26 H4          1.8802   -2.0205    1.4857 H         1 <0>         0.0632
     27 H5          0.3706   -2.9665    1.4037 H         1 <0>         0.0655
     28 H6          1.8243   -1.8782   -1.0514 H         1 <0>         0.0655
     29 H7          2.0454   -3.5322   -0.4225 H         1 <0>         0.0627
     30 H8         -0.2918   -4.0593   -0.7623 H         1 <0>         0.0747
     31 H9          0.3022   -3.3228   -2.2671 H         1 <0>         0.0693
     32 H10        -1.0218   -1.3811    2.5062 H         1 <0>         0.0559
     33 H11         0.3773   -0.3322    2.8388 H         1 <0>         0.0525
     34 H12        -1.0605    0.3328    2.0273 H         1 <0>         0.0582
     35 H13         0.5282    1.1392    0.2273 H         1 <0>         0.0537
     36 H14         1.9012    0.3443    1.0343 H         1 <0>         0.0541
     37 H15         1.5204   -0.0417   -0.6611 H         1 <0>         0.0558
     38 H16        -1.7935    0.8960   -0.3533 H         1 <0>         0.1138
     39 H17        -3.4907   -1.6375    0.0264 H         1 <0>         0.1201
     40 H18        -6.4095    0.6460    0.3061 H         1 <0>         0.1118
     41 H19        -5.0806   -2.1627    0.2461 H         1 <0>         0.1227
     42 H20        -7.9815   -1.1563    0.5723 H         1 <0>         0.1127
     43 H21        -9.5654   -2.9688    0.7215 H         1 <0>         0.1096
     44 H22        -6.0017   -4.5241    1.4835 H         1 <0>         0.0657
     45 H23        -6.6891   -5.1362   -0.0400 H         1 <0>         0.0953
     46 H24        -5.5036   -3.8088   -0.0684 H         1 <0>         0.0323
     47 H25        -4.0813    2.1456   -1.0800 H         1 <0>         0.0639
     48 H26        -4.7546    2.3849    0.5502 H         1 <0>         0.0612
     49 H27        -3.0238    2.0227    0.3466 H         1 <0>         0.0630
@<TRIPOS>BOND
     1    1    2 1
     2    1   23 1
     3    1   24 1
     4    1   25 1
     5    2    7 1
     6    2    3 2
     7    3    4 1
     8    3   10 1
     9    4    5 1
    10    4    8 1
    11    4    9 1
    12    5    6 1
    13    5   26 1
    14    5   27 1
    15    6    7 1
    16    6   28 1
    17    6   29 1
    18    7   30 1
    19    7   31 1
    20    8   32 1
    21    8   33 1
    22    8   34 1
    23    9   35 1
    24    9   36 1
    25    9   37 1
    26   10   11 2
    27   10   38 1
    28   11   12 1
    29   11   39 1
    30   12   13 2
    31   12   22 1
    32   13   14 1
    33   13   40 1
    34   14   15 2
    35   14   41 1
    36   15   16 1
    37   15   42 1
    38   16   17 2
    39   16   21 1
    40   17   18 1
    41   17   43 1
    42   18   19 2
    43   18   20 1
    44   21   44 1
    45   21   45 1
    46   21   46 1
    47   22   47 1
    48   22   48 1
    49   22   49 1
@<TRIPOS>MOLECULE
ZINC00968328
   45    47     0     0     0
SMALL
USER_CHARGES

@<TRIPOS>ATOM
      1 C1         -0.0178    1.4608    0.0101 C.3       1 <0>         0.0553
      2 N1          0.0021   -0.0041    0.0020 N.pl3     1 <0>        -0.5905
      3 C2          0.0241   -0.7433    1.2666 C.3       1 <0>         0.1145
      4 C3         -1.4105   -1.0203    1.7205 C.3       1 <0>         0.0303
      5 O1         -2.0465   -1.8923    0.7840 O.3       1 <0>        -0.3206
      6 C4         -3.3348   -2.2400    1.0412 C.ar      1 <0>         0.1254
      7 C5         -3.9756   -1.7474    2.1688 C.ar      1 <0>        -0.2022
      8 C6         -5.2854   -2.1021    2.4278 C.ar      1 <0>        -0.0584
      9 C7         -5.9575   -2.9475    1.5646 C.ar      1 <0>        -0.1223
     10 C8         -5.3210   -3.4402    0.4404 C.ar      1 <0>        -0.0671
     11 C9         -4.0133   -3.0837    0.1736 C.ar      1 <0>        -0.1480
     12 C10        -7.3862   -3.3331    1.8499 C.3       1 <0>        -0.0555
     13 C11        -8.3282   -2.3252    1.1885 C.3       1 <0>        -0.0698
     14 H1         -8.1156   -2.2277    0.1239 H         1 <0>         0.1599
     15 C12        -9.7865   -2.6882    1.4311 C.2       1 <0>         0.5294
     16 O2        -10.2728   -3.7226    1.0268 O.2       1 <0>        -0.4537
     17 N2        -10.4863   -1.7976    2.1136 N.am      1 <0>        -0.6890
     18 C13        -9.9701   -0.6427    2.5734 C.2       1 <0>         0.5656
     19 O3        -10.5320    0.2306    3.2056 O.2       1 <0>        -0.4105
     20 S1         -8.2649   -0.6922    2.0368 S.3       1 <0>        -0.1557
     21 C14         0.0000   -0.6925   -1.2055 C.ar      1 <0>         0.4451
     22 C15         0.0132   -2.0839   -1.2060 C.ar      1 <0>        -0.1767
     23 C16         0.0110   -2.7560   -2.4146 C.ar      1 <0>         0.0305
     24 C17        -0.0044   -2.0117   -3.5870 C.ar      1 <0>        -0.1669
     25 C18        -0.0170   -0.6335   -3.5127 C.ar      1 <0>         0.1392
     26 N3         -0.0200   -0.0186   -2.3450 N.ar      1 <0>        -0.5042
     27 H2          1.0048    1.8381    0.0023 H         1 <0>         0.0864
     28 H3         -0.5450    1.8219   -0.8730 H         1 <0>         0.0733
     29 H4         -0.5280    1.8123    0.9069 H         1 <0>         0.1059
     30 H5          0.5496   -1.6879    1.1262 H         1 <0>         0.1083
     31 H6          0.5371   -0.1514    2.0246 H         1 <0>         0.1286
     32 H7         -1.3961   -1.4911    2.7035 H         1 <0>         0.0921
     33 H8         -1.9619   -0.0816    1.7754 H         1 <0>         0.0744
     34 H9         -3.4507   -1.0876    2.8437 H         1 <0>         0.1290
     35 H10        -5.7846   -1.7188    3.3055 H         1 <0>         0.1345
     36 H11        -5.8481   -4.1007   -0.2321 H         1 <0>         0.1360
     37 H12        -3.5179   -3.4652   -0.7070 H         1 <0>         0.1294
     38 H13        -7.5805   -4.3285    1.4504 H         1 <0>         0.1089
     39 H14        -7.5539   -3.3347    2.9269 H         1 <0>         0.0935
     40 H15       -11.4209   -1.9864    2.2920 H         1 <0>         0.4214
     41 H16         0.0254   -2.6314   -0.2752 H         1 <0>         0.1792
     42 H17         0.0214   -3.8355   -2.4461 H         1 <0>         0.1727
     43 H18        -0.0062   -2.5062   -4.5471 H         1 <0>         0.1794
     44 H19        -0.0287   -0.0508   -4.4219 H         1 <0>         0.2048
     45 H20        -0.0329    0.9510   -2.3209 H         1 <0>         0.4381
@<TRIPOS>BOND
     1    1    2 1
     2    1   27 1
     3    1   28 1
     4    1   29 1
     5    2    3 1
     6    2   21 1
     7    3    4 1
     8    3   30 1
     9    3   31 1
    10    4    5 1
    11    4   32 1
    12    4   33 1
    13    5    6 1
    14    6   11 ar
    15    6    7 ar
    16    7    8 ar
    17    7   34 1
    18    8    9 ar
    19    8   35 1
    20    9   10 ar
    21    9   12 1
    22   10   11 ar
    23   10   36 1
    24   11   37 1
    25   12   13 1
    26   12   38 1
    27   12   39 1
    28   13   14 1
    29   13   20 1
    30   13   15 1
    31   15   16 2
    32   15   17 am
    33   17   18 am
    34   17   40 1
    35   18   19 2
    36   18   20 1
    37   21   26 ar
    38   21   22 ar
    39   22   23 ar
    40   22   41 1
    41   23   24 ar
    42   23   42 1
    43   24   25 ar
    44   24   43 1
    45   25   26 ar
    46   25   44 1
    47   26   45 1
@<TRIPOS>MOLECULE
ZINC00968328
   44    46     0     0     0
SMALL
USER_CHARGES

@<TRIPOS>ATOM
      1 C1         -0.0178    1.4608    0.0101 C.3       1 <0>         0.0943
      2 N1          0.0021   -0.0041    0.0020 N.pl3     1 <0>        -0.6139
      3 C2          0.0241   -0.7433    1.2666 C.3       1 <0>         0.1321
      4 C3         -1.4105   -1.0203    1.7205 C.3       1 <0>         0.0409
      5 O1         -2.0465   -1.8923    0.7840 O.3       1 <0>        -0.2838
      6 C4         -3.3348   -2.2400    1.0412 C.ar      1 <0>         0.1410
      7 C5         -3.9756   -1.7474    2.1688 C.ar      1 <0>        -0.2122
      8 C6         -5.2854   -2.1021    2.4278 C.ar      1 <0>        -0.0601
      9 C7         -5.9575   -2.9475    1.5646 C.ar      1 <0>        -0.1420
     10 C8         -5.3210   -3.4402    0.4404 C.ar      1 <0>        -0.0675
     11 C9         -4.0133   -3.0837    0.1736 C.ar      1 <0>        -0.1507
     12 C10        -7.3862   -3.3331    1.8499 C.3       1 <0>        -0.0487
     13 C11        -8.3282   -2.3252    1.1885 C.3       1 <0>        -0.0704
     14 H1         -8.1156   -2.2277    0.1239 H         1 <0>         0.1610
     15 C12        -9.7865   -2.6882    1.4311 C.2       1 <0>         0.5301
     16 O2        -10.2728   -3.7226    1.0268 O.2       1 <0>        -0.4577
     17 N2        -10.4863   -1.7976    2.1136 N.am      1 <0>        -0.6898
     18 C13        -9.9701   -0.6427    2.5734 C.2       1 <0>         0.5614
     19 O3        -10.5320    0.2306    3.2056 O.2       1 <0>        -0.4177
     20 S1         -8.2649   -0.6922    2.0368 S.3       1 <0>        -0.1442
     21 C14         0.0000   -0.6925   -1.2055 C.ar      1 <0>         0.4042
     22 C15         0.0901    0.0128   -2.4015 C.ar      1 <0>        -0.2403
     23 C16         0.0870   -0.6849   -3.5956 C.ar      1 <0>        -0.0375
     24 C17        -0.0066   -2.0699   -3.5538 C.ar      1 <0>        -0.2346
     25 C18        -0.0930   -2.7051   -2.3314 C.ar      1 <0>         0.1463
     26 N3         -0.0823   -2.0140   -1.2072 N.ar      1 <0>        -0.5187
     27 H2          1.0048    1.8381    0.0023 H         1 <0>         0.0542
     28 H3         -0.5450    1.8219   -0.8730 H         1 <0>         0.0704
     29 H4         -0.5280    1.8123    0.9069 H         1 <0>         0.0700
     30 H5          0.5496   -1.6879    1.1262 H         1 <0>         0.0964
     31 H6          0.5371   -0.1514    2.0246 H         1 <0>         0.0938
     32 H7         -1.3961   -1.4911    2.7035 H         1 <0>         0.0688
     33 H8         -1.9619   -0.0816    1.7754 H         1 <0>         0.0592
     34 H9         -3.4507   -1.0876    2.8437 H         1 <0>         0.1266
     35 H10        -5.7846   -1.7188    3.3055 H         1 <0>         0.1282
     36 H11        -5.8481   -4.1007   -0.2321 H         1 <0>         0.1303
     37 H12        -3.5179   -3.4652   -0.7070 H         1 <0>         0.1299
     38 H13        -7.5805   -4.3285    1.4504 H         1 <0>         0.1051
     39 H14        -7.5539   -3.3347    2.9269 H         1 <0>         0.0892
     40 H15       -11.4209   -1.9864    2.2920 H         1 <0>         0.4182
     41 H16         0.1612    1.0904   -2.3974 H         1 <0>         0.1284
     42 H17         0.1553   -0.1643   -4.5394 H         1 <0>         0.1296
     43 H18        -0.0120   -2.6441   -4.4685 H         1 <0>         0.1285
     44 H19        -0.1662   -3.7820   -2.2944 H         1 <0>         0.1519
@<TRIPOS>BOND
     1    1    2 1
     2    1   27 1
     3    1   28 1
     4    1   29 1
     5    2    3 1
     6    2   21 1
     7    3    4 1
     8    3   30 1
     9    3   31 1
    10    4    5 1
    11    4   32 1
    12    4   33 1
    13    5    6 1
    14    6   11 ar
    15    6    7 ar
    16    7    8 ar
    17    7   34 1
    18    8    9 ar
    19    8   35 1
    20    9   10 ar
    21    9   12 1
    22   10   11 ar
    23   10   36 1
    24   11   37 1
    25   12   13 1
    26   12   38 1
    27   12   39 1
    28   13   14 1
    29   13   20 1
    30   13   15 1
    31   15   16 2
    32   15   17 am
    33   17   18 am
    34   17   40 1
    35   18   19 2
    36   18   20 1
    37   21   26 ar
    38   21   22 ar
    39   22   23 ar
    40   22   41 1
    41   23   24 ar
    42   23   42 1
    43   24   25 ar
    44   24   43 1
    45   25   26 ar
    46   25   44 1
@<TRIPOS>MOLECULE
ZINC00968330
   45    47     0     0     0
SMALL
USER_CHARGES

@<TRIPOS>ATOM
      1 C1         -0.0178    1.4608    0.0101 C.3       1 <0>         0.0556
      2 N1          0.0021   -0.0041    0.0020 N.pl3     1 <0>        -0.5910
      3 C2          0.0241   -0.7433    1.2666 C.3       1 <0>         0.1145
      4 C3         -1.4105   -1.0203    1.7205 C.3       1 <0>         0.0306
      5 O1         -2.0465   -1.8923    0.7840 O.3       1 <0>        -0.3203
      6 C4         -3.3348   -2.2400    1.0412 C.ar      1 <0>         0.1254
      7 C5         -3.9756   -1.7474    2.1688 C.ar      1 <0>        -0.2040
      8 C6         -5.2854   -2.1021    2.4278 C.ar      1 <0>        -0.0654
      9 C7         -5.9575   -2.9475    1.5646 C.ar      1 <0>        -0.1221
     10 C8         -5.3210   -3.4402    0.4404 C.ar      1 <0>        -0.0603
     11 C9         -4.0133   -3.0837    0.1736 C.ar      1 <0>        -0.1461
     12 C10        -7.3862   -3.3331    1.8499 C.3       1 <0>        -0.0555
     13 C11        -8.3282   -2.3252    1.1885 C.3       1 <0>        -0.0697
     14 H1         -8.0909   -1.3060    1.4933 H         1 <0>         0.1596
     15 C12        -9.7859   -2.6623    1.4695 C.2       1 <0>         0.5292
     16 O2        -10.2448   -2.6686    2.5917 O.2       1 <0>        -0.4534
     17 N2        -10.5170   -2.9474    0.4052 N.am      1 <0>        -0.6890
     18 C13       -10.0318   -2.9469   -0.8502 C.2       1 <0>         0.5657
     19 O3        -10.6238   -3.1938   -1.8830 O.2       1 <0>        -0.4109
     20 S1         -8.3132   -2.4970   -0.6448 S.3       1 <0>        -0.1554
     21 C14         0.0000   -0.6925   -1.2055 C.ar      1 <0>         0.4449
     22 C15         0.0132   -2.0839   -1.2060 C.ar      1 <0>        -0.1767
     23 C16         0.0110   -2.7560   -2.4146 C.ar      1 <0>         0.0308
     24 C17        -0.0044   -2.0117   -3.5870 C.ar      1 <0>        -0.1664
     25 C18        -0.0170   -0.6335   -3.5127 C.ar      1 <0>         0.1393
     26 N3         -0.0200   -0.0186   -2.3450 N.ar      1 <0>        -0.5040
     27 H2          1.0048    1.8381    0.0023 H         1 <0>         0.0863
     28 H3         -0.5450    1.8219   -0.8730 H         1 <0>         0.0733
     29 H4         -0.5280    1.8123    0.9069 H         1 <0>         0.1054
     30 H5          0.5496   -1.6879    1.1262 H         1 <0>         0.1083
     31 H6          0.5371   -0.1514    2.0246 H         1 <0>         0.1284
     32 H7         -1.3961   -1.4911    2.7035 H         1 <0>         0.0918
     33 H8         -1.9619   -0.0816    1.7754 H         1 <0>         0.0738
     34 H9         -3.4507   -1.0876    2.8437 H         1 <0>         0.1287
     35 H10        -5.7846   -1.7188    3.3055 H         1 <0>         0.1320
     36 H11        -5.8481   -4.1007   -0.2321 H         1 <0>         0.1384
     37 H12        -3.5179   -3.4652   -0.7070 H         1 <0>         0.1298
     38 H13        -7.5805   -4.3285    1.4504 H         1 <0>         0.0942
     39 H14        -7.5539   -3.3347    2.9269 H         1 <0>         0.1083
     40 H15       -11.4523   -3.1688    0.5362 H         1 <0>         0.4215
     41 H16         0.0254   -2.6314   -0.2752 H         1 <0>         0.1791
     42 H17         0.0214   -3.8355   -2.4461 H         1 <0>         0.1728
     43 H18        -0.0062   -2.5062   -4.5471 H         1 <0>         0.1796
     44 H19        -0.0287   -0.0508   -4.4219 H         1 <0>         0.2049
     45 H20        -0.0329    0.9510   -2.3209 H         1 <0>         0.4380
@<TRIPOS>BOND
     1    1    2 1
     2    1   27 1
     3    1   28 1
     4    1   29 1
     5    2    3 1
     6    2   21 1
     7    3    4 1
     8    3   30 1
     9    3   31 1
    10    4    5 1
    11    4   32 1
    12    4   33 1
    13    5    6 1
    14    6   11 ar
    15    6    7 ar
    16    7    8 ar
    17    7   34 1
    18    8    9 ar
    19    8   35 1
    20    9   10 ar
    21    9   12 1
    22   10   11 ar
    23   10   36 1
    24   11   37 1
    25   12   13 1
    26   12   38 1
    27   12   39 1
    28   13   14 1
    29   13   20 1
    30   13   15 1
    31   15   16 2
    32   15   17 am
    33   17   18 am
    34   17   40 1
    35   18   19 2
    36   18   20 1
    37   21   26 ar
    38   21   22 ar
    39   22   23 ar
    40   22   41 1
    41   23   24 ar
    42   23   42 1
    43   24   25 ar
    44   24   43 1
    45   25   26 ar
    46   25   44 1
    47   26   45 1
@<TRIPOS>MOLECULE
ZINC00968330
   44    46     0     0     0
SMALL
USER_CHARGES

@<TRIPOS>ATOM
      1 C1         -0.0178    1.4608    0.0101 C.3       1 <0>         0.0945
      2 N1          0.0021   -0.0041    0.0020 N.pl3     1 <0>        -0.6142
      3 C2          0.0241   -0.7433    1.2666 C.3       1 <0>         0.1321
      4 C3         -1.4105   -1.0203    1.7205 C.3       1 <0>         0.0411
      5 O1         -2.0465   -1.8923    0.7840 O.3       1 <0>        -0.2835
      6 C4         -3.3348   -2.2400    1.0412 C.ar      1 <0>         0.1409
      7 C5         -3.9756   -1.7474    2.1688 C.ar      1 <0>        -0.2139
      8 C6         -5.2854   -2.1021    2.4278 C.ar      1 <0>        -0.0668
      9 C7         -5.9575   -2.9475    1.5646 C.ar      1 <0>        -0.1417
     10 C8         -5.3210   -3.4402    0.4404 C.ar      1 <0>        -0.0611
     11 C9         -4.0133   -3.0837    0.1736 C.ar      1 <0>        -0.1489
     12 C10        -7.3862   -3.3331    1.8499 C.3       1 <0>        -0.0487
     13 C11        -8.3282   -2.3252    1.1885 C.3       1 <0>        -0.0711
     14 H1         -8.0909   -1.3060    1.4933 H         1 <0>         0.1601
     15 C12        -9.7859   -2.6623    1.4695 C.2       1 <0>         0.5303
     16 O2        -10.2448   -2.6686    2.5917 O.2       1 <0>        -0.4587
     17 N2        -10.5170   -2.9474    0.4052 N.am      1 <0>        -0.6898
     18 C13       -10.0318   -2.9469   -0.8502 C.2       1 <0>         0.5609
     19 O3        -10.6238   -3.1938   -1.8830 O.2       1 <0>        -0.4172
     20 S1         -8.3132   -2.4970   -0.6448 S.3       1 <0>        -0.1415
     21 C14         0.0000   -0.6925   -1.2055 C.ar      1 <0>         0.4038
     22 C15         0.0901    0.0128   -2.4015 C.ar      1 <0>        -0.2402
     23 C16         0.0870   -0.6849   -3.5956 C.ar      1 <0>        -0.0374
     24 C17        -0.0066   -2.0699   -3.5538 C.ar      1 <0>        -0.2340
     25 C18        -0.0930   -2.7051   -2.3314 C.ar      1 <0>         0.1464
     26 N3         -0.0823   -2.0140   -1.2072 N.ar      1 <0>        -0.5186
     27 H2          1.0048    1.8381    0.0023 H         1 <0>         0.0541
     28 H3         -0.5450    1.8219   -0.8730 H         1 <0>         0.0704
     29 H4         -0.5280    1.8123    0.9069 H         1 <0>         0.0696
     30 H5          0.5496   -1.6879    1.1262 H         1 <0>         0.0964
     31 H6          0.5371   -0.1514    2.0246 H         1 <0>         0.0936
     32 H7         -1.3961   -1.4911    2.7035 H         1 <0>         0.0686
     33 H8         -1.9619   -0.0816    1.7754 H         1 <0>         0.0586
     34 H9         -3.4507   -1.0876    2.8437 H         1 <0>         0.1263
     35 H10        -5.7846   -1.7188    3.3055 H         1 <0>         0.1256
     36 H11        -5.8481   -4.1007   -0.2321 H         1 <0>         0.1327
     37 H12        -3.5179   -3.4652   -0.7070 H         1 <0>         0.1303
     38 H13        -7.5805   -4.3285    1.4504 H         1 <0>         0.0900
     39 H14        -7.5539   -3.3347    2.9269 H         1 <0>         0.1041
     40 H15       -11.4523   -3.1688    0.5362 H         1 <0>         0.4181
     41 H16         0.1612    1.0904   -2.3974 H         1 <0>         0.1282
     42 H17         0.1553   -0.1643   -4.5394 H         1 <0>         0.1296
     43 H18        -0.0120   -2.6441   -4.4685 H         1 <0>         0.1287
     44 H19        -0.1662   -3.7820   -2.2944 H         1 <0>         0.1520
@<TRIPOS>BOND
     1    1    2 1
     2    1   27 1
     3    1   28 1
     4    1   29 1
     5    2    3 1
     6    2   21 1
     7    3    4 1
     8    3   30 1
     9    3   31 1
    10    4    5 1
    11    4   32 1
    12    4   33 1
    13    5    6 1
    14    6   11 ar
    15    6    7 ar
    16    7    8 ar
    17    7   34 1
    18    8    9 ar
    19    8   35 1
    20    9   10 ar
    21    9   12 1
    22   10   11 ar
    23   10   36 1
    24   11   37 1
    25   12   13 1
    26   12   38 1
    27   12   39 1
    28   13   14 1
    29   13   20 1
    30   13   15 1
    31   15   16 2
    32   15   17 am
    33   17   18 am
    34   17   40 1
    35   18   19 2
    36   18   20 1
    37   21   26 ar
    38   21   22 ar
    39   22   23 ar
    40   22   41 1
    41   23   24 ar
    42   23   42 1
    43   24   25 ar
    44   24   43 1
    45   25   26 ar
    46   25   44 1
