@<TRIPOS>MOLECULE
ZINC03626195
   20    21     0     0     0
SMALL
USER_CHARGES
2-hydroxy-4H-isoquinoline-1,3-dione
@<TRIPOS>ATOM
      1 C1          1.1580    3.1694    0.0071 C.ar      1 <0>        -0.0716
      2 C2          1.1709    1.7856    0.0005 C.ar      1 <0>        -0.1283
      3 C3         -0.0126    1.0758    0.0080 C.ar      1 <0>        -0.0385
      4 C4         -1.2279    1.7605    0.0174 C.ar      1 <0>        -0.1458
      5 C5         -1.2288    3.1587    0.0298 C.ar      1 <0>        -0.0427
      6 C6         -0.0453    3.8565    0.0218 C.ar      1 <0>        -0.1178
      7 C7         -2.5632    3.8664    0.0458 C.3       1 <0>        -0.1034
      8 C8         -3.8069    3.0042    0.0536 C.2       1 <0>         0.5461
      9 O1         -4.9043    3.5194    0.0661 O.2       1 <0>        -0.4661
     10 N1         -3.6906    1.6652    0.0462 N.am      1 <0>        -0.4247
     11 C9         -2.5093    1.0321    0.0324 C.2       1 <0>         0.5562
     12 O2         -2.4942   -0.1828    0.0270 O.2       1 <0>        -0.4986
     13 O3         -4.8728    0.8859    0.0539 O.3       1 <0>        -0.3027
     14 H1          2.0894    3.7161    0.0004 H         1 <0>         0.1379
     15 H2          2.1131    1.2578   -0.0110 H         1 <0>         0.1384
     16 H3          0.0021   -0.0041    0.0020 H         1 <0>         0.1435
     17 H4         -0.0528    4.9365    0.0266 H         1 <0>         0.1413
     18 H5         -2.5929    4.5045    0.9291 H         1 <0>         0.1368
     19 H6         -2.6097    4.5128   -0.8306 H         1 <0>         0.1368
     20 H7         -4.7151   -0.0682    0.0479 H         1 <0>         0.4032
@<TRIPOS>BOND
     1    1    6 ar
     2    1    2 ar
     3    1   14 1
     4    2    3 ar
     5    2   15 1
     6    3    4 ar
     7    3   16 1
     8    4   11 1
     9    4    5 ar
    10    5    6 ar
    11    5    7 1
    12    6   17 1
    13    7    8 1
    14    7   18 1
    15    7   19 1
    16    8    9 2
    17    8   10 am
    18   10   11 am
    19   10   13 1
    20   11   12 2
    21   13   20 1
@<TRIPOS>MOLECULE
ZINC01640999
   19    20     0     0     0
SMALL
USER_CHARGES
3-hydroxy-1H-quinazoline-2,4-dione
@<TRIPOS>ATOM
      1 C1          1.2044   -0.6945   -0.0136 C.ar      1 <0>        -0.1493
      2 C2          0.0021   -0.0041    0.0020 C.ar      1 <0>        -0.0423
      3 C3         -0.0166    1.3764    0.0096 C.ar      1 <0>        -0.1597
      4 C4          1.1775    2.0809    0.0020 C.ar      1 <0>         0.1931
      5 C5          2.3970    1.3820   -0.0139 C.ar      1 <0>        -0.1846
      6 C6          2.4021   -0.0109   -0.0219 C.ar      1 <0>        -0.0104
      7 C7          3.6476    2.1619   -0.0226 C.2       1 <0>         0.5775
      8 O1          4.7290    1.6062   -0.0371 O.2       1 <0>        -0.4670
      9 N1          3.5613    3.5098   -0.0144 N.am      1 <0>        -0.4200
     10 C8          2.3719    4.1317    0.0007 C.2       1 <0>         0.6947
     11 O2          2.3509    5.3472    0.0067 O.2       1 <0>        -0.5441
     12 N2          1.2031    3.4680    0.0092 N.am      1 <0>        -0.6333
     13 H1          0.3694    3.9638    0.0204 H         1 <0>         0.4409
     14 O3          4.7484    4.2817   -0.0225 O.3       1 <0>        -0.2792
     15 H2          1.2029   -1.7745   -0.0198 H         1 <0>         0.1420
     16 H3         -0.9289   -0.5515    0.0080 H         1 <0>         0.1420
     17 H4         -0.9581    1.9056    0.0170 H         1 <0>         0.1440
     18 H5          3.3370   -0.5514   -0.0348 H         1 <0>         0.1492
     19 H6          4.5966    5.2367   -0.0158 H         1 <0>         0.4066
@<TRIPOS>BOND
     1    1    6 ar
     2    1    2 ar
     3    1   15 1
     4    2    3 ar
     5    2   16 1
     6    3    4 ar
     7    3   17 1
     8    4   12 1
     9    4    5 ar
    10    5    6 ar
    11    5    7 1
    12    6   18 1
    13    7    8 2
    14    7    9 am
    15    9   10 am
    16    9   14 1
    17   10   11 2
    18   10   12 am
    19   12   13 1
    20   14   19 1
@<TRIPOS>MOLECULE
ZINC13683427
   27    28     0     0     0
SMALL
USER_CHARGES

@<TRIPOS>ATOM
      1 C1         -0.0167    1.3781    0.0096 C.ar      1 <0>        -0.1174
      2 C2          1.1709    2.0855    0.0021 C.ar      1 <0>        -0.1170
      3 C3          2.3773    1.4107   -0.0130 C.ar      1 <0>        -0.0977
      4 C4          2.3960    0.0285   -0.0201 C.ar      1 <0>        -0.0588
      5 C5          1.2084   -0.6789   -0.0117 C.ar      1 <0>        -0.0973
      6 C6          0.0021   -0.0041    0.0020 C.ar      1 <0>        -0.1169
      7 C7          3.7112   -0.7071   -0.0376 C.3       1 <0>        -0.0225
      8 C8          4.1644   -0.9594    1.3773 C.2       1 <0>         0.3032
      9 N1          3.4156   -0.5458    2.3556 N.2       1 <0>        -0.4230
     10 C9          3.7516   -0.7330    3.6460 C.2       1 <0>         0.0530
     11 C10         4.9342   -1.3881    3.9540 C.2       1 <0>         0.0025
     12 C11         5.7709   -1.8502    2.8358 C.2       1 <0>         0.4895
     13 N2          5.3342   -1.6136    1.5791 N.am      1 <0>        -0.6210
     14 O1          6.8221   -2.4325    3.0365 O.2       1 <0>        -0.5552
     15 O2          5.3065   -1.5950    5.2405 O.3       1 <0>        -0.4060
     16 C12         2.8677   -0.2441    4.7246 C.2       1 <0>         0.5374
     17 O3          3.1779   -0.4170    5.8946 O.co2     1 <0>        -0.6589
     18 O4          1.8262    0.3332    4.4470 O.co2     1 <0>        -0.6609
     19 H1         -0.9591    1.9053    0.0259 H         1 <0>         0.1161
     20 H2          1.1563    3.1654    0.0076 H         1 <0>         0.1169
     21 H3          3.3051    1.9634   -0.0196 H         1 <0>         0.1149
     22 H4          1.2231   -1.7588   -0.0176 H         1 <0>         0.1149
     23 H5         -0.9258   -0.5567    0.0082 H         1 <0>         0.1170
     24 H6          3.5884   -1.6586   -0.5549 H         1 <0>         0.0980
     25 H7          4.4573   -0.1052   -0.5563 H         1 <0>         0.0980
     26 H8          6.1483   -2.0611    5.3362 H         1 <0>         0.3814
     27 H9          5.8609   -1.9089    0.8199 H         1 <0>         0.4097
@<TRIPOS>BOND
     1    1    6 ar
     2    1    2 ar
     3    1   19 1
     4    2    3 ar
     5    2   20 1
     6    3    4 ar
     7    3   21 1
     8    4    5 ar
     9    4    7 1
    10    5    6 ar
    11    5   22 1
    12    6   23 1
    13    7    8 1
    14    7   24 1
    15    7   25 1
    16    8   13 1
    17    8    9 2
    18    9   10 1
    19   10   11 2
    20   10   16 1
    21   11   12 1
    22   11   15 1
    23   12   13 am
    24   12   14 2
    25   13   27 1
    26   15   26 1
    27   16   17 2
    28   16   18 1
@<TRIPOS>MOLECULE
ZINC05447539
   24    24     0     0     0
SMALL
USER_CHARGES

@<TRIPOS>ATOM
      1 C1         -0.0187    1.5258    0.0104 C.3       1 <0>        -0.1437
      2 C2          0.0021   -0.0041    0.0020 C.3       1 <0>        -0.0684
      3 C3          0.7421   -0.5109    1.2415 C.3       1 <0>        -0.1436
      4 C4         -1.4117   -0.5257    0.0127 C.2       1 <0>        -0.0426
      5 C5         -2.1843   -0.1449    1.1089 C.2       1 <0>        -0.1374
      6 C6         -3.4935   -0.4578    1.3975 C.2       1 <0>        -0.0914
      7 C7         -4.3891   -1.2415    0.6629 C.2       1 <0>         0.2032
      8 O1         -5.6286   -1.3789    1.1959 O.3       1 <0>        -0.7173
      9 C8         -4.1726   -1.8971   -0.5430 C.2       1 <0>        -0.1193
     10 C9         -2.9923   -1.9295   -1.3180 C.2       1 <0>         0.3735
     11 C10        -1.7607   -1.3014   -1.0550 C.2       1 <0>        -0.1824
     12 O2         -3.0493   -2.5828   -2.3520 O.2       1 <0>        -0.5761
     13 O3         -5.2263   -2.5932   -1.0374 O.3       1 <0>        -0.4774
     14 H1          1.0039    1.9031    0.0027 H         1 <0>         0.0530
     15 H2         -0.5459    1.8868   -0.8726 H         1 <0>         0.0562
     16 H3         -0.5289    1.8773    0.9072 H         1 <0>         0.0575
     17 H4          0.5123   -0.3556   -0.8948 H         1 <0>         0.0758
     18 H5          0.2319   -0.1594    2.1383 H         1 <0>         0.0575
     19 H6          0.7568   -1.6008    1.2356 H         1 <0>         0.0562
     20 H7          1.7647   -0.1336    1.2338 H         1 <0>         0.0531
     21 H8         -1.6861    0.4828    1.8329 H         1 <0>         0.1063
     22 H9         -3.8814   -0.0420    2.3157 H         1 <0>         0.1098
     23 H10        -0.9877   -1.4582   -1.7928 H         1 <0>         0.1160
     24 H11        -6.0189   -2.5521   -0.4849 H         1 <0>         0.3818
@<TRIPOS>BOND
     1    1    2 1
     2    1   14 1
     3    1   15 1
     4    1   16 1
     5    2    3 1
     6    2    4 1
     7    2   17 1
     8    3   18 1
     9    3   19 1
    10    3   20 1
    11    4   11 2
    12    4    5 1
    13    5    6 2
    14    5   21 1
    15    6    7 1
    16    6   22 1
    17    7    8 1
    18    7    9 2
    19    9   10 1
    20    9   13 1
    21   10   11 1
    22   10   12 2
    23   11   23 1
    24   13   24 1
@<TRIPOS>MOLECULE
ZINC05447539
   23    23     0     0     0
SMALL
USER_CHARGES

@<TRIPOS>ATOM
      1 C1         -0.0187    1.5258    0.0104 C.3       1 <0>        -0.1339
      2 C2          0.0021   -0.0041    0.0020 C.3       1 <0>        -0.0515
      3 C3          0.7421   -0.5109    1.2415 C.3       1 <0>        -0.1339
      4 C4         -1.4117   -0.5257    0.0127 C.2       1 <0>        -0.0737
      5 C5         -2.1843   -0.1449    1.1089 C.2       1 <0>        -0.1980
      6 C6         -3.4934   -0.4581    1.3978 C.2       1 <0>        -0.2280
      7 C7         -4.3890   -1.2416    0.6629 C.2       1 <0>         0.1577
      8 C8         -4.1727   -1.8968   -0.5432 C.2       1 <0>         0.2000
      9 C9         -2.9924   -1.9291   -1.3182 C.2       1 <0>         0.2961
     10 O1         -3.0496   -2.5821   -2.3524 O.2       1 <0>        -0.6353
     11 C10        -1.7607   -1.3015   -1.0550 C.2       1 <0>        -0.3426
     12 O2         -5.2265   -2.5927   -1.0377 O.3       1 <0>        -0.6183
     13 O3         -5.6283   -1.3799    1.1965 O.3       1 <0>        -0.7531
     14 H1          1.0039    1.9031    0.0027 H         1 <0>         0.0315
     15 H2         -0.5459    1.8868   -0.8726 H         1 <0>         0.0490
     16 H3         -0.5289    1.8773    0.9072 H         1 <0>         0.0527
     17 H4          0.5123   -0.3556   -0.8948 H         1 <0>         0.0544
     18 H5          1.7647   -0.1336    1.2338 H         1 <0>         0.0315
     19 H6          0.2319   -0.1594    2.1383 H         1 <0>         0.0526
     20 H7          0.7568   -1.6008    1.2356 H         1 <0>         0.0490
     21 H8         -1.6862    0.4831    1.8327 H         1 <0>         0.0598
     22 H9         -3.8811   -0.0429    2.3163 H         1 <0>         0.0649
     23 H10        -0.9877   -1.4582   -1.7928 H         1 <0>         0.0689
@<TRIPOS>BOND
     1    1    2 1
     2    1   14 1
     3    1   15 1
     4    1   16 1
     5    2    3 1
     6    2    4 1
     7    2   17 1
     8    3   18 1
     9    3   19 1
    10    3   20 1
    11    4   11 2
    12    4    5 1
    13    5    6 2
    14    5   21 1
    15    6    7 1
    16    6   22 1
    17    7    8 2
    18    7   13 1
    19    8    9 1
    20    8   12 1
    21    9   10 2
    22    9   11 1
    23   11   23 1
@<TRIPOS>MOLECULE
ZINC05447539
   24    24     0     0     0
SMALL
USER_CHARGES

@<TRIPOS>ATOM
      1 C1         -0.0187    1.5258    0.0104 C.3       1 <0>        -0.1434
      2 C2          0.0021   -0.0041    0.0020 C.3       1 <0>        -0.0394
      3 C3          0.7421   -0.5109    1.2415 C.3       1 <0>        -0.1435
      4 C4         -1.4117   -0.5257    0.0127 C.2       1 <0>        -0.2309
      5 C5         -1.7624   -1.3150   -1.0654 C.2       1 <0>         0.0077
      6 C6         -2.9756   -1.9350   -1.3375 C.2       1 <0>        -0.3117
      7 C7         -4.1422   -1.9169   -0.5931 C.2       1 <0>         0.2471
      8 C8         -4.3875   -1.2596    0.6329 C.2       1 <0>         0.3269
      9 O1         -5.5117   -1.3956    1.0981 O.2       1 <0>        -0.5288
     10 C9         -3.4974   -0.4653    1.3893 C.2       1 <0>        -0.0793
     11 C10        -2.1793   -0.1502    1.1081 C.2       1 <0>        -0.0178
     12 O2         -3.9965    0.0505    2.5397 O.3       1 <0>        -0.4972
     13 O3         -5.1824   -2.6192   -1.1063 O.3       1 <0>        -0.6364
     14 H1          1.0039    1.9031    0.0027 H         1 <0>         0.0443
     15 H2         -0.5459    1.8868   -0.8726 H         1 <0>         0.0524
     16 H3         -0.5289    1.8773    0.9072 H         1 <0>         0.0529
     17 H4          0.5123   -0.3556   -0.8948 H         1 <0>         0.0646
     18 H5          1.7647   -0.1336    1.2338 H         1 <0>         0.0444
     19 H6          0.2319   -0.1594    2.1383 H         1 <0>         0.0529
     20 H7          0.7568   -1.6008    1.2356 H         1 <0>         0.0524
     21 H8         -0.9854   -1.4718   -1.7989 H         1 <0>         0.0925
     22 H9         -3.0134   -2.5073   -2.2526 H         1 <0>         0.0987
     23 H10        -1.6824    0.4749    1.8353 H         1 <0>         0.1039
     24 H11        -4.9175   -0.1890    2.7111 H         1 <0>         0.3875
@<TRIPOS>BOND
     1    1    2 1
     2    1   14 1
     3    1   15 1
     4    1   16 1
     5    2    3 1
     6    2    4 1
     7    2   17 1
     8    3   18 1
     9    3   19 1
    10    3   20 1
    11    4   11 1
    12    4    5 2
    13    5    6 1
    14    5   21 1
    15    6    7 2
    16    6   22 1
    17    7    8 1
    18    7   13 1
    19    8    9 2
    20    8   10 1
    21   10   11 2
    22   10   12 1
    23   11   23 1
    24   12   24 1
