@<TRIPOS>MOLECULE
ZINC13467527
   25    25     0     0     0
SMALL
USER_CHARGES

@<TRIPOS>ATOM
      1 C1          1.2308   -0.1748    0.9138 C.ar      1 <0>        -0.0762
      2 C2          2.3658    0.5544    0.6158 C.ar      1 <0>        -0.0964
      3 C3          2.3649    1.4290   -0.4624 C.ar      1 <0>         0.1200
      4 C4          1.2211    1.5685   -1.2393 C.ar      1 <0>        -0.0714
      5 C5          0.0882    0.8358   -0.9359 C.ar      1 <0>        -0.0177
      6 C6          0.0938   -0.0350    0.1400 C.ar      1 <0>        -0.0857
      7 Cl1        -1.3421    1.0087   -1.9045 Cl        1 <0>        -0.0207
      8 Cl2         1.2143    2.6612   -2.5883 Cl        1 <0>        -0.0299
      9 N1          3.5132    2.1690   -0.7658 N.pl3     1 <0>        -0.6802
     10 C7          3.4809    3.5434   -0.7091 C.2       1 <0>         0.6533
     11 N2          4.5273    4.2344   -1.0604 N.2       1 <0>        -0.7820
     12 N3          2.3391    4.1900   -0.2796 N.pl3     1 <0>        -0.6347
     13 C8          2.3487    5.5505   -0.0954 C.cat     1 <0>         0.7588
     14 N4          1.2177    6.1914    0.1911 N.pl3     1 <0>        -0.7880
     15 N5          3.4890    6.2287   -0.2033 N.pl3     1 <0>        -0.7503
     16 H1          1.2332   -0.8585    1.7499 H         1 <0>         0.1560
     17 H2          3.2532    0.4443    1.2215 H         1 <0>         0.1518
     18 H3         -0.7917   -0.6067    0.3753 H         1 <0>         0.1569
     19 H4          4.3319    1.7130   -1.0163 H         1 <0>         0.4402
     20 H5          5.3033    3.7851   -1.4302 H         1 <0>         0.3843
     21 H6          1.5301    3.6830   -0.1080 H         1 <0>         0.4446
     22 H7          0.3867    5.6971    0.2697 H         1 <0>         0.4400
     23 H8          4.3214    5.7561   -0.3598 H         1 <0>         0.4504
     24 H9          3.4874    7.1956   -0.1254 H         1 <0>         0.4299
     25 H10         1.2245    7.1526    0.3212 H         1 <0>         0.4469
@<TRIPOS>BOND
     1    1    6 ar
     2    1    2 ar
     3    1   16 1
     4    2    3 ar
     5    2   17 1
     6    3    4 ar
     7    3    9 1
     8    4    5 ar
     9    4    8 1
    10    5    6 ar
    11    5    7 1
    12    6   18 1
    13    9   10 1
    14    9   19 1
    15   10   11 2
    16   10   12 1
    17   11   20 1
    18   12   13 1
    19   12   21 1
    20   13   14 2
    21   13   15 1
    22   14   22 1
    23   14   25 1
    24   15   23 1
    25   15   24 1
@<TRIPOS>MOLECULE
ZINC13467527
   24    24     0     0     0
SMALL
USER_CHARGES

@<TRIPOS>ATOM
      1 C1          0.3984    0.7803    2.3246 C.ar      1 <0>        -0.0922
      2 C2          1.5576    1.5312    2.3622 C.ar      1 <0>        -0.0983
      3 C3          2.3555    1.6320    1.2305 C.ar      1 <0>         0.1348
      4 C4          1.9853    0.9766    0.0622 C.ar      1 <0>        -0.0406
      5 C5          0.8239    0.2266    0.0310 C.ar      1 <0>        -0.0272
      6 C6          0.0316    0.1290    1.1618 C.ar      1 <0>        -0.0902
      7 Cl1         0.3594   -0.5930   -1.4272 Cl        1 <0>        -0.0356
      8 Cl2         2.9790    1.0998   -1.3559 Cl        1 <0>        -0.0285
      9 N1          3.5297    2.3923    1.2660 N.pl3     1 <0>        -0.7119
     10 C7          3.5389    3.6685    0.7512 C.2       1 <0>         0.6474
     11 N2          4.6553    4.3362    0.6854 N.2       1 <0>        -0.7915
     12 N3          2.3656    4.2407    0.3047 N.pl3     1 <0>        -0.6818
     13 C8          2.3517    5.5592   -0.1001 C.2       1 <0>         0.6519
     14 N4          1.2213    6.1428   -0.3795 N.2       1 <0>        -0.8028
     15 N5          3.5309    6.2573   -0.2088 N.pl3     1 <0>        -0.8267
     16 H1         -0.2197    0.6984    3.2064 H         1 <0>         0.1480
     17 H2          1.8427    2.0397    3.2713 H         1 <0>         0.1448
     18 H3         -0.8749   -0.4575    1.1357 H         1 <0>         0.1496
     19 H4          4.3371    2.0198    1.6535 H         1 <0>         0.4227
     20 H5          5.4911    3.9089    0.9299 H         1 <0>         0.3496
     21 H6          1.5504    3.7158    0.2756 H         1 <0>         0.4147
     22 H7          4.3628    5.7830   -0.3635 H         1 <0>         0.4221
     23 H8          3.5312    7.2241   -0.1306 H         1 <0>         0.4043
     24 H9          0.3845    5.6748   -0.2325 H         1 <0>         0.3375
@<TRIPOS>BOND
     1    1    6 ar
     2    1    2 ar
     3    1   16 1
     4    2    3 ar
     5    2   17 1
     6    3    4 ar
     7    3    9 1
     8    4    5 ar
     9    4    8 1
    10    5    6 ar
    11    5    7 1
    12    6   18 1
    13    9   10 1
    14    9   19 1
    15   10   11 2
    16   10   12 1
    17   11   20 1
    18   12   13 1
    19   12   21 1
    20   13   14 2
    21   13   15 1
    22   14   24 1
    23   15   22 1
    24   15   23 1
@<TRIPOS>MOLECULE
ZINC13467527
   24    24     0     0     0
SMALL
USER_CHARGES

@<TRIPOS>ATOM
      1 C1          0.7801    0.0194    1.0889 C.ar      1 <0>        -0.0875
      2 C2          1.9669    0.7267    1.1045 C.ar      1 <0>        -0.1085
      3 C3          2.3820    1.4098   -0.0307 C.ar      1 <0>         0.1514
      4 C4          1.6017    1.3800   -1.1803 C.ar      1 <0>        -0.0576
      5 C5          0.4148    0.6702   -1.1896 C.ar      1 <0>        -0.0218
      6 C6          0.0051   -0.0093   -0.0554 C.ar      1 <0>        -0.1014
      7 Cl1        -0.5616    0.6314   -2.6244 Cl        1 <0>        -0.0393
      8 Cl2         2.1157    2.2328   -2.6024 Cl        1 <0>        -0.0273
      9 N1          3.5833    2.1272   -0.0172 N.pl3     1 <0>        -0.7173
     10 C7          3.5662    3.4998   -0.1145 C.2       1 <0>         0.6249
     11 N2          4.6846    4.1594   -0.2173 N.2       1 <0>        -0.7006
     12 N3          2.3644    4.1772   -0.1034 N.pl3     1 <0>        -0.6382
     13 C8          2.3502    5.5565   -0.0962 C.2       1 <0>         0.6152
     14 N4          3.4661    6.2198   -0.2017 N.2       1 <0>        -0.7241
     15 N5          1.1582    6.2309    0.0223 N.pl3     1 <0>        -0.8994
     16 H1          0.4597   -0.5155    1.9707 H         1 <0>         0.1457
     17 H2          2.5712    0.7485    1.9993 H         1 <0>         0.1440
     18 H3         -0.9219   -0.5634   -0.0646 H         1 <0>         0.1471
     19 H4          4.4282    1.6570    0.0608 H         1 <0>         0.4224
     20 H5          5.5244    3.6807   -0.2983 H         1 <0>         0.3331
     21 H6          1.5294    3.6836   -0.1006 H         1 <0>         0.4111
     22 H7          3.4561    7.1898   -0.1966 H         1 <0>         0.3308
     23 H8          0.3358    5.7394    0.1737 H         1 <0>         0.3868
     24 H9          1.1396    7.1984   -0.0455 H         1 <0>         0.4108
@<TRIPOS>BOND
     1    1    6 ar
     2    1    2 ar
     3    1   16 1
     4    2    3 ar
     5    2   17 1
     6    3    4 ar
     7    3    9 1
     8    4    5 ar
     9    4    8 1
    10    5    6 ar
    11    5    7 1
    12    6   18 1
    13    9   10 1
    14    9   19 1
    15   10   11 2
    16   10   12 1
    17   11   20 1
    18   12   13 1
    19   12   21 1
    20   13   14 2
    21   13   15 1
    22   14   22 1
    23   15   23 1
    24   15   24 1
@<TRIPOS>MOLECULE
ZINC20459046
   37    38     0     0     0
SMALL
USER_CHARGES

@<TRIPOS>ATOM
      1 C1          6.7128    3.4672   -2.9068 C.ar      1 <0>        -0.0782
      2 C2          6.7234    4.0586   -1.6557 C.ar      1 <0>        -0.1285
      3 C3          5.9806    3.5174   -0.6273 C.ar      1 <0>        -0.0602
      4 C4          5.2162    2.3702   -0.8509 C.ar      1 <0>        -0.1712
      5 C5          5.2098    1.7789   -2.1160 C.ar      1 <0>        -0.0714
      6 C6          5.9576    2.3304   -3.1354 C.ar      1 <0>        -0.1291
      7 C7          4.4181    1.7844    0.2465 C.2       1 <0>         0.4403
      8 O1          4.4259    2.3014    1.3471 O.2       1 <0>        -0.4203
      9 C8          3.6129    0.5737    0.0069 C.ar      1 <0>        -0.1278
     10 C9          2.2206    0.6620   -0.0878 C.ar      1 <0>        -0.0653
     11 C10         1.4738   -0.4743   -0.3125 C.ar      1 <0>        -0.0189
     12 C11         2.0964   -1.7070   -0.4449 C.ar      1 <0>        -0.0813
     13 C12         3.4694   -1.8098   -0.3534 C.ar      1 <0>        -0.0920
     14 C13         4.2395   -0.6751   -0.1336 C.ar      1 <0>         0.1428
     15 N1          5.6246   -0.7762   -0.0467 N.pl3     1 <0>        -0.6970
     16 C14         6.2487   -0.6508    1.1742 C.2       1 <0>         0.6184
     17 N2          5.5389   -0.5430    2.2602 N.2       1 <0>        -0.7584
     18 N3          7.6273   -0.6395    1.2467 N.pl3     1 <0>        -0.6267
     19 C15         8.2504   -0.6368    2.4702 C.cat     1 <0>         0.7706
     20 N4          9.5720   -0.4957    2.5437 N.pl3     1 <0>        -0.7785
     21 N5          7.5330   -0.7752    3.5828 N.pl3     1 <0>        -0.7620
     22 Cl1        -0.2546   -0.3627   -0.4298 Cl        1 <0>        -0.0340
     23 H1          7.2930    3.8975   -3.7097 H         1 <0>         0.1335
     24 H2          7.3150    4.9458   -1.4842 H         1 <0>         0.1342
     25 H3          5.9903    3.9796    0.3488 H         1 <0>         0.1333
     26 H4          4.6208    0.8916   -2.2957 H         1 <0>         0.1279
     27 H5          5.9535    1.8741   -4.1142 H         1 <0>         0.1341
     28 H6          1.7312    1.6192    0.0153 H         1 <0>         0.1496
     29 H7          1.5027   -2.5919   -0.6205 H         1 <0>         0.1528
     30 H8          3.9462   -2.7733   -0.4573 H         1 <0>         0.1494
     31 H9          6.1504   -0.9349   -0.8462 H         1 <0>         0.4154
     32 H10         4.5708   -0.5806    2.2126 H         1 <0>         0.3777
     33 H11         8.1558   -0.6334    0.4333 H         1 <0>         0.4457
     34 H12        10.0949   -0.3949    1.7329 H         1 <0>         0.4397
     35 H13         6.7209   -1.3055    3.5734 H         1 <0>         0.4508
     36 H14         7.8222   -0.3456    4.4030 H         1 <0>         0.4371
     37 H15        10.0122   -0.4938    3.4080 H         1 <0>         0.4475
@<TRIPOS>BOND
     1    1    6 ar
     2    1    2 ar
     3    1   23 1
     4    2    3 ar
     5    2   24 1
     6    3    4 ar
     7    3   25 1
     8    4    5 ar
     9    4    7 1
    10    5    6 ar
    11    5   26 1
    12    6   27 1
    13    7    8 2
    14    7    9 1
    15    9   14 ar
    16    9   10 ar
    17   10   11 ar
    18   10   28 1
    19   11   12 ar
    20   11   22 1
    21   12   13 ar
    22   12   29 1
    23   13   14 ar
    24   13   30 1
    25   14   15 1
    26   15   16 1
    27   15   31 1
    28   16   17 2
    29   16   18 1
    30   17   32 1
    31   18   19 1
    32   18   33 1
    33   19   20 2
    34   19   21 1
    35   20   34 1
    36   20   37 1
    37   21   35 1
    38   21   36 1
@<TRIPOS>MOLECULE
ZINC20459046
   36    37     0     0     0
SMALL
USER_CHARGES
2-(2-benzoyl-4-chloro-phenyl)-1-(diaminomethylene)guanidine
@<TRIPOS>ATOM
      1 C1          0.5138   -0.2110    4.6415 C.ar      1 <0>        -0.0906
      2 C2          1.4432   -0.1359    3.6190 C.ar      1 <0>        -0.1349
      3 C3          1.1072    0.4563    2.4194 C.ar      1 <0>        -0.0629
      4 C4         -0.1741    0.9807    2.2381 C.ar      1 <0>        -0.1463
      5 C5         -1.1053    0.9067    3.2760 C.ar      1 <0>        -0.0522
      6 C6         -0.7577    0.3070    4.4686 C.ar      1 <0>        -0.1361
      7 C7         -0.5414    1.6168    0.9552 C.2       1 <0>         0.4676
      8 O1          0.2990    1.7675    0.0884 O.2       1 <0>        -0.4491
      9 C8         -1.9203    2.0727    0.7291 C.ar      1 <0>        -0.1728
     10 C9         -2.2349    3.4336    0.8068 C.ar      1 <0>        -0.0451
     11 C10        -3.5287    3.8541    0.5940 C.ar      1 <0>        -0.0799
     12 C11        -4.5305    2.9364    0.3013 C.ar      1 <0>        -0.0608
     13 C12        -4.2462    1.5925    0.2197 C.ar      1 <0>        -0.1987
     14 C13        -2.9382    1.1404    0.4256 C.ar      1 <0>         0.2120
     15 N1         -2.6500   -0.1845    0.3400 N.2       1 <0>        -0.6533
     16 C14        -3.0377   -0.8790   -0.7177 C.2       1 <0>         0.6573
     17 N2         -3.6123   -0.2358   -1.7906 N.pl3     1 <0>        -0.8898
     18 N3         -2.8705   -2.2112   -0.7444 N.2       1 <0>        -0.6669
     19 C15        -3.4542   -2.9690    0.1679 C.2       1 <0>         0.7158
     20 N4         -4.3199   -2.4125    1.0657 N.pl3     1 <0>        -0.8891
     21 N5         -3.1916   -4.3085    0.2127 N.pl3     1 <0>        -0.8557
     22 Cl1        -3.9116    5.5445    0.6916 Cl        1 <0>        -0.0724
     23 H1          0.7820   -0.6757    5.5787 H         1 <0>         0.1248
     24 H2          2.4338   -0.5422    3.7605 H         1 <0>         0.1271
     25 H3          1.8337    0.5146    1.6224 H         1 <0>         0.1299
     26 H4         -2.0967    1.3142    3.1439 H         1 <0>         0.1255
     27 H5         -1.4782    0.2454    5.2708 H         1 <0>         0.1253
     28 H6         -1.4631    4.1543    1.0334 H         1 <0>         0.1335
     29 H7         -5.5408    3.2809    0.1367 H         1 <0>         0.1323
     30 H8         -5.0318    0.8873   -0.0080 H         1 <0>         0.1297
     31 H9         -3.9346   -0.8131   -2.6698 H         1 <0>         0.4184
     32 H10        -3.7492    0.8554   -1.7688 H         1 <0>         0.4233
     33 H11        -4.8056   -3.0431    1.8249 H         1 <0>         0.4159
     34 H12        -3.6773   -4.9391    0.9719 H         1 <0>         0.4313
     35 H13        -2.4943   -4.7568   -0.5104 H         1 <0>         0.4486
     36 H14        -4.5314   -1.3336    1.0296 H         1 <0>         0.4384
@<TRIPOS>BOND
     1    1    6 ar
     2    1    2 ar
     3    1   23 1
     4    2    3 ar
     5    2   24 1
     6    3    4 ar
     7    3   25 1
     8    4    5 ar
     9    4    7 1
    10    5    6 ar
    11    5   26 1
    12    6   27 1
    13    7    8 2
    14    7    9 1
    15    9   14 ar
    16    9   10 ar
    17   10   11 ar
    18   10   28 1
    19   11   12 ar
    20   11   22 1
    21   12   13 ar
    22   12   29 1
    23   13   14 ar
    24   13   30 1
    25   14   15 1
    26   15   16 2
    27   16   17 1
    28   16   18 1
    29   17   31 1
    30   17   32 1
    31   18   19 2
    32   19   20 1
    33   19   21 1
    34   20   33 1
    35   20   36 1
    36   21   34 1
    37   21   35 1
@<TRIPOS>MOLECULE
ZINC01211337
   44    46     0     0     0
SMALL
USER_CHARGES
1,3-dioxo-2-[3-(tert-butylcarbamoyl)phenyl]-isoindoline-5-carboxylic acid
@<TRIPOS>ATOM
      1 C1          2.5030    0.3142   -1.2695 C.3       1 <0>        -0.1655
      2 C2          2.4220    1.1859   -0.0147 C.3       1 <0>         0.1689
      3 C3          3.5713    2.1958   -0.0202 C.3       1 <0>        -0.1553
      4 C4          2.5269    0.3007    1.2289 C.3       1 <0>        -0.1656
      5 N1          1.1435    1.9010    0.0013 N.am      1 <0>        -0.7217
      6 C5         -0.0144    1.2113    0.0087 C.2       1 <0>         0.5637
      7 O1          0.0021   -0.0041    0.0020 O.2       1 <0>        -0.5216
      8 C6         -1.3048    1.9331    0.0187 C.ar      1 <0>        -0.1196
      9 C7         -1.3265    3.3291    0.0323 C.ar      1 <0>        -0.0999
     10 C8         -2.5321    4.0000    0.0363 C.ar      1 <0>        -0.1046
     11 C9         -3.7211    3.2945    0.0381 C.ar      1 <0>        -0.1156
     12 C10        -3.7101    1.9054    0.0305 C.ar      1 <0>         0.1296
     13 C11        -2.5044    1.2218    0.0206 C.ar      1 <0>        -0.0836
     14 N2         -4.9184    1.1949    0.0324 N.am      1 <0>        -0.5243
     15 C12        -5.0121   -0.1468    0.0193 C.2       1 <0>         0.5784
     16 O2         -4.0781   -0.9226    0.0036 O.2       1 <0>        -0.4517
     17 C13        -6.4449   -0.5191    0.0300 C.ar      1 <0>        -0.1517
     18 C14        -7.1283   -1.7248    0.0265 C.ar      1 <0>        -0.0502
     19 C15        -8.5127   -1.7335    0.0329 C.ar      1 <0>        -0.0534
     20 C16        -9.2242   -0.5335    0.0429 C.ar      1 <0>        -0.0848
     21 C17        -8.5423    0.6871    0.0470 C.ar      1 <0>        -0.0026
     22 C18        -7.1582    0.6974    0.0406 C.ar      1 <0>        -0.1621
     23 C19        -6.1364    1.7656    0.0417 C.2       1 <0>         0.5834
     24 O3         -6.3594    2.9594    0.0493 O.2       1 <0>        -0.4559
     25 C20       -10.7031   -0.5526    0.0497 C.2       1 <0>         0.4883
     26 O4        -11.3238    0.4912    0.0588 O.co2     1 <0>        -0.6169
     27 H1          2.4283    0.9447   -2.1554 H         1 <0>         0.0541
     28 H2          3.4542   -0.2179   -1.2814 H         1 <0>         0.0630
     29 H3          1.6842   -0.4054   -1.2655 H         1 <0>         0.0799
     30 H4          3.5135    2.8169    0.8737 H         1 <0>         0.0620
     31 H5          4.5225    1.6637   -0.0322 H         1 <0>         0.0742
     32 H6          3.4965    2.8264   -0.9062 H         1 <0>         0.0620
     33 H7          1.7081   -0.4188    1.2328 H         1 <0>         0.0799
     34 H8          3.4781   -0.2314    1.2169 H         1 <0>         0.0631
     35 H9          2.4691    0.9218    2.1228 H         1 <0>         0.0541
     36 H10         1.1303    2.8709    0.0067 H         1 <0>         0.3981
     37 H11        -0.3997    3.8836    0.0350 H         1 <0>         0.1277
     38 H12        -2.5470    5.0799    0.0426 H         1 <0>         0.1379
     39 H13        -4.6617    3.8251    0.0458 H         1 <0>         0.1625
     40 H14        -2.4939    0.1419    0.0139 H         1 <0>         0.1707
     41 H15        -6.5817   -2.6562    0.0191 H         1 <0>         0.1411
     42 H16        -9.0443   -2.6736    0.0305 H         1 <0>         0.1542
     43 H17        -9.0924    1.6165    0.0547 H         1 <0>         0.1490
     44 O5        -11.3615   -1.7276    0.0458 O.co2     1 <0>        -0.7393
@<TRIPOS>BOND
     1    1    2 1
     2    1   27 1
     3    1   28 1
     4    1   29 1
     5    2    3 1
     6    2    4 1
     7    2    5 1
     8    3   30 1
     9    3   31 1
    10    3   32 1
    11    4   33 1
    12    4   34 1
    13    4   35 1
    14    5    6 am
    15    5   36 1
    16    6    7 2
    17    6    8 1
    18    8   13 ar
    19    8    9 ar
    20    9   10 ar
    21    9   37 1
    22   10   11 ar
    23   10   38 1
    24   11   12 ar
    25   11   39 1
    26   12   13 ar
    27   12   14 1
    28   13   40 1
    29   14   23 am
    30   14   15 am
    31   15   16 2
    32   15   17 1
    33   17   22 ar
    34   17   18 ar
    35   18   19 ar
    36   18   41 1
    37   19   20 ar
    38   19   42 1
    39   20   21 ar
    40   20   25 1
    41   21   22 ar
    42   21   43 1
    43   22   23 1
    44   23   24 2
    45   25   26 2
    46   25   44 1
@<TRIPOS>MOLECULE
ZINC00833225
   53    55     0     0     0
SMALL
USER_CHARGES

@<TRIPOS>ATOM
      1 C1          0.7174   -2.7278   -3.5268 C.3       1 <0>        -0.0964
      2 C2          0.5647   -2.3438   -2.0776 C.2       1 <0>         0.1539
      3 C3          0.7758   -1.1156   -1.5589 C.2       1 <0>        -0.0626
      4 C4          0.5231   -1.1781   -0.1643 C.2       1 <0>         0.5257
      5 O1          0.6137   -0.2543    0.6242 O.2       1 <0>        -0.4855
      6 N1          0.1642   -2.4438    0.1314 N.am      1 <0>        -0.3564
      7 N2          0.1811   -3.1825   -1.0590 N.pl3     1 <0>        -0.3969
      8 C5         -0.1502   -4.6032   -1.1940 C.3       1 <0>         0.1038
      9 C6         -0.1698   -2.9309    1.3988 C.ar      1 <0>         0.1518
     10 C7         -1.0164   -2.2015    2.2238 C.ar      1 <0>        -0.1038
     11 C8         -1.3443   -2.6854    3.4751 C.ar      1 <0>        -0.0983
     12 C9         -0.8309   -3.8946    3.9069 C.ar      1 <0>        -0.1185
     13 C10         0.0125   -4.6230    3.0881 C.ar      1 <0>        -0.1008
     14 C11         0.3395   -4.1478    1.8333 C.ar      1 <0>        -0.1303
     15 N3          1.1782    0.0299   -2.2779 N.pl3     1 <0>        -1.0210
     16 S1          1.4675    1.4505   -1.4775 S.o2      1 <0>         2.6927
     17 O2          1.7510    2.4260   -2.4712 O.2       1 <0>        -0.9652
     18 O3          0.4160    1.6069   -0.5346 O.2       1 <0>        -0.9193
     19 C12         2.9488    1.2328   -0.5485 C.ar      1 <0>        -0.6981
     20 C13         2.8880    1.1062    0.8272 C.ar      1 <0>         0.0243
     21 C14         4.0472    0.9354    1.5583 C.ar      1 <0>        -0.1540
     22 C15         5.2747    0.8904    0.9103 C.ar      1 <0>         0.2156
     23 C16         5.3323    1.0173   -0.4714 C.ar      1 <0>        -0.1815
     24 C17         4.1690    1.1831   -1.1972 C.ar      1 <0>        -0.0026
     25 N4          6.4511    0.7179    1.6482 N.am      1 <0>        -0.6840
     26 C18         6.4358   -0.0148    2.7792 C.2       1 <0>         0.5099
     27 O4          5.4345   -0.6222    3.0949 O.2       1 <0>        -0.5133
     28 C19         7.6628   -0.0796    3.6517 C.3       1 <0>        -0.1107
     29 C20         7.3811   -0.9713    4.8627 C.3       1 <0>        -0.1680
     30 C21         8.6081   -1.0360    5.7352 C.2       1 <0>         0.4916
     31 O5          9.6146   -0.4255    5.4179 O.co2     1 <0>        -0.7011
     32 O6          8.5943   -1.6989    6.7584 O.co2     1 <0>        -0.7004
     33 H1         -0.2503   -2.6614   -4.0242 H         1 <0>         0.0901
     34 H2          1.4215   -2.0504   -4.0100 H         1 <0>         0.0922
     35 H3          1.0913   -3.7494   -3.5945 H         1 <0>         0.0821
     36 H4         -0.1517   -4.8773   -2.2489 H         1 <0>         0.1034
     37 H5          0.5914   -5.2011   -0.6642 H         1 <0>         0.0728
     38 H6         -1.1368   -4.7881   -0.7691 H         1 <0>         0.0767
     39 H7         -1.4174   -1.2569    1.8874 H         1 <0>         0.1359
     40 H8         -2.0022   -2.1186    4.1172 H         1 <0>         0.1329
     41 H9         -1.0889   -4.2708    4.8858 H         1 <0>         0.1291
     42 H10         0.4124   -5.5667    3.4286 H         1 <0>         0.1311
     43 H11         0.9942   -4.7197    1.1923 H         1 <0>         0.1254
     44 H12         1.2854   -0.0148   -3.2409 H         1 <0>         0.4214
     45 H13         1.9331    1.1413    1.3305 H         1 <0>         0.1604
     46 H14         3.9992    0.8373    2.6327 H         1 <0>         0.1425
     47 H15         6.2854    0.9831   -0.9781 H         1 <0>         0.1325
     48 H16         4.2127    1.2777   -2.2721 H         1 <0>         0.1327
     49 H17         7.2775    1.1257    1.3456 H         1 <0>         0.4147
     50 H18         8.4934   -0.4943    3.0805 H         1 <0>         0.0960
     51 H19         7.9205    0.9236    3.9914 H         1 <0>         0.0983
     52 H20         6.5505   -0.5566    5.4339 H         1 <0>         0.0651
     53 H21         7.1234   -1.9745    4.5231 H         1 <0>         0.0641
@<TRIPOS>BOND
     1    1    2 1
     2    1   33 1
     3    1   34 1
     4    1   35 1
     5    2    7 1
     6    2    3 2
     7    3    4 1
     8    3   15 1
     9    4    5 2
    10    4    6 am
    11    6    7 1
    12    6    9 1
    13    7    8 1
    14    8   36 1
    15    8   37 1
    16    8   38 1
    17    9   14 ar
    18    9   10 ar
    19   10   11 ar
    20   10   39 1
    21   11   12 ar
    22   11   40 1
    23   12   13 ar
    24   12   41 1
    25   13   14 ar
    26   13   42 1
    27   14   43 1
    28   15   16 1
    29   15   44 1
    30   16   17 2
    31   16   18 2
    32   16   19 1
    33   19   24 ar
    34   19   20 ar
    35   20   21 ar
    36   20   45 1
    37   21   22 ar
    38   21   46 1
    39   22   23 ar
    40   22   25 1
    41   23   24 ar
    42   23   47 1
    43   24   48 1
    44   25   26 am
    45   25   49 1
    46   26   27 2
    47   26   28 1
    48   28   29 1
    49   28   50 1
    50   28   51 1
    51   29   30 1
    52   29   52 1
    53   29   53 1
    54   30   31 2
    55   30   32 1
@<TRIPOS>MOLECULE
ZINC01530775
   51    52     0     0     0
SMALL
USER_CHARGES

@<TRIPOS>ATOM
      1 C1         -0.0169    1.3924    0.0097 C.ar      1 <0>        -0.0145
      2 C2          1.1675    2.0955    0.0022 C.ar      1 <0>        -0.1494
      3 C3          2.3802    1.4171   -0.0135 C.ar      1 <0>         0.2053
      4 C4          2.4031    0.0276   -0.0217 C.ar      1 <0>        -0.2123
      5 C5          1.2228   -0.6824   -0.0138 C.ar      1 <0>        -0.0111
      6 C6          0.0021   -0.0041    0.0020 C.ar      1 <0>        -0.2020
      7 C7         -1.2662   -0.7620    0.0105 C.cat     1 <0>         0.6035
      8 N1         -1.2462   -2.0942    0.0032 N.pl3     1 <0>        -0.7664
      9 N2         -2.4299   -0.1132    0.0256 N.pl3     1 <0>        -0.7643
     10 O1          3.5453    2.1133   -0.0214 O.3       1 <0>        -0.2957
     11 C8          4.7553    1.3532   -0.0374 C.3       1 <0>         0.0514
     12 C9          5.9545    2.3033   -0.0443 C.3       1 <0>        -0.1221
     13 C10         7.2499    1.4894   -0.0615 C.3       1 <0>        -0.1133
     14 C11         8.4491    2.4396   -0.0683 C.3       1 <0>        -0.1221
     15 C12         9.7445    1.6257   -0.0855 C.3       1 <0>         0.0514
     16 O2         10.8646    2.5131   -0.0919 O.3       1 <0>        -0.2957
     17 C13        12.0985    1.9479   -0.1072 C.ar      1 <0>         0.2053
     18 C14        12.2269    0.5642   -0.1216 C.ar      1 <0>        -0.2124
     19 C15        13.4774   -0.0130   -0.1367 C.ar      1 <0>        -0.0111
     20 C16        14.6171    0.7942   -0.1379 C.ar      1 <0>        -0.2020
     21 C17        14.4841    2.1844   -0.1239 C.ar      1 <0>        -0.0146
     22 C18        13.2303    2.7544   -0.1141 C.ar      1 <0>        -0.1493
     23 C19        15.9604    0.1789   -0.1536 C.cat     1 <0>         0.6035
     24 N3         17.0466    0.9505   -0.1548 N.pl3     1 <0>        -0.7642
     25 N4         16.0854   -1.1476   -0.1666 N.pl3     1 <0>        -0.7664
     26 H1         -0.9589    1.9203    0.0260 H         1 <0>         0.1455
     27 H2          1.1536    3.1754    0.0081 H         1 <0>         0.1574
     28 H3          3.3474   -0.4962   -0.0346 H         1 <0>         0.1509
     29 H4          1.2413   -1.7622   -0.0204 H         1 <0>         0.1404
     30 H5         -0.3991   -2.5665   -0.0077 H         1 <0>         0.4422
     31 H6         -2.4445    0.8567    0.0309 H         1 <0>         0.4437
     32 H7         -3.2626   -0.6108    0.0312 H         1 <0>         0.4338
     33 H8          4.7984    0.7200    0.8488 H         1 <0>         0.0738
     34 H9          4.7807    0.7296   -0.9311 H         1 <0>         0.0738
     35 H10         5.9113    2.9365   -0.9305 H         1 <0>         0.0832
     36 H11         5.9290    2.9269    0.8494 H         1 <0>         0.0832
     37 H12         7.2930    0.8563    0.8247 H         1 <0>         0.0727
     38 H13         7.2753    0.8658   -0.9551 H         1 <0>         0.0727
     39 H14         8.4060    3.0727   -0.9545 H         1 <0>         0.0832
     40 H15         8.4236    3.0632    0.8253 H         1 <0>         0.0832
     41 H16         9.7877    0.9925    0.8007 H         1 <0>         0.0738
     42 H17         9.7700    1.0021   -0.9792 H         1 <0>         0.0738
     43 H18        11.3451   -0.0593   -0.1207 H         1 <0>         0.1509
     44 H19        13.5764   -1.0884   -0.1472 H         1 <0>         0.1404
     45 H20        15.3632    2.8117   -0.1244 H         1 <0>         0.1455
     46 H21        13.1265    3.8294   -0.1073 H         1 <0>         0.1574
     47 H22        16.9556    1.9162   -0.1453 H         1 <0>         0.4437
     48 H23        15.2946   -1.7093   -0.1657 H         1 <0>         0.4422
     49 H24        16.9672   -1.5515   -0.1768 H         1 <0>         0.4336
     50 H25        -2.0789   -2.5918    0.0088 H         1 <0>         0.4337
     51 H26        17.9285    0.5466   -0.1650 H         1 <0>         0.4338
@<TRIPOS>BOND
     1    1    6 ar
     2    1    2 ar
     3    1   26 1
     4    2    3 ar
     5    2   27 1
     6    3    4 ar
     7    3   10 1
     8    4    5 ar
     9    4   28 1
    10    5    6 ar
    11    5   29 1
    12    6    7 1
    13    7    8 2
    14    7    9 1
    15    8   30 1
    16    8   50 1
    17    9   31 1
    18    9   32 1
    19   10   11 1
    20   11   12 1
    21   11   33 1
    22   11   34 1
    23   12   13 1
    24   12   35 1
    25   12   36 1
    26   13   14 1
    27   13   37 1
    28   13   38 1
    29   14   15 1
    30   14   39 1
    31   14   40 1
    32   15   16 1
    33   15   41 1
    34   15   42 1
    35   16   17 1
    36   17   22 ar
    37   17   18 ar
    38   18   19 ar
    39   18   43 1
    40   19   20 ar
    41   19   44 1
    42   20   21 ar
    43   20   23 1
    44   21   22 ar
    45   21   45 1
    46   22   46 1
    47   23   24 2
    48   23   25 1
    49   24   47 1
    50   24   51 1
    51   25   48 1
    52   25   49 1
