@<TRIPOS>MOLECULE
ZINC20357177
   57    59     0     0     0
SMALL
USER_CHARGES

@<TRIPOS>ATOM
      1 C1          1.2642    1.2271   -0.1580 C.3       1 <0>        -0.1162
      2 C2          0.6279   -0.1366   -0.0790 C.ar      1 <0>        -0.0701
      3 C3          0.0386   -0.6900   -1.2012 C.ar      1 <0>        -0.1280
      4 C4         -0.5459   -1.9411   -1.1330 C.ar      1 <0>        -0.0946
      5 C5         -0.5429   -2.6425    0.0570 C.ar      1 <0>        -0.1192
      6 C6          0.0478   -2.0897    1.1855 C.ar      1 <0>         0.1399
      7 C7          0.6388   -0.8349    1.1123 C.ar      1 <0>        -0.1263
      8 N1          0.0521   -2.7974    2.3926 N.am      1 <0>        -0.6636
      9 C8          0.1503   -2.1345    3.5620 C.2       1 <0>         0.5121
     10 O1          0.1340   -0.9218    3.5749 O.2       1 <0>        -0.5034
     11 C9          0.2802   -2.9001    4.8535 C.3       1 <0>         0.0359
     12 N2          0.3700   -1.9561    5.9754 N.3       1 <0>        -0.5219
     13 C10        -0.8873   -1.2132    6.1405 C.3       1 <0>         0.0192
     14 C11        -0.7328   -0.2012    7.2780 C.3       1 <0>         0.0012
     15 N3         -0.3952   -0.9085    8.5203 N.4       1 <0>        -0.3856
     16 C12         0.8750   -1.6256    8.3478 C.3       1 <0>        -0.0002
     17 C13         0.7338   -2.6494    7.2193 C.3       1 <0>         0.0277
     18 C14        -0.2647    0.0616    9.6157 C.3       1 <0>         0.0383
     19 C15        -0.0400   -0.6724   10.9125 C.2       1 <0>        -0.2508
     20 C16         1.0153   -0.3860   11.6620 C.2       1 <0>        -0.0164
     21 C17         1.2357   -1.1059   12.9341 C.ar      1 <0>        -0.0991
     22 C18         0.3379   -2.0914   13.3460 C.ar      1 <0>        -0.1004
     23 C19         0.5493   -2.7597   14.5344 C.ar      1 <0>        -0.1213
     24 C20         1.6482   -2.4541   15.3173 C.ar      1 <0>        -0.0949
     25 C21         2.5418   -1.4777   14.9148 C.ar      1 <0>        -0.1191
     26 C22         2.3454   -0.8067   13.7252 C.ar      1 <0>        -0.0899
     27 C23        -1.1807   -4.0059    0.1306 C.3       1 <0>        -0.1159
     28 H1          2.3123    1.1233   -0.4388 H         1 <0>         0.0729
     29 H2          0.7455    1.8273   -0.9056 H         1 <0>         0.0696
     30 H3          1.1951    1.7171    0.8132 H         1 <0>         0.0668
     31 H4          0.0347   -0.1435   -2.1327 H         1 <0>         0.1261
     32 H5         -1.0055   -2.3704   -2.0110 H         1 <0>         0.1291
     33 H6          1.1027   -0.4040    1.9872 H         1 <0>         0.1441
     34 H7         -0.0156   -3.7650    2.3878 H         1 <0>         0.4124
     35 H8         -0.5922   -3.5400    4.9859 H         1 <0>         0.0796
     36 H9          1.1801   -3.5145    4.8227 H         1 <0>         0.1220
     37 H10        -1.1232   -0.6873    5.2154 H         1 <0>         0.1393
     38 H11        -1.6920   -1.9086    6.3793 H         1 <0>         0.0575
     39 H12         0.0628    0.5023    7.0327 H         1 <0>         0.1398
     40 H13        -1.6688    0.3411    7.4115 H         1 <0>         0.1363
     41 H14         1.6624   -0.9148    8.0971 H         1 <0>         0.1373
     42 H15         1.1309   -2.1393    9.2745 H         1 <0>         0.1373
     43 H16        -0.0442   -3.3685    7.4758 H         1 <0>         0.0625
     44 H17         1.6807   -3.1713    7.0811 H         1 <0>         0.1248
     45 H18         0.5817    0.7197    9.4193 H         1 <0>         0.1305
     46 H19        -1.1768    0.6541    9.6869 H         1 <0>         0.1368
     47 H20        -0.7387   -1.4317   11.2313 H         1 <0>         0.1362
     48 H21         1.7140    0.3734   11.3432 H         1 <0>         0.1305
     49 H22        -0.5207   -2.3304   12.7360 H         1 <0>         0.1233
     50 H23        -0.1448   -3.5228   14.8544 H         1 <0>         0.1297
     51 H24         1.8091   -2.9799   16.2469 H         1 <0>         0.1307
     52 H25         3.3974   -1.2433   15.5308 H         1 <0>         0.1320
     53 H26         3.0465   -0.0483   13.4096 H         1 <0>         0.1293
     54 H27        -0.4386   -4.7675   -0.1090 H         1 <0>         0.0732
     55 H28        -1.5624   -4.1746    1.1376 H         1 <0>         0.0588
     56 H29        -2.0022   -4.0618   -0.5835 H         1 <0>         0.0749
     57 H30        -1.1263   -1.5680    8.7409 H         1 <0>         0.4195
@<TRIPOS>BOND
     1    1    2 1
     2    1   28 1
     3    1   29 1
     4    1   30 1
     5    2    7 ar
     6    2    3 ar
     7    3    4 ar
     8    3   31 1
     9    4    5 ar
    10    4   32 1
    11    5    6 ar
    12    5   27 1
    13    6    7 ar
    14    6    8 1
    15    7   33 1
    16    8    9 am
    17    8   34 1
    18    9   10 2
    19    9   11 1
    20   11   12 1
    21   11   35 1
    22   11   36 1
    23   12   17 1
    24   12   13 1
    25   13   14 1
    26   13   37 1
    27   13   38 1
    28   14   15 1
    29   14   39 1
    30   14   40 1
    31   15   16 1
    32   15   18 1
    33   15   57 1
    34   16   17 1
    35   16   41 1
    36   16   42 1
    37   17   43 1
    38   17   44 1
    39   18   19 1
    40   18   45 1
    41   18   46 1
    42   19   20 2
    43   19   47 1
    44   20   21 1
    45   20   48 1
    46   21   26 ar
    47   21   22 ar
    48   22   23 ar
    49   22   49 1
    50   23   24 ar
    51   23   50 1
    52   24   25 ar
    53   24   51 1
    54   25   26 ar
    55   25   52 1
    56   26   53 1
    57   27   54 1
    58   27   55 1
    59   27   56 1
@<TRIPOS>MOLECULE
ZINC00840972
   46    48     0     0     0
SMALL
USER_CHARGES

@<TRIPOS>ATOM
      1 C1         -0.0184    1.5028    0.0103 C.3       1 <0>        -0.1168
      2 C2          0.0021   -0.0041    0.0020 C.ar      1 <0>        -0.0494
      3 C3          0.0057   -0.6887   -1.1989 C.ar      1 <0>        -0.1475
      4 C4          0.0245   -2.0709   -1.2065 C.ar      1 <0>        -0.0189
      5 C5          0.0400   -2.7685   -0.0132 C.ar      1 <0>        -0.6241
      6 C6          0.0373   -2.0839    1.1877 C.ar      1 <0>        -0.0176
      7 C7          0.0229   -0.7016    1.1953 C.ar      1 <0>        -0.1464
      8 S1          0.0628   -4.5303   -0.0229 S.o2      1 <0>         2.6031
      9 O1         -0.4759   -4.9503    1.2232 O.2       1 <0>        -1.0100
     10 O2         -0.4897   -4.9367   -1.2674 O.2       1 <0>        -1.0126
     11 N1          1.6509   -4.9994   -0.0343 N.2       1 <0>        -1.0220
     12 C8          1.9745   -6.3430   -0.0433 C.2       1 <0>         0.2492
     13 C9          3.2391   -6.9166   -0.0478 C.2       1 <0>        -0.3473
     14 C10         3.2920   -8.3618   -0.0575 C.2       1 <0>        -0.0184
     15 C11         2.1041   -8.9922   -0.0610 C.2       1 <0>        -0.2393
     16 S2          0.9297   -7.6557   -0.0441 S.3       1 <0>        -0.0086
     17 C12         1.8329  -10.4746   -0.0707 C.3       1 <0>         0.0215
     18 C13         1.7432  -10.9781    1.3469 C.ar      1 <0>        -0.0659
     19 C14         2.8807  -11.4192    1.9969 C.ar      1 <0>        -0.1129
     20 C15         2.7984  -11.8811    3.2972 C.ar      1 <0>        -0.1223
     21 C16         1.5788  -11.9014    3.9477 C.ar      1 <0>        -0.1313
     22 C17         0.4415  -11.4594    3.2979 C.ar      1 <0>        -0.1198
     23 C18         0.5245  -10.9936    1.9991 C.ar      1 <0>        -0.1114
     24 C19         4.5974   -9.1147   -0.0637 C.3       1 <0>        -0.0913
     25 C20         4.4553   -6.1009   -0.0436 C.2       1 <0>         0.6300
     26 O3          4.9618   -5.7689    1.0125 O.2       1 <0>        -0.5647
     27 N2          5.0139   -5.7178   -1.2088 N.am      1 <0>        -0.8568
     28 H1          1.0042    1.8801    0.0026 H         1 <0>         0.0738
     29 H2         -0.5455    1.8639   -0.8728 H         1 <0>         0.0678
     30 H3         -0.5286    1.8543    0.9071 H         1 <0>         0.0679
     31 H4         -0.0064   -0.1436   -2.1312 H         1 <0>         0.1268
     32 H5          0.0266   -2.6057   -2.1448 H         1 <0>         0.1368
     33 H6          0.0491   -2.6289    2.1200 H         1 <0>         0.1373
     34 H7          0.0245   -0.1667    2.1335 H         1 <0>         0.1272
     35 H8          0.8918  -10.6684   -0.5853 H         1 <0>         0.0763
     36 H9          2.6427  -10.9887   -0.5883 H         1 <0>         0.0827
     37 H10         3.8335  -11.4033    1.4888 H         1 <0>         0.1195
     38 H11         3.6870  -12.2264    3.8049 H         1 <0>         0.1165
     39 H12         1.5144  -12.2629    4.9633 H         1 <0>         0.1152
     40 H13        -0.5114  -11.4756    3.8060 H         1 <0>         0.1176
     41 H14        -0.3634  -10.6448    1.4927 H         1 <0>         0.1206
     42 H15         4.9129   -9.3034    0.9625 H         1 <0>         0.0649
     43 H16         4.4672  -10.0635   -0.5841 H         1 <0>         0.0614
     44 H17         5.3565   -8.5217   -0.5739 H         1 <0>         0.0563
     45 H18         4.6103   -5.9824   -2.0502 H         1 <0>         0.3968
     46 H19         5.8195   -5.1775   -1.2059 H         1 <0>         0.3860
@<TRIPOS>BOND
     1    1    2 1
     2    1   28 1
     3    1   29 1
     4    1   30 1
     5    2    7 ar
     6    2    3 ar
     7    3    4 ar
     8    3   31 1
     9    4    5 ar
    10    4   32 1
    11    5    6 ar
    12    5    8 1
    13    6    7 ar
    14    6   33 1
    15    7   34 1
    16    8    9 2
    17    8   10 2
    18    8   11 1
    19   11   12 1
    20   12   16 1
    21   12   13 2
    22   13   14 1
    23   13   25 1
    24   14   15 2
    25   14   24 1
    26   15   16 1
    27   15   17 1
    28   17   18 1
    29   17   35 1
    30   17   36 1
    31   18   23 ar
    32   18   19 ar
    33   19   20 ar
    34   19   37 1
    35   20   21 ar
    36   20   38 1
    37   21   22 ar
    38   21   39 1
    39   22   23 ar
    40   22   40 1
    41   23   41 1
    42   24   42 1
    43   24   43 1
    44   24   44 1
    45   25   26 2
    46   25   27 am
    47   27   45 1
    48   27   46 1
@<TRIPOS>MOLECULE
ZINC00840972
   47    49     0     0     0
SMALL
USER_CHARGES

@<TRIPOS>ATOM
      1 C1         -0.0184    1.5028    0.0103 C.3       1 <0>        -0.1277
      2 C2          0.0021   -0.0041    0.0020 C.ar      1 <0>        -0.0179
      3 C3          0.0057   -0.6887   -1.1989 C.ar      1 <0>        -0.1406
      4 C4          0.0245   -2.0709   -1.2065 C.ar      1 <0>        -0.0082
      5 C5          0.0400   -2.7685   -0.0132 C.ar      1 <0>        -0.6896
      6 C6          0.0373   -2.0839    1.1877 C.ar      1 <0>        -0.0077
      7 C7          0.0229   -0.7016    1.1953 C.ar      1 <0>        -0.1367
      8 S1          0.0628   -4.5303   -0.0229 S.o2      1 <0>         2.6739
      9 O1         -0.4759   -4.9503    1.2232 O.2       1 <0>        -0.9266
     10 O2         -0.4897   -4.9367   -1.2674 O.2       1 <0>        -0.9325
     11 N1          1.6509   -4.9994   -0.0343 N.pl3     1 <0>        -1.0038
     12 C8          2.4629   -4.7160    1.0475 C.2       1 <0>         0.0664
     13 C9          3.8072   -5.0239    1.2099 C.2       1 <0>        -0.2266
     14 C10         4.4192   -4.6066    2.4520 C.2       1 <0>        -0.0531
     15 C11         3.6137   -3.9635    3.3158 C.2       1 <0>        -0.1800
     16 S2          2.0528   -3.9144    2.4632 S.3       1 <0>         0.2020
     17 C12         3.9532   -3.4116    4.6763 C.3       1 <0>         0.0069
     18 C13         4.4222   -1.9862    4.5374 C.ar      1 <0>        -0.0826
     19 C14         5.7638   -1.7159    4.3423 C.ar      1 <0>        -0.1093
     20 C15         6.1940   -0.4084    4.2149 C.ar      1 <0>        -0.1176
     21 C16         5.2826    0.6288    4.2822 C.ar      1 <0>        -0.1199
     22 C17         3.9409    0.3585    4.4765 C.ar      1 <0>        -0.1174
     23 C18         3.5102   -0.9493    4.5996 C.ar      1 <0>        -0.1130
     24 C19         5.8697   -4.8762    2.7595 C.3       1 <0>        -0.0999
     25 C20         4.5652   -5.7342    0.1777 C.2       1 <0>         0.5875
     26 O3          5.1447   -5.1085   -0.6909 O.2       1 <0>        -0.5310
     27 N2          4.6213   -7.0808    0.1895 N.am      1 <0>        -0.8476
     28 H1          1.0042    1.8801    0.0026 H         1 <0>         0.0823
     29 H2         -0.5455    1.8639   -0.8728 H         1 <0>         0.0749
     30 H3         -0.5286    1.8543    0.9071 H         1 <0>         0.0755
     31 H4         -0.0064   -0.1436   -2.1312 H         1 <0>         0.1365
     32 H5          0.0266   -2.6057   -2.1448 H         1 <0>         0.1418
     33 H6          0.0491   -2.6289    2.1200 H         1 <0>         0.1415
     34 H7          0.0245   -0.1667    2.1335 H         1 <0>         0.1374
     35 H8          3.0684   -3.4426    5.3122 H         1 <0>         0.0919
     36 H9          4.7444   -4.0123    5.1251 H         1 <0>         0.1002
     37 H10         6.4758   -2.5262    4.2897 H         1 <0>         0.1221
     38 H11         7.2422   -0.1971    4.0631 H         1 <0>         0.1221
     39 H12         5.6188    1.6504    4.1834 H         1 <0>         0.1210
     40 H13         3.2289    1.1688    4.5294 H         1 <0>         0.1219
     41 H14         2.4615   -1.1607    4.7476 H         1 <0>         0.1210
     42 H15         6.4771   -4.0433    2.4055 H         1 <0>         0.0778
     43 H16         5.9982   -4.9878    3.8361 H         1 <0>         0.0763
     44 H17         6.1829   -5.7927    2.2593 H         1 <0>         0.0654
     45 H18         4.1595   -7.5794    0.8817 H         1 <0>         0.4046
     46 H19         5.1234   -7.5513   -0.4941 H         1 <0>         0.4045
     47 H20         2.0112   -5.4731   -0.8002 H         1 <0>         0.4339
@<TRIPOS>BOND
     1    1    2 1
     2    1   28 1
     3    1   29 1
     4    1   30 1
     5    2    7 ar
     6    2    3 ar
     7    3    4 ar
     8    3   31 1
     9    4    5 ar
    10    4   32 1
    11    5    6 ar
    12    5    8 1
    13    6    7 ar
    14    6   33 1
    15    7   34 1
    16    8    9 2
    17    8   10 2
    18    8   11 1
    19   11   12 1
    20   11   47 1
    21   12   16 1
    22   12   13 2
    23   13   14 1
    24   13   25 1
    25   14   15 2
    26   14   24 1
    27   15   16 1
    28   15   17 1
    29   17   18 1
    30   17   35 1
    31   17   36 1
    32   18   23 ar
    33   18   19 ar
    34   19   20 ar
    35   19   37 1
    36   20   21 ar
    37   20   38 1
    38   21   22 ar
    39   21   39 1
    40   22   23 ar
    41   22   40 1
    42   23   41 1
    43   24   42 1
    44   24   43 1
    45   24   44 1
    46   25   26 2
    47   25   27 am
    48   27   45 1
    49   27   46 1
@<TRIPOS>MOLECULE
ZINC02893312
   51    54     0     0     0
SMALL
USER_CHARGES
4-[3-[3-(4-aminophenyl)sulfanylphenyl]sulfonylphenyl]sulfanylaniline
@<TRIPOS>ATOM
      1 C1          1.2420    1.9877   -0.0115 C.ar      1 <0>        -0.1445
      2 C2          1.2068    3.3665    0.0566 C.ar      1 <0>        -0.0112
      3 C3         -0.0147    4.0269    0.1096 C.ar      1 <0>        -0.1557
      4 C4         -1.1972    3.2964    0.0938 C.ar      1 <0>         0.0319
      5 C5         -1.1543    1.9185    0.0198 C.ar      1 <0>        -0.6668
      6 C6          0.0636    1.2642   -0.0275 C.ar      1 <0>         0.0057
      7 S1         -2.6527    0.9917   -0.0082 S.o2      1 <0>         2.5811
      8 O1         -3.6598    1.8629   -0.5042 O.2       1 <0>        -0.9286
      9 O2         -2.3495   -0.2519   -0.6253 O.2       1 <0>        -0.9308
     10 C7         -3.0753    0.6341    1.6646 C.ar      1 <0>        -0.6409
     11 C8         -2.6153   -0.5265    2.2603 C.ar      1 <0>        -0.0296
     12 C9         -2.9405   -0.8090    3.5744 C.ar      1 <0>        -0.1188
     13 C10        -3.7349    0.0622    4.2935 C.ar      1 <0>        -0.0678
     14 C11        -4.2032    1.2264    3.6966 C.ar      1 <0>        -0.1174
     15 C12        -3.8699    1.5096    2.3772 C.ar      1 <0>        -0.0033
     16 S2         -5.2175    2.3407    4.6100 S.3       1 <0>         0.0060
     17 C13        -5.2315    1.6674    6.2382 C.ar      1 <0>        -0.2090
     18 C14        -6.2664    0.8297    6.6347 C.ar      1 <0>        -0.0129
     19 C15        -6.2738    0.2973    7.9085 C.ar      1 <0>        -0.2073
     20 C16        -5.2531    0.6086    8.7974 C.ar      1 <0>         0.2486
     21 C17        -4.2217    1.4510    8.4032 C.ar      1 <0>        -0.2073
     22 C18        -4.2106    1.9787    7.1275 C.ar      1 <0>        -0.0140
     23 N1         -5.2642    0.0738   10.0908 N.pl3     1 <0>        -0.8710
     24 S3         -0.0646    5.7861    0.1960 S.3       1 <0>        -0.0097
     25 C19         0.0376    6.2986   -1.4867 C.ar      1 <0>        -0.1586
     26 C20         0.0195    5.3522   -2.5035 C.ar      1 <0>        -0.0725
     27 C21         0.0932    5.7543   -3.8222 C.ar      1 <0>        -0.1806
     28 C22         0.1976    7.1042   -4.1318 C.ar      1 <0>         0.2173
     29 C23         0.2219    8.0501   -3.1151 C.ar      1 <0>        -0.1812
     30 C24         0.1420    7.6488   -1.7966 C.ar      1 <0>        -0.0445
     31 N2          0.2787    7.5113   -5.4685 N.pl3     1 <0>        -0.8774
     32 H1          2.1910    1.4738   -0.0527 H         1 <0>         0.1428
     33 H2          2.1275    3.9310    0.0683 H         1 <0>         0.1426
     34 H3         -2.1483    3.8063    0.1348 H         1 <0>         0.1529
     35 H4          0.0941    0.1860   -0.0815 H         1 <0>         0.1485
     36 H5         -1.9976   -1.2119    1.6990 H         1 <0>         0.1445
     37 H6         -2.5765   -1.7142    4.0375 H         1 <0>         0.1368
     38 H7         -3.9916   -0.1609    5.3185 H         1 <0>         0.1331
     39 H8         -4.2324    2.4134    1.9101 H         1 <0>         0.1475
     40 H9         -7.0627    0.5914    5.9451 H         1 <0>         0.1334
     41 H10        -7.0757   -0.3580    8.2152 H         1 <0>         0.1284
     42 H11        -3.4280    1.6930    9.0945 H         1 <0>         0.1279
     43 H12        -3.4081    2.6331    6.8207 H         1 <0>         0.1317
     44 H13        -4.5515    0.2914   10.7118 H         1 <0>         0.4021
     45 H14        -5.9845   -0.5146   10.3662 H         1 <0>         0.4022
     46 H15        -0.0569    4.3021   -2.2626 H         1 <0>         0.1191
     47 H16         0.0740    5.0189   -4.6129 H         1 <0>         0.1234
     48 H17         0.3031    9.0998   -3.3561 H         1 <0>         0.1267
     49 H18         0.1602    8.3844   -1.0061 H         1 <0>         0.1286
     50 H19         0.3519    8.4541   -5.6848 H         1 <0>         0.3995
     51 H20         0.2617    6.8507   -6.1786 H         1 <0>         0.3992
@<TRIPOS>BOND
     1    1    6 ar
     2    1    2 ar
     3    1   32 1
     4    2    3 ar
     5    2   33 1
     6    3    4 ar
     7    3   24 1
     8    4    5 ar
     9    4   34 1
    10    5    6 ar
    11    5    7 1
    12    6   35 1
    13    7    8 2
    14    7    9 2
    15    7   10 1
    16   10   15 ar
    17   10   11 ar
    18   11   12 ar
    19   11   36 1
    20   12   13 ar
    21   12   37 1
    22   13   14 ar
    23   13   38 1
    24   14   15 ar
    25   14   16 1
    26   15   39 1
    27   16   17 1
    28   17   22 ar
    29   17   18 ar
    30   18   19 ar
    31   18   40 1
    32   19   20 ar
    33   19   41 1
    34   20   21 ar
    35   20   23 1
    36   21   22 ar
    37   21   42 1
    38   22   43 1
    39   23   44 1
    40   23   45 1
    41   24   25 1
    42   25   30 ar
    43   25   26 ar
    44   26   27 ar
    45   26   46 1
    46   27   28 ar
    47   27   47 1
    48   28   29 ar
    49   28   31 1
    50   29   30 ar
    51   29   48 1
    52   30   49 1
    53   31   50 1
    54   31   51 1
@<TRIPOS>MOLECULE
ZINC06812969
   55    57     0     0     0
SMALL
USER_CHARGES
(5S)-3-hydroxy-5-(4-isopropylphenyl)-1-(2-methoxyethyl)-4-(4-methylbenzoyl)-5H-pyrrol-2-one
@<TRIPOS>ATOM
      1 C1         -3.4144   -2.0130    9.4172 C.3       1 <0>        -0.1145
      2 C2         -2.3035   -1.3985    8.6052 C.ar      1 <0>        -0.0776
      3 C3         -1.0204   -1.9091    8.6962 C.ar      1 <0>        -0.1378
      4 C4          0.0010   -1.3518    7.9555 C.ar      1 <0>        -0.0719
      5 C5         -0.2620   -0.2700    7.1124 C.ar      1 <0>        -0.1395
      6 C6         -1.5580    0.2435    7.0295 C.ar      1 <0>        -0.0616
      7 C7         -2.5711   -0.3267    7.7718 C.ar      1 <0>        -0.1394
      8 C8          0.8280    0.3328    6.3157 C.2       1 <0>         0.5014
      9 O1          1.9659   -0.0825    6.4293 O.2       1 <0>        -0.4764
     10 C9          0.5377    1.4309    5.3890 C.2       1 <0>        -0.4956
     11 C10         1.0193    2.6940    5.4578 C.2       1 <0>         0.2618
     12 C11         0.4779    3.4821    4.3303 C.2       1 <0>         0.5106
     13 O2          0.7245    4.6522    4.1154 O.2       1 <0>        -0.5408
     14 N1         -0.3277    2.7118    3.5768 N.am      1 <0>        -0.6056
     15 C12        -0.3617    1.3726    4.1764 C.3       1 <0>         0.2631
     16 H1         -1.3960    1.1038    4.4373 H         1 <0>         0.0639
     17 C13         0.1592    0.3530    3.1966 C.ar      1 <0>        -0.0589
     18 C14        -0.6608   -0.6729    2.7651 C.ar      1 <0>        -0.1065
     19 C15        -0.1845   -1.6052    1.8624 C.ar      1 <0>        -0.1212
     20 C16         1.1152   -1.5182    1.3998 C.ar      1 <0>        -0.0863
     21 C17         1.9368   -0.4954    1.8353 C.ar      1 <0>        -0.1234
     22 C18         1.4588    0.4402    2.7337 C.ar      1 <0>        -0.0438
     23 C19         1.6363   -2.5381    0.4204 C.3       1 <0>        -0.0542
     24 C20         1.5598   -3.9320    1.0465 C.3       1 <0>        -0.1429
     25 C21         0.7876   -2.5033   -0.8521 C.3       1 <0>        -0.1411
     26 C22        -1.0486    3.1364    2.3742 C.3       1 <0>         0.1396
     27 C23        -0.1192    3.0418    1.1625 C.3       1 <0>         0.0387
     28 O3          0.1590    1.6686    0.8816 O.3       1 <0>        -0.3585
     29 C24         0.9122    1.4611   -0.3149 C.3       1 <0>         0.0296
     30 O4          1.8619    3.1611    6.4075 O.3       1 <0>        -0.6554
     31 H2         -3.0147   -2.8460   10.0142 H         1 <0>         0.0624
     32 H3         -4.1975   -2.3884    8.7421 H         1 <0>         0.0673
     33 H4         -3.8418   -1.2531   10.0880 H         1 <0>         0.0677
     34 H5         -0.8183   -2.7455    9.3488 H         1 <0>         0.1193
     35 H6          1.0018   -1.7514    8.0271 H         1 <0>         0.1276
     36 H7         -1.7674    1.0826    6.3825 H         1 <0>         0.1331
     37 H8         -3.5746    0.0671    7.7058 H         1 <0>         0.1201
     38 H9         -1.6747   -0.7436    3.1302 H         1 <0>         0.1083
     39 H10        -0.8266   -2.4041    1.5219 H         1 <0>         0.1066
     40 H11         2.9523   -0.4274    1.4739 H         1 <0>         0.1054
     41 H12         2.1009    1.2391    3.0742 H         1 <0>         0.1077
     42 H13         2.6813   -2.2930    0.1798 H         1 <0>         0.0707
     43 H14         1.9402   -4.6764    0.3316 H         1 <0>         0.0510
     44 H15         0.5142   -4.1647    1.2967 H         1 <0>         0.0555
     45 H16         2.1700   -3.9570    1.9614 H         1 <0>         0.0560
     46 H17         1.1680   -3.2478   -1.5670 H         1 <0>         0.0509
     47 H18         0.8426   -1.5011   -1.3022 H         1 <0>         0.0534
     48 H19        -0.2580   -2.7360   -0.6019 H         1 <0>         0.0560
     49 H20        -1.9203    2.4835    2.2196 H         1 <0>         0.0845
     50 H21        -1.3863    4.1760    2.4970 H         1 <0>         0.0891
     51 H22        -0.6056    3.5032    0.2904 H         1 <0>         0.0505
     52 H23         0.8212    3.5695    1.3796 H         1 <0>         0.0518
     53 H24         1.0831    0.3840   -0.4584 H         1 <0>         0.0866
     54 H25         1.8797    1.9782   -0.2334 H         1 <0>         0.0335
     55 H26         0.3536    1.8614   -1.1738 H         1 <0>         0.0293
@<TRIPOS>BOND
     1    1    2 1
     2    1   31 1
     3    1   32 1
     4    1   33 1
     5    2    7 ar
     6    2    3 ar
     7    3    4 ar
     8    3   34 1
     9    4    5 ar
    10    4   35 1
    11    5    6 ar
    12    5    8 1
    13    6    7 ar
    14    6   36 1
    15    7   37 1
    16    8    9 2
    17    8   10 1
    18   10   15 1
    19   10   11 2
    20   11   12 1
    21   11   30 1
    22   12   13 2
    23   12   14 am
    24   14   15 1
    25   14   26 1
    26   15   16 1
    27   15   17 1
    28   17   22 ar
    29   17   18 ar
    30   18   19 ar
    31   18   38 1
    32   19   20 ar
    33   19   39 1
    34   20   21 ar
    35   20   23 1
    36   21   22 ar
    37   21   40 1
    38   22   41 1
    39   23   24 1
    40   23   25 1
    41   23   42 1
    42   24   43 1
    43   24   44 1
    44   24   45 1
    45   25   46 1
    46   25   47 1
    47   25   48 1
    48   26   27 1
    49   26   49 1
    50   26   50 1
    51   27   28 1
    52   27   51 1
    53   27   52 1
    54   28   29 1
    55   29   53 1
    56   29   54 1
    57   29   55 1
@<TRIPOS>MOLECULE
ZINC06812969
   56    58     0     0     0
SMALL
USER_CHARGES
(4E,5S)-4-[hydroxy-(p-tolyl)methylene]-5-(4-isopropylphenyl)-1-(2-methoxyethyl)pyrrolidine-2,3-dione
@<TRIPOS>ATOM
      1 C1         -2.3646   -4.7074    0.6015 C.3       1 <0>        -0.1233
      2 C2         -2.3975   -3.2084    0.4507 C.ar      1 <0>        -0.0526
      3 C3         -3.0314   -2.4340    1.4070 C.ar      1 <0>        -0.1261
      4 C4         -3.0661   -1.0619    1.2759 C.ar      1 <0>        -0.0746
      5 C5         -2.4635   -0.4533    0.1703 C.ar      1 <0>        -0.0910
      6 C6         -1.8200   -1.2422   -0.7887 C.ar      1 <0>        -0.0607
      7 C7         -1.7942   -2.6130   -0.6437 C.ar      1 <0>        -0.1210
      8 C8         -2.5014    1.0120    0.0194 C.2       1 <0>         0.3218
      9 C9         -3.6995    1.6863    0.1328 C.2       1 <0>        -0.3930
     10 C10        -5.0766    1.0764    0.2570 C.3       1 <0>         0.2461
     11 H1         -5.1333    0.4629    1.1561 H         1 <0>         0.0944
     12 N1         -6.0231    2.1916    0.3498 N.am      1 <0>        -0.5899
     13 C11        -5.3427    3.3488    0.2926 C.2       1 <0>         0.4865
     14 O1         -5.8434    4.4535    0.3448 O.2       1 <0>        -0.4731
     15 C12        -3.8850    3.0783    0.1624 C.2       1 <0>         0.3866
     16 O2         -3.0061    3.9178    0.0912 O.2       1 <0>        -0.4358
     17 C13        -7.4764    2.0650    0.4838 C.3       1 <0>         0.1352
     18 C14        -7.8494    2.0143    1.9667 C.3       1 <0>         0.0399
     19 O3         -7.5200    3.2605    2.5836 O.3       1 <0>        -0.3776
     20 C15        -7.8299    3.3189    3.9774 C.3       1 <0>         0.0316
     21 C16        -5.3820    0.2402   -0.9590 C.ar      1 <0>        -0.1044
     22 C17        -5.7782    0.8493   -2.1349 C.ar      1 <0>        -0.0947
     23 C18        -6.0542    0.0826   -3.2516 C.ar      1 <0>        -0.1136
     24 C19        -5.9428   -1.2939   -3.1896 C.ar      1 <0>        -0.0671
     25 C20        -5.5517   -1.9034   -2.0121 C.ar      1 <0>        -0.1145
     26 C21        -5.2715   -1.1363   -0.8967 C.ar      1 <0>        -0.0980
     27 C22        -6.2473   -2.1300   -4.4058 C.3       1 <0>        -0.0583
     28 C23        -7.6969   -1.8959   -4.8358 C.3       1 <0>        -0.1450
     29 C24        -5.3069   -1.7336   -5.5457 C.3       1 <0>        -0.1449
     30 O4         -1.3636    1.6946   -0.2297 O.3       1 <0>        -0.4357
     31 H2         -3.2371   -5.1410    0.1127 H         1 <0>         0.0772
     32 H3         -1.4579   -5.0991    0.1405 H         1 <0>         0.0711
     33 H4         -2.3751   -4.9664    1.6602 H         1 <0>         0.0712
     34 H5         -3.5002   -2.9058    2.2579 H         1 <0>         0.1332
     35 H6         -3.5613   -0.4590    2.0226 H         1 <0>         0.1319
     36 H7         -1.3488   -0.7791   -1.6430 H         1 <0>         0.1304
     37 H8         -1.3021   -3.2240   -1.3860 H         1 <0>         0.1310
     38 H9         -7.9605    2.9227    0.0165 H         1 <0>         0.0972
     39 H10        -7.8080    1.1494   -0.0058 H         1 <0>         0.1015
     40 H11        -8.9193    1.8312    2.0663 H         1 <0>         0.0641
     41 H12        -7.2964    1.2107    2.4532 H         1 <0>         0.0523
     42 H13        -7.5502    4.2961    4.3711 H         1 <0>         0.0864
     43 H14        -8.8994    3.1629    4.1186 H         1 <0>         0.0415
     44 H15        -7.2766    2.5424    4.5055 H         1 <0>         0.0389
     45 H16        -5.8689    1.9245   -2.1823 H         1 <0>         0.1161
     46 H17        -6.3595    0.5588   -4.1716 H         1 <0>         0.1211
     47 H18        -5.4647   -2.9788   -1.9637 H         1 <0>         0.1204
     48 H19        -4.9660   -1.6125    0.0232 H         1 <0>         0.1244
     49 H20        -6.1048   -3.1840   -4.1671 H         1 <0>         0.0771
     50 H21        -7.8393   -0.8419   -5.0745 H         1 <0>         0.0568
     51 H22        -7.9171   -2.5006   -5.7155 H         1 <0>         0.0588
     52 H23        -8.3669   -2.1783   -4.0238 H         1 <0>         0.0559
     53 H24        -4.2742   -1.9004   -5.2394 H         1 <0>         0.0555
     54 H25        -5.5271   -2.3384   -6.4254 H         1 <0>         0.0588
     55 H26        -5.4493   -0.6796   -5.7844 H         1 <0>         0.0567
     56 H27        -1.5695    2.6705   -0.3022 H         1 <0>         0.4232
@<TRIPOS>BOND
     1    1    2 1
     2    1   31 1
     3    1   32 1
     4    1   33 1
     5    2    7 ar
     6    2    3 ar
     7    3    4 ar
     8    3   34 1
     9    4    5 ar
    10    4   35 1
    11    5    6 ar
    12    5    8 1
    13    6    7 ar
    14    6   36 1
    15    7   37 1
    16    8    9 2
    17    8   30 1
    18    9   15 1
    19    9   10 1
    20   10   11 1
    21   10   12 1
    22   10   21 1
    23   12   13 am
    24   12   17 1
    25   13   14 2
    26   13   15 1
    27   15   16 2
    28   17   18 1
    29   17   38 1
    30   17   39 1
    31   18   19 1
    32   18   40 1
    33   18   41 1
    34   19   20 1
    35   20   42 1
    36   20   43 1
    37   20   44 1
    38   21   26 ar
    39   21   22 ar
    40   22   23 ar
    41   22   45 1
    42   23   24 ar
    43   23   46 1
    44   24   25 ar
    45   24   27 1
    46   25   26 ar
    47   25   47 1
    48   26   48 1
    49   27   28 1
    50   27   29 1
    51   27   49 1
    52   28   50 1
    53   28   51 1
    54   28   52 1
    55   29   53 1
    56   29   54 1
    57   29   55 1
    58   30   56 1
@<TRIPOS>MOLECULE
ZINC13208053
   55    57     0     0     0
SMALL
USER_CHARGES
(5R)-3-hydroxy-5-(4-isopropylphenyl)-1-(2-methoxyethyl)-4-(4-methylbenzoyl)-5H-pyrrol-2-one
@<TRIPOS>ATOM
      1 C1          5.4153    8.1902    3.5994 C.3       1 <0>        -0.1146
      2 C2          4.0384    7.6282    3.3555 C.ar      1 <0>        -0.0774
      3 C3          3.4537    6.8036    4.3007 C.ar      1 <0>        -0.1381
      4 C4          2.1938    6.2858    4.0839 C.ar      1 <0>        -0.0723
      5 C5          1.5082    6.5954    2.9073 C.ar      1 <0>        -0.1405
      6 C6          2.1065    7.4235    1.9552 C.ar      1 <0>        -0.0599
      7 C7          3.3648    7.9387    2.1872 C.ar      1 <0>        -0.1394
      8 C8          0.1572    6.0440    2.6680 C.2       1 <0>         0.5041
      9 O1         -0.4011    5.4029    3.5384 O.2       1 <0>        -0.4761
     10 C9         -0.5094    6.2699    1.3822 C.2       1 <0>        -0.5023
     11 C10        -1.6306    6.9984    1.1710 C.2       1 <0>         0.2647
     12 C11        -1.9650    6.9683   -0.2686 C.2       1 <0>         0.5162
     13 O2         -2.9168    7.5284   -0.7752 O.2       1 <0>        -0.5232
     14 N1         -1.0594    6.2295   -0.9350 N.am      1 <0>        -0.6104
     15 C12        -0.0782    5.7335    0.0372 C.3       1 <0>         0.2651
     16 H1          0.9310    6.0715   -0.2409 H         1 <0>         0.0653
     17 C13        -0.0825    4.2266    0.0548 C.ar      1 <0>        -0.0783
     18 C14         1.1091    3.5310   -0.0290 C.ar      1 <0>        -0.1140
     19 C15         1.1052    2.1487   -0.0129 C.ar      1 <0>        -0.1237
     20 C16        -0.0904    1.4621    0.0870 C.ar      1 <0>        -0.0872
     21 C17        -1.2825    2.1576    0.1654 C.ar      1 <0>        -0.1213
     22 C18        -1.2781    3.5399    0.1551 C.ar      1 <0>        -0.0769
     23 C19        -0.0948   -0.0448    0.1041 C.3       1 <0>        -0.0531
     24 C20        -0.7193   -0.5382    1.4108 C.3       1 <0>        -0.1450
     25 C21        -0.9114   -0.5660   -1.0801 C.3       1 <0>        -0.1429
     26 C22        -1.0539    5.9663   -2.3762 C.3       1 <0>         0.1387
     27 C23        -1.8576    4.6970   -2.6658 C.3       1 <0>         0.0327
     28 O3         -3.2287    4.9134   -2.3262 O.3       1 <0>        -0.3677
     29 C24        -4.0708    3.7828   -2.5600 C.3       1 <0>         0.0309
     30 O4         -2.3330    7.6506    2.1256 O.3       1 <0>        -0.6562
     31 H2          5.7886    7.8367    4.5719 H         1 <0>         0.0624
     32 H3          5.3675    9.2892    3.6024 H         1 <0>         0.0679
     33 H4          6.0947    7.8549    2.8019 H         1 <0>         0.0673
     34 H5          3.9849    6.5653    5.2103 H         1 <0>         0.1192
     35 H6          1.7388    5.6421    4.8221 H         1 <0>         0.1272
     36 H7          1.5835    7.6633    1.0412 H         1 <0>         0.1336
     37 H8          3.8270    8.5825    1.4535 H         1 <0>         0.1204
     38 H9          2.0432    4.0674   -0.1074 H         1 <0>         0.1171
     39 H10         2.0361    1.6053   -0.0786 H         1 <0>         0.1137
     40 H11        -2.2169    1.6211    0.2390 H         1 <0>         0.1125
     41 H12        -2.2091    4.0834    0.2208 H         1 <0>         0.1189
     42 H13         0.9433   -0.4005    0.0279 H         1 <0>         0.0729
     43 H14        -0.7225   -1.6381    1.4232 H         1 <0>         0.0533
     44 H15        -1.7522   -0.1676    1.4864 H         1 <0>         0.0573
     45 H16        -0.1321   -0.1636    2.2622 H         1 <0>         0.0568
     46 H17        -0.9145   -1.6659   -1.0675 H         1 <0>         0.0537
     47 H18        -0.4624   -0.2113   -2.0196 H         1 <0>         0.0540
     48 H19        -1.9444   -0.1955   -1.0046 H         1 <0>         0.0561
     49 H20        -1.5080    6.8167   -2.9059 H         1 <0>         0.0858
     50 H21        -0.0179    5.8309   -2.7203 H         1 <0>         0.0882
     51 H22        -1.7793    4.4493   -3.7347 H         1 <0>         0.0477
     52 H23        -1.4583    3.8654   -2.0666 H         1 <0>         0.0626
     53 H24        -5.1040    4.0299   -2.2747 H         1 <0>         0.0827
     54 H25        -3.7178    2.9321   -1.9586 H         1 <0>         0.0373
     55 H26        -4.0388    3.5161   -3.6267 H         1 <0>         0.0340
@<TRIPOS>BOND
     1    1    2 1
     2    1   31 1
     3    1   32 1
     4    1   33 1
     5    2    7 ar
     6    2    3 ar
     7    3    4 ar
     8    3   34 1
     9    4    5 ar
    10    4   35 1
    11    5    6 ar
    12    5    8 1
    13    6    7 ar
    14    6   36 1
    15    7   37 1
    16    8    9 2
    17    8   10 1
    18   10   15 1
    19   10   11 2
    20   11   12 1
    21   11   30 1
    22   12   13 2
    23   12   14 am
    24   14   15 1
    25   14   26 1
    26   15   16 1
    27   15   17 1
    28   17   22 ar
    29   17   18 ar
    30   18   19 ar
    31   18   38 1
    32   19   20 ar
    33   19   39 1
    34   20   21 ar
    35   20   23 1
    36   21   22 ar
    37   21   40 1
    38   22   41 1
    39   23   24 1
    40   23   25 1
    41   23   42 1
    42   24   43 1
    43   24   44 1
    44   24   45 1
    45   25   46 1
    46   25   47 1
    47   25   48 1
    48   26   27 1
    49   26   49 1
    50   26   50 1
    51   27   28 1
    52   27   51 1
    53   27   52 1
    54   28   29 1
    55   29   53 1
    56   29   54 1
    57   29   55 1
@<TRIPOS>MOLECULE
ZINC06812943
   58    60     0     0     0
SMALL
USER_CHARGES
(5S)-3-hydroxy-5-(4-isopropylphenyl)-1-(3-methoxypropyl)-4-(4-methylbenzoyl)-5H-pyrrol-2-one
@<TRIPOS>ATOM
      1 C1          7.0217   -0.6496   -2.2300 C.3       1 <0>        -0.1148
      2 C2          5.9765    0.4327   -2.3156 C.ar      1 <0>        -0.0767
      3 C3          5.3168    0.6601   -3.5107 C.ar      1 <0>        -0.1378
      4 C4          4.3591    1.6490   -3.5961 C.ar      1 <0>        -0.0719
      5 C5          4.0555    2.4213   -2.4728 C.ar      1 <0>        -0.1411
      6 C6          4.7285    2.1897   -1.2713 C.ar      1 <0>        -0.0607
      7 C7          5.6806    1.1943   -1.1987 C.ar      1 <0>        -0.1389
      8 C8          3.0304    3.4835   -2.5570 C.2       1 <0>         0.5027
      9 O1          2.5229    3.7557   -3.6287 O.2       1 <0>        -0.4751
     10 C9          2.6255    4.2087   -1.3491 C.2       1 <0>        -0.4964
     11 C10         2.8008    5.5282   -1.1027 C.2       1 <0>         0.2636
     12 C11         2.2480    5.8507    0.2299 C.2       1 <0>         0.5120
     13 O2          2.2528    6.9542    0.7383 O.2       1 <0>        -0.5347
     14 N1          1.7386    4.7408    0.7975 N.am      1 <0>        -0.6109
     15 C12         1.9312    3.6278   -0.1394 C.3       1 <0>         0.2644
     16 H1          2.5240    2.8336    0.3379 H         1 <0>         0.0679
     17 C13         0.5980    3.0478   -0.5360 C.ar      1 <0>        -0.0751
     18 C14         0.4488    1.6791   -0.6592 C.ar      1 <0>        -0.1127
     19 C15        -0.7740    1.1471   -1.0234 C.ar      1 <0>        -0.1199
     20 C16        -1.8462    1.9842   -1.2696 C.ar      1 <0>        -0.0891
     21 C17        -1.6985    3.3526   -1.1408 C.ar      1 <0>        -0.1155
     22 C18        -0.4756    3.8846   -0.7770 C.ar      1 <0>        -0.0895
     23 C19        -3.1776    1.4046   -1.6727 C.3       1 <0>        -0.0532
     24 C20        -4.2387    1.8006   -0.6440 C.3       1 <0>        -0.1431
     25 C21        -3.5738    1.9452   -3.0480 C.3       1 <0>        -0.1452
     26 C22         1.1039    4.6583    2.1153 C.3       1 <0>         0.1402
     27 C23         2.1640    4.3467    3.1735 C.3       1 <0>        -0.1378
     28 C24         1.5011    4.2605    4.5497 C.3       1 <0>         0.0649
     29 O3          2.4913    3.9694    5.5380 O.3       1 <0>        -0.3907
     30 C25         1.9742    3.8671    6.8663 C.3       1 <0>         0.0295
     31 O4          3.3878    6.4113   -1.9426 O.3       1 <0>        -0.6532
     32 H2          7.1189   -1.1436   -3.2080 H         1 <0>         0.0625
     33 H3          6.7219   -1.3898   -1.4735 H         1 <0>         0.0676
     34 H4          7.9871   -0.2054   -1.9460 H         1 <0>         0.0680
     35 H5          5.5525    0.0621   -4.3785 H         1 <0>         0.1195
     36 H6          3.8449    1.8254   -4.5293 H         1 <0>         0.1275
     37 H7          4.5017    2.7863   -0.4001 H         1 <0>         0.1333
     38 H8          6.1992    1.0117   -0.2691 H         1 <0>         0.1208
     39 H9          1.2877    1.0253   -0.4713 H         1 <0>         0.1174
     40 H10        -0.8905    0.0777   -1.1200 H         1 <0>         0.1144
     41 H11        -2.5374    4.0063   -1.3288 H         1 <0>         0.1142
     42 H12        -0.3590    4.9539   -0.6808 H         1 <0>         0.1153
     43 H13        -3.0866    0.3091   -1.7135 H         1 <0>         0.0730
     44 H14        -5.2105    1.3775   -0.9382 H         1 <0>         0.0535
     45 H15        -4.3146    2.8971   -0.5990 H         1 <0>         0.0567
     46 H16        -3.9538    1.4119    0.3448 H         1 <0>         0.0543
     47 H17        -4.5456    1.5221   -3.3422 H         1 <0>         0.0535
     48 H18        -2.8109    1.6605   -3.7876 H         1 <0>         0.0570
     49 H19        -3.6497    3.0417   -3.0030 H         1 <0>         0.0574
     50 H20         0.6219    5.6186    2.3509 H         1 <0>         0.0791
     51 H21         0.3470    3.8601    2.1084 H         1 <0>         0.0769
     52 H22         2.6460    3.3864    2.9379 H         1 <0>         0.0746
     53 H23         2.9209    5.1449    3.1805 H         1 <0>         0.0769
     54 H24         1.0191    5.2208    4.7853 H         1 <0>         0.0507
     55 H25         0.7442    3.4623    4.5428 H         1 <0>         0.0498
     56 H26         2.7952    3.6426    7.5631 H         1 <0>         0.0847
     57 H27         1.2272    3.0607    6.9079 H         1 <0>         0.0399
     58 H28         1.5022    4.8192    7.1503 H         1 <0>         0.0404
@<TRIPOS>BOND
     1    1    2 1
     2    1   32 1
     3    1   33 1
     4    1   34 1
     5    2    7 ar
     6    2    3 ar
     7    3    4 ar
     8    3   35 1
     9    4    5 ar
    10    4   36 1
    11    5    6 ar
    12    5    8 1
    13    6    7 ar
    14    6   37 1
    15    7   38 1
    16    8    9 2
    17    8   10 1
    18   10   15 1
    19   10   11 2
    20   11   12 1
    21   11   31 1
    22   12   13 2
    23   12   14 am
    24   14   15 1
    25   14   26 1
    26   15   16 1
    27   15   17 1
    28   17   22 ar
    29   17   18 ar
    30   18   19 ar
    31   18   39 1
    32   19   20 ar
    33   19   40 1
    34   20   21 ar
    35   20   23 1
    36   21   22 ar
    37   21   41 1
    38   22   42 1
    39   23   24 1
    40   23   25 1
    41   23   43 1
    42   24   44 1
    43   24   45 1
    44   24   46 1
    45   25   47 1
    46   25   48 1
    47   25   49 1
    48   26   27 1
    49   26   50 1
    50   26   51 1
    51   27   28 1
    52   27   52 1
    53   27   53 1
    54   28   29 1
    55   28   54 1
    56   28   55 1
    57   29   30 1
    58   30   56 1
    59   30   57 1
    60   30   58 1
@<TRIPOS>MOLECULE
ZINC06812943
   59    61     0     0     0
SMALL
USER_CHARGES
(4E,5S)-4-[hydroxy-(p-tolyl)methylene]-5-(4-isopropylphenyl)-1-(3-methoxypropyl)pyrrolidine-2,3-dione
@<TRIPOS>ATOM
      1 C1          2.8514   -3.6180   -2.4320 C.3       1 <0>        -0.1235
      2 C2          3.1808   -2.1479   -2.4669 C.ar      1 <0>        -0.0520
      3 C3          2.4126   -1.2881   -3.2329 C.ar      1 <0>        -0.1209
      4 C4          2.7081    0.0580   -3.2706 C.ar      1 <0>        -0.0605
      5 C5          3.7869    0.5543   -2.5320 C.ar      1 <0>        -0.0926
      6 C6          4.5615   -0.3214   -1.7646 C.ar      1 <0>        -0.0741
      7 C7          4.2501   -1.6642   -1.7329 C.ar      1 <0>        -0.1255
      8 C8          4.1095    1.9917   -2.5668 C.2       1 <0>         0.3260
      9 C9          4.2728    2.6906   -1.3887 C.2       1 <0>        -0.3951
     10 C10         4.0197    2.1816    0.0116 C.3       1 <0>         0.2453
     11 H1          4.6652    1.3288    0.2218 H         1 <0>         0.0982
     12 N1          4.3341    3.2856    0.9230 N.am      1 <0>        -0.5889
     13 C11         4.7315    4.3479    0.2027 C.2       1 <0>         0.4825
     14 O1          5.0620    5.4195    0.6677 O.2       1 <0>        -0.4857
     15 C12         4.7078    4.0187   -1.2485 C.2       1 <0>         0.3873
     16 O2          5.0127    4.7702   -2.1566 O.2       1 <0>        -0.4340
     17 C13         4.2316    3.2384    2.3836 C.3       1 <0>         0.1358
     18 C14         5.5620    2.7659    2.9733 C.3       1 <0>        -0.1378
     19 C15         5.4549    2.7166    4.4987 C.3       1 <0>         0.0645
     20 O3          6.6975    2.2754    5.0494 O.3       1 <0>        -0.3914
     21 C16         6.7046    2.1938    6.4761 C.3       1 <0>         0.0313
     22 C17         2.5741    1.7837    0.1625 C.ar      1 <0>        -0.1041
     23 C18         1.6038    2.7541    0.3286 C.ar      1 <0>        -0.0943
     24 C19         0.2776    2.3891    0.4660 C.ar      1 <0>        -0.1175
     25 C20        -0.0781    1.0536    0.4394 C.ar      1 <0>        -0.0665
     26 C21         0.8924    0.0830    0.2752 C.ar      1 <0>        -0.1105
     27 C22         2.2185    0.4481    0.1367 C.ar      1 <0>        -0.0965
     28 C23        -1.5238    0.6557    0.5898 C.3       1 <0>        -0.0595
     29 C24        -1.9743   -0.1099   -0.6559 C.3       1 <0>        -0.1438
     30 C25        -1.6814   -0.2374    1.8220 C.3       1 <0>        -0.1443
     31 O4          4.2452    2.6245   -3.7515 O.3       1 <0>        -0.4346
     32 H2          3.3947   -4.1310   -3.2257 H         1 <0>         0.0772
     33 H3          3.1416   -4.0326   -1.4666 H         1 <0>         0.0716
     34 H4          1.7799   -3.7539   -2.5785 H         1 <0>         0.0710
     35 H5          1.5797   -1.6730   -3.8028 H         1 <0>         0.1309
     36 H6          2.1082    0.7274   -3.8693 H         1 <0>         0.1300
     37 H7          5.3991    0.0537   -1.1953 H         1 <0>         0.1325
     38 H8          4.8449   -2.3412   -1.1376 H         1 <0>         0.1337
     39 H9          3.9984    4.2330    2.7638 H         1 <0>         0.0909
     40 H10         3.4406    2.5453    2.6701 H         1 <0>         0.0896
     41 H11         5.7951    1.7714    2.5931 H         1 <0>         0.0763
     42 H12         6.3529    3.4591    2.6868 H         1 <0>         0.0783
     43 H13         5.2217    3.7112    4.8789 H         1 <0>         0.0528
     44 H14         4.6639    2.0235    4.7852 H         1 <0>         0.0520
     45 H15         7.6823    1.8518    6.8156 H         1 <0>         0.0875
     46 H16         6.4974    3.1775    6.8973 H         1 <0>         0.0426
     47 H17         5.9396    1.4898    6.8036 H         1 <0>         0.0421
     48 H18         1.8816    3.7976    0.3491 H         1 <0>         0.1151
     49 H19        -0.4812    3.1476    0.5898 H         1 <0>         0.1210
     50 H20         0.6146   -0.9604    0.2547 H         1 <0>         0.1211
     51 H21         2.9767   -0.3102    0.0081 H         1 <0>         0.1243
     52 H22        -2.1363    1.5495    0.7082 H         1 <0>         0.0770
     53 H23        -1.3619   -1.0038   -0.7743 H         1 <0>         0.0568
     54 H24        -3.0200   -0.3977   -0.5472 H         1 <0>         0.0586
     55 H25        -1.8620    0.5263   -1.5338 H         1 <0>         0.0554
     56 H26        -1.3604    0.3080    2.7095 H         1 <0>         0.0557
     57 H27        -2.7271   -0.5252    1.9308 H         1 <0>         0.0587
     58 H28        -1.0690   -1.1313    1.7036 H         1 <0>         0.0568
     59 H29         4.4623    3.5875   -3.5920 H         1 <0>         0.4232
@<TRIPOS>BOND
     1    1    2 1
     2    1   32 1
     3    1   33 1
     4    1   34 1
     5    2    7 ar
     6    2    3 ar
     7    3    4 ar
     8    3   35 1
     9    4    5 ar
    10    4   36 1
    11    5    6 ar
    12    5    8 1
    13    6    7 ar
    14    6   37 1
    15    7   38 1
    16    8    9 2
    17    8   31 1
    18    9   15 1
    19    9   10 1
    20   10   11 1
    21   10   12 1
    22   10   22 1
    23   12   13 am
    24   12   17 1
    25   13   14 2
    26   13   15 1
    27   15   16 2
    28   17   18 1
    29   17   39 1
    30   17   40 1
    31   18   19 1
    32   18   41 1
    33   18   42 1
    34   19   20 1
    35   19   43 1
    36   19   44 1
    37   20   21 1
    38   21   45 1
    39   21   46 1
    40   21   47 1
    41   22   27 ar
    42   22   23 ar
    43   23   24 ar
    44   23   48 1
    45   24   25 ar
    46   24   49 1
    47   25   26 ar
    48   25   28 1
    49   26   27 ar
    50   26   50 1
    51   27   51 1
    52   28   29 1
    53   28   30 1
    54   28   52 1
    55   29   53 1
    56   29   54 1
    57   29   55 1
    58   30   56 1
    59   30   57 1
    60   30   58 1
    61   31   59 1
@<TRIPOS>MOLECULE
ZINC06812943
   59    61     0     0     0
SMALL
USER_CHARGES
(4E,5S)-4-[hydroxy-(p-tolyl)methylene]-5-(4-isopropylphenyl)-1-(3-methoxypropyl)pyrrolidine-2,3-dione
@<TRIPOS>ATOM
      1 C1          4.6867    4.6874   -7.6135 C.3       1 <0>        -0.1224
      2 C2          4.5359    3.9813   -6.2908 C.ar      1 <0>        -0.0515
      3 C3          5.2308    2.8079   -6.0535 C.ar      1 <0>        -0.1258
      4 C4          5.0974    2.1556   -4.8462 C.ar      1 <0>        -0.0510
      5 C5          4.2577    2.6827   -3.8599 C.ar      1 <0>        -0.1505
      6 C6          3.5549    3.8658   -4.1091 C.ar      1 <0>        -0.0655
      7 C7          3.7029    4.5093   -5.3195 C.ar      1 <0>        -0.1186
      8 C8          4.1095    1.9917   -2.5668 C.2       1 <0>         0.4032
      9 C9          4.2728    2.6906   -1.3887 C.3       1 <0>        -0.2025
     10 C10         4.0197    2.1816    0.0116 C.3       1 <0>         0.2151
     11 H1          4.6652    1.3288    0.2218 H         1 <0>         0.1254
     12 N1          4.3341    3.2856    0.9230 N.am      1 <0>        -0.5864
     13 C11         4.7315    4.3479    0.2027 C.2       1 <0>         0.4812
     14 O1          5.0620    5.4195    0.6677 O.2       1 <0>        -0.4664
     15 C12         4.7078    4.0187   -1.2485 C.2       1 <0>         0.3624
     16 O2          5.0127    4.7702   -2.1566 O.2       1 <0>        -0.3676
     17 C13         4.2316    3.2384    2.3836 C.3       1 <0>         0.1363
     18 C14         5.5620    2.7659    2.9733 C.3       1 <0>        -0.1401
     19 C15         5.4549    2.7166    4.4987 C.3       1 <0>         0.0645
     20 O3          6.6975    2.2754    5.0494 O.3       1 <0>        -0.3909
     21 C16         6.7046    2.1938    6.4761 C.3       1 <0>         0.0313
     22 C17         2.5741    1.7837    0.1625 C.ar      1 <0>        -0.1324
     23 C18         1.6038    2.7541    0.3286 C.ar      1 <0>        -0.1049
     24 C19         0.2776    2.3891    0.4660 C.ar      1 <0>        -0.1181
     25 C20        -0.0781    1.0536    0.4394 C.ar      1 <0>        -0.0582
     26 C21         0.8924    0.0830    0.2752 C.ar      1 <0>        -0.1130
     27 C22         2.2185    0.4481    0.1367 C.ar      1 <0>        -0.0689
     28 C23        -1.5238    0.6557    0.5898 C.3       1 <0>        -0.0607
     29 C24        -1.9743   -0.1099   -0.6559 C.3       1 <0>        -0.1459
     30 C25        -1.6814   -0.2374    1.8220 C.3       1 <0>        -0.1450
     31 O4          3.8140    0.6749   -2.5351 O.2       1 <0>        -0.4798
     32 H2          3.9367    4.3154   -8.3116 H         1 <0>         0.0772
     33 H3          4.5501    5.7594   -7.4708 H         1 <0>         0.0716
     34 H4          5.6823    4.4983   -8.0150 H         1 <0>         0.0721
     35 H5          5.8789    2.4022   -6.8163 H         1 <0>         0.1340
     36 H6          5.6397    1.2398   -4.6628 H         1 <0>         0.1347
     37 H7          2.9009    4.2763   -3.3541 H         1 <0>         0.1160
     38 H8          3.1640    5.4252   -5.5120 H         1 <0>         0.1318
     39 H9          3.9984    4.2330    2.7638 H         1 <0>         0.0951
     40 H10         3.4406    2.5453    2.6701 H         1 <0>         0.0944
     41 H11         5.7951    1.7714    2.5931 H         1 <0>         0.0795
     42 H12         6.3529    3.4591    2.6868 H         1 <0>         0.0800
     43 H13         5.2217    3.7112    4.8789 H         1 <0>         0.0530
     44 H14         4.6639    2.0235    4.7852 H         1 <0>         0.0527
     45 H15         7.6823    1.8518    6.8156 H         1 <0>         0.0879
     46 H16         6.4974    3.1775    6.8973 H         1 <0>         0.0427
     47 H17         5.9396    1.4898    6.8036 H         1 <0>         0.0425
     48 H18         1.8816    3.7976    0.3491 H         1 <0>         0.1165
     49 H19        -0.4812    3.1476    0.5898 H         1 <0>         0.1250
     50 H20         0.6146   -0.9604    0.2547 H         1 <0>         0.1273
     51 H21         2.9767   -0.3102    0.0081 H         1 <0>         0.1323
     52 H22        -2.1363    1.5495    0.7082 H         1 <0>         0.0787
     53 H23        -1.3619   -1.0038   -0.7743 H         1 <0>         0.0585
     54 H24        -3.0200   -0.3977   -0.5472 H         1 <0>         0.0606
     55 H25        -1.8620    0.5263   -1.5338 H         1 <0>         0.0559
     56 H26        -1.3604    0.3080    2.7095 H         1 <0>         0.0563
     57 H27        -2.7271   -0.5252    1.9308 H         1 <0>         0.0604
     58 H28        -1.0690   -1.1313    1.7036 H         1 <0>         0.0582
     59 H29         3.4357    3.1009   -1.7506 H         1 <0>         0.1520
@<TRIPOS>BOND
     1    1    2 1
     2    1   32 1
     3    1   33 1
     4    1   34 1
     5    2    7 ar
     6    2    3 ar
     7    3    4 ar
     8    3   35 1
     9    4    5 ar
    10    4   36 1
    11    5    6 ar
    12    5    8 1
    13    6    7 ar
    14    6   37 1
    15    7   38 1
    16    8    9 1
    17    8   31 2
    18    9   59 1
    19    9   10 1
    20    9   15 1
    21   10   11 1
    22   10   12 1
    23   10   22 1
    24   12   13 am
    25   12   17 1
    26   13   14 2
    27   13   15 1
    28   15   16 2
    29   17   18 1
    30   17   39 1
    31   17   40 1
    32   18   19 1
    33   18   41 1
    34   18   42 1
    35   19   20 1
    36   19   43 1
    37   19   44 1
    38   20   21 1
    39   21   45 1
    40   21   46 1
    41   21   47 1
    42   22   27 ar
    43   22   23 ar
    44   23   24 ar
    45   23   48 1
    46   24   25 ar
    47   24   49 1
    48   25   26 ar
    49   25   28 1
    50   26   27 ar
    51   26   50 1
    52   27   51 1
    53   28   29 1
    54   28   30 1
    55   28   52 1
    56   29   53 1
    57   29   54 1
    58   29   55 1
    59   30   56 1
    60   30   57 1
    61   30   58 1
@<TRIPOS>MOLECULE
ZINC13161742
   58    60     0     0     0
SMALL
USER_CHARGES
(2R)-4-hydroxy-2-(4-isopropylphenyl)-1-(3-methoxypropyl)-3-(4-methylbenzoyl)-2H-pyrrol-5-one
@<TRIPOS>ATOM
      1 C1          1.0652    7.0323    4.0584 C.3       1 <0>        -0.1147
      2 C2          1.2986    6.0388    2.9495 C.ar      1 <0>        -0.0770
      3 C3          1.9064    6.4474    1.7753 C.ar      1 <0>        -0.1379
      4 C4          2.1231    5.5434    0.7564 C.ar      1 <0>        -0.0718
      5 C5          1.7275    4.2131    0.9118 C.ar      1 <0>        -0.1408
      6 C6          1.1094    3.8089    2.0971 C.ar      1 <0>        -0.0601
      7 C7          0.9037    4.7222    3.1100 C.ar      1 <0>        -0.1394
      8 C8          1.9565    3.2383   -0.1762 C.2       1 <0>         0.5042
      9 O1          2.5798    3.5684   -1.1675 O.2       1 <0>        -0.4743
     10 C9          1.4325    1.8742   -0.0603 C.2       1 <0>        -0.4976
     11 C10         2.1587    0.7364    0.0421 C.2       1 <0>         0.2624
     12 C11         1.2407   -0.4185    0.1367 C.2       1 <0>         0.5116
     13 O2          1.5875   -1.5783    0.2392 O.2       1 <0>        -0.5353
     14 N1         -0.0356    0.0048    0.0929 N.am      1 <0>        -0.6107
     15 C12        -0.0222    1.4669   -0.0334 C.3       1 <0>         0.2646
     16 H1         -0.5658    1.9221    0.8076 H         1 <0>         0.0675
     17 C13        -0.7004    1.8827   -1.3133 C.ar      1 <0>        -0.0786
     18 C14        -0.3647    1.2676   -2.5049 C.ar      1 <0>        -0.0783
     19 C15        -0.9903    1.6457   -3.6781 C.ar      1 <0>        -0.1154
     20 C16        -1.9445    2.6457   -3.6614 C.ar      1 <0>        -0.0857
     21 C17        -2.2761    3.2648   -2.4707 C.ar      1 <0>        -0.1228
     22 C18        -1.6543    2.8831   -1.2967 C.ar      1 <0>        -0.1140
     23 C19        -2.6228    3.0615   -4.9413 C.3       1 <0>        -0.0529
     24 C20        -1.5737    3.5675   -5.9334 C.3       1 <0>        -0.1450
     25 C21        -3.3565    1.8612   -5.5429 C.3       1 <0>        -0.1427
     26 C22        -1.2280   -0.8438    0.1590 C.3       1 <0>         0.1418
     27 C23        -1.6344   -1.2634   -1.2551 C.3       1 <0>        -0.1454
     28 C24        -2.8797   -2.1496   -1.1861 C.3       1 <0>         0.0663
     29 O3         -3.2593   -2.5415   -2.5068 O.3       1 <0>        -0.3882
     30 C25        -4.4180   -3.3764   -2.5549 C.3       1 <0>         0.0298
     31 O4          3.5096    0.6671    0.0553 O.3       1 <0>        -0.6548
     32 H2          1.4418    8.0193    3.7517 H         1 <0>         0.0625
     33 H3          1.5958    6.7026    4.9638 H         1 <0>         0.0679
     34 H4         -0.0123    7.1002    4.2691 H         1 <0>         0.0675
     35 H5          2.2122    7.4764    1.6566 H         1 <0>         0.1195
     36 H6          2.5972    5.8636   -0.1596 H         1 <0>         0.1275
     37 H7          0.7970    2.7826    2.2220 H         1 <0>         0.1332
     38 H8          0.4295    4.4101    4.0288 H         1 <0>         0.1205
     39 H9          0.3837    0.4891   -2.5185 H         1 <0>         0.1152
     40 H10        -0.7309    1.1623   -4.6084 H         1 <0>         0.1142
     41 H11        -3.0213    4.0464   -2.4577 H         1 <0>         0.1134
     42 H12        -1.9134    3.3667   -0.3664 H         1 <0>         0.1163
     43 H13        -3.3407    3.8635   -4.7146 H         1 <0>         0.0721
     44 H14        -2.0688    3.8710   -6.8676 H         1 <0>         0.0531
     45 H15        -0.8519    2.7648   -6.1449 H         1 <0>         0.0577
     46 H16        -1.0462    4.4304   -5.5009 H         1 <0>         0.0563
     47 H17        -3.8516    2.1647   -6.4771 H         1 <0>         0.0526
     48 H18        -4.1107    1.4974   -4.8296 H         1 <0>         0.0546
     49 H19        -2.6346    1.0586   -5.7545 H         1 <0>         0.0577
     50 H20        -1.0078   -1.7396    0.7582 H         1 <0>         0.0792
     51 H21        -2.0514   -0.2835    0.6261 H         1 <0>         0.0754
     52 H22        -1.8546   -0.3676   -1.8543 H         1 <0>         0.0850
     53 H23        -0.8111   -1.8237   -1.7222 H         1 <0>         0.0741
     54 H24        -2.6595   -3.0454   -0.5869 H         1 <0>         0.0486
     55 H25        -3.7031   -1.5893   -0.7190 H         1 <0>         0.0480
     56 H26        -4.6424   -3.6322   -3.6009 H         1 <0>         0.0841
     57 H27        -5.2736   -2.8418   -2.1164 H         1 <0>         0.0391
     58 H28        -4.2299   -4.2979   -1.9843 H         1 <0>         0.0395
@<TRIPOS>BOND
     1    1    2 1
     2    1   32 1
     3    1   33 1
     4    1   34 1
     5    2    7 ar
     6    2    3 ar
     7    3    4 ar
     8    3   35 1
     9    4    5 ar
    10    4   36 1
    11    5    6 ar
    12    5    8 1
    13    6    7 ar
    14    6   37 1
    15    7   38 1
    16    8    9 2
    17    8   10 1
    18   10   15 1
    19   10   11 2
    20   11   12 1
    21   11   31 1
    22   12   13 2
    23   12   14 am
    24   14   15 1
    25   14   26 1
    26   15   16 1
    27   15   17 1
    28   17   22 ar
    29   17   18 ar
    30   18   19 ar
    31   18   39 1
    32   19   20 ar
    33   19   40 1
    34   20   21 ar
    35   20   23 1
    36   21   22 ar
    37   21   41 1
    38   22   42 1
    39   23   24 1
    40   23   25 1
    41   23   43 1
    42   24   44 1
    43   24   45 1
    44   24   46 1
    45   25   47 1
    46   25   48 1
    47   25   49 1
    48   26   27 1
    49   26   50 1
    50   26   51 1
    51   27   28 1
    52   27   52 1
    53   27   53 1
    54   28   29 1
    55   28   54 1
    56   28   55 1
    57   29   30 1
    58   30   56 1
    59   30   57 1
    60   30   58 1
@<TRIPOS>MOLECULE
ZINC13161743
   52    54     0     0     0
SMALL
USER_CHARGES
(5R)-1-allyl-3-hydroxy-5-(4-isopropylphenyl)-4-(4-methylbenzoyl)-5H-pyrrol-2-one
@<TRIPOS>ATOM
      1 C1          5.4153    8.1902    3.5994 C.3       1 <0>        -0.1147
      2 C2          4.0384    7.6282    3.3555 C.ar      1 <0>        -0.0769
      3 C3          3.4537    6.8036    4.3007 C.ar      1 <0>        -0.1379
      4 C4          2.1938    6.2858    4.0839 C.ar      1 <0>        -0.0718
      5 C5          1.5082    6.5954    2.9073 C.ar      1 <0>        -0.1409
      6 C6          2.1065    7.4235    1.9552 C.ar      1 <0>        -0.0601
      7 C7          3.3647    7.9387    2.1872 C.ar      1 <0>        -0.1393
      8 C8          0.1572    6.0440    2.6680 C.2       1 <0>         0.5042
      9 O1         -0.4009    5.4025    3.5382 O.2       1 <0>        -0.4748
     10 C9         -0.5096    6.2703    1.3824 C.2       1 <0>        -0.4984
     11 C10        -1.6312    6.9983    1.1718 C.2       1 <0>         0.2629
     12 C11        -1.9657    6.9690   -0.2679 C.2       1 <0>         0.5117
     13 O2         -2.9178    7.5288   -0.7741 O.2       1 <0>        -0.5349
     14 N1         -1.0597    6.2311   -0.9348 N.am      1 <0>        -0.6089
     15 C12        -0.0782    5.7350    0.0370 C.3       1 <0>         0.2638
     16 H1          0.9308    6.0737   -0.2410 H         1 <0>         0.0676
     17 C13        -0.0817    4.2281    0.0536 C.ar      1 <0>        -0.0761
     18 C14         1.1115    3.5334   -0.0132 C.ar      1 <0>        -0.1131
     19 C15         1.1084    2.1511    0.0021 C.ar      1 <0>        -0.1222
     20 C16        -0.0880    1.4636    0.0841 C.ar      1 <0>        -0.0869
     21 C17        -1.2816    2.1582    0.1456 C.ar      1 <0>        -0.1194
     22 C18        -1.2781    3.5405    0.1362 C.ar      1 <0>        -0.0800
     23 C19        -0.0915   -0.0434    0.1003 C.3       1 <0>        -0.0531
     24 C20        -0.7346   -0.5380    1.3975 C.3       1 <0>        -0.1451
     25 C21        -0.8905   -0.5644   -1.0959 C.3       1 <0>        -0.1433
     26 C22        -1.0537    5.9695   -2.3763 C.3       1 <0>         0.1620
     27 C23        -1.8439    4.7188   -2.6631 C.2       1 <0>        -0.1725
     28 C24        -2.8353    4.7522   -3.5187 C.2       1 <0>        -0.1867
     29 O3         -2.3340    7.6495    2.1268 O.3       1 <0>        -0.6549
     30 H2          5.7886    7.8367    4.5719 H         1 <0>         0.0626
     31 H3          5.3675    9.2892    3.6024 H         1 <0>         0.0680
     32 H4          6.0947    7.8549    2.8019 H         1 <0>         0.0675
     33 H5          3.9849    6.5653    5.2103 H         1 <0>         0.1195
     34 H6          1.7388    5.6421    4.8221 H         1 <0>         0.1275
     35 H7          1.5835    7.6633    1.0412 H         1 <0>         0.1333
     36 H8          3.8270    8.5825    1.4535 H         1 <0>         0.1206
     37 H9          2.0463    4.0706   -0.0777 H         1 <0>         0.1172
     38 H10         2.0406    1.6084   -0.0505 H         1 <0>         0.1141
     39 H11        -2.2166    1.6210    0.2053 H         1 <0>         0.1139
     40 H12        -2.2103    4.0833    0.1887 H         1 <0>         0.1156
     41 H13         0.9478   -0.3984    0.0390 H         1 <0>         0.0729
     42 H14        -0.7371   -1.6379    1.4093 H         1 <0>         0.0534
     43 H15        -1.7688   -0.1682    1.4582 H         1 <0>         0.0575
     44 H16        -0.1602   -0.1634    2.2576 H         1 <0>         0.0567
     45 H17        -0.8930   -1.6643   -1.0841 H         1 <0>         0.0536
     46 H18        -0.4282   -0.2088   -2.0285 H         1 <0>         0.0545
     47 H19        -1.9247   -0.1946   -1.0351 H         1 <0>         0.0567
     48 H20        -1.5086    6.8200   -2.9052 H         1 <0>         0.0819
     49 H21        -0.0175    5.8356   -2.7204 H         1 <0>         0.0820
     50 H22        -1.5882    3.7778   -2.1540 H         1 <0>         0.1175
     51 H23        -3.4121    3.8393   -3.7281 H         1 <0>         0.0963
     52 H24        -3.0910    5.6932   -4.0278 H         1 <0>         0.0973
@<TRIPOS>BOND
     1    1    2 1
     2    1   30 1
     3    1   31 1
     4    1   32 1
     5    2    7 ar
     6    2    3 ar
     7    3    4 ar
     8    3   33 1
     9    4    5 ar
    10    4   34 1
    11    5    6 ar
    12    5    8 1
    13    6    7 ar
    14    6   35 1
    15    7   36 1
    16    8    9 2
    17    8   10 1
    18   10   15 1
    19   10   11 2
    20   11   12 1
    21   11   29 1
    22   12   13 2
    23   12   14 am
    24   14   15 1
    25   14   26 1
    26   15   16 1
    27   15   17 1
    28   17   22 ar
    29   17   18 ar
    30   18   19 ar
    31   18   37 1
    32   19   20 ar
    33   19   38 1
    34   20   21 ar
    35   20   23 1
    36   21   22 ar
    37   21   39 1
    38   22   40 1
    39   23   24 1
    40   23   25 1
    41   23   41 1
    42   24   42 1
    43   24   43 1
    44   24   44 1
    45   25   45 1
    46   25   46 1
    47   25   47 1
    48   26   27 1
    49   26   48 1
    50   26   49 1
    51   27   28 2
    52   27   50 1
    53   28   51 1
    54   28   52 1
@<TRIPOS>MOLECULE
ZINC13161743
   53    55     0     0     0
SMALL
USER_CHARGES
(4E,5R)-1-allyl-4-[hydroxy-(p-tolyl)methylene]-5-(4-isopropylphenyl)pyrrolidine-2,3-dione
@<TRIPOS>ATOM
      1 C1         -0.9484   -2.8894   -7.4596 C.3       1 <0>        -0.1223
      2 C2         -0.5815   -2.2051   -6.1680 C.ar      1 <0>        -0.0518
      3 C3         -0.0868   -0.9125   -6.1900 C.ar      1 <0>        -0.1258
      4 C4          0.2507   -0.2795   -5.0125 C.ar      1 <0>        -0.0508
      5 C5          0.0920   -0.9469   -3.7939 C.ar      1 <0>        -0.1497
      6 C6         -0.4035   -2.2546   -3.7803 C.ar      1 <0>        -0.0667
      7 C7         -0.7414   -2.8722   -4.9658 C.ar      1 <0>        -0.1186
      8 C8          0.4507   -0.2778   -2.5310 C.2       1 <0>         0.3996
      9 C9         -0.4518   -0.2430   -1.4882 C.3       1 <0>        -0.1974
     10 C10        -0.2033    0.2710   -0.0890 C.3       1 <0>         0.2146
     11 H1          0.5914   -0.3054    0.3846 H         1 <0>         0.1163
     12 N1         -1.4574    0.0999    0.6502 N.am      1 <0>        -0.5865
     13 C11        -2.3748   -0.4464   -0.1653 C.2       1 <0>         0.4807
     14 O1         -3.5163   -0.7125    0.1509 O.2       1 <0>        -0.4665
     15 C12        -1.7873   -0.6773   -1.5131 C.2       1 <0>         0.3610
     16 O2         -2.3643   -1.1585   -2.4711 O.2       1 <0>        -0.3673
     17 C13        -1.6751    0.4649    2.0521 C.3       1 <0>         0.1620
     18 C14        -2.1640    1.8883    2.1305 C.2       1 <0>        -0.1965
     19 C15        -3.2826    2.1632    2.7544 C.2       1 <0>        -0.1592
     20 C16         0.1741    1.7292   -0.1343 C.ar      1 <0>        -0.1109
     21 C17        -0.8038    2.6912   -0.3054 C.ar      1 <0>        -0.0903
     22 C18        -0.4581    4.0292   -0.3421 C.ar      1 <0>        -0.1213
     23 C19         0.8665    4.4045   -0.2184 C.ar      1 <0>        -0.0600
     24 C20         1.8450    3.4422   -0.0526 C.ar      1 <0>        -0.1192
     25 C21         1.4988    2.1045   -0.0106 C.ar      1 <0>        -0.0692
     26 C22         1.2440    5.8627   -0.2647 C.3       1 <0>        -0.0600
     27 C23         0.8145    6.4583   -1.6069 C.3       1 <0>        -0.1452
     28 C24         0.5415    6.6077    0.8721 C.3       1 <0>        -0.1445
     29 O3          1.6626    0.3012   -2.3944 O.2       1 <0>        -0.4763
     30 H2         -0.0802   -3.4218   -7.8480 H         1 <0>         0.0773
     31 H3         -1.7576   -3.5969   -7.2788 H         1 <0>         0.0716
     32 H4         -1.2727   -2.1444   -8.1861 H         1 <0>         0.0719
     33 H5          0.0348   -0.3983   -7.1320 H         1 <0>         0.1335
     34 H6          0.6362    0.7291   -5.0313 H         1 <0>         0.1335
     35 H7         -0.5245   -2.7780   -2.8434 H         1 <0>         0.1173
     36 H8         -1.1280   -3.8806   -4.9566 H         1 <0>         0.1320
     37 H9         -2.4203   -0.1998    2.4891 H         1 <0>         0.0964
     38 H10        -0.7383    0.3717    2.6016 H         1 <0>         0.0986
     39 H11        -1.5921    2.6817    1.6723 H         1 <0>         0.1256
     40 H12        -3.8544    1.3699    3.2126 H         1 <0>         0.0996
     41 H13        -3.6329    3.1833    2.8106 H         1 <0>         0.1026
     42 H14        -1.8382    2.3978   -0.4065 H         1 <0>         0.1180
     43 H15        -1.2225    4.7810   -0.4720 H         1 <0>         0.1224
     44 H16         2.8800    3.7354    0.0437 H         1 <0>         0.1238
     45 H17         2.2632    1.3527    0.1185 H         1 <0>         0.1257
     46 H18         2.3236    5.9623   -0.1518 H         1 <0>         0.0786
     47 H19         1.3150    5.9276   -2.4168 H         1 <0>         0.0566
     48 H20        -0.2650    6.3587   -1.7198 H         1 <0>         0.0566
     49 H21         1.0875    7.5131   -1.6404 H         1 <0>         0.0591
     50 H22         0.8475    6.1834    1.8283 H         1 <0>         0.0562
     51 H23         0.8146    7.6625    0.8386 H         1 <0>         0.0590
     52 H24        -0.5380    6.5081    0.7592 H         1 <0>         0.0565
     53 H25        -0.2312   -1.2175   -1.5294 H         1 <0>         0.1490
@<TRIPOS>BOND
     1    1    2 1
     2    1   30 1
     3    1   31 1
     4    1   32 1
     5    2    7 ar
     6    2    3 ar
     7    3    4 ar
     8    3   33 1
     9    4    5 ar
    10    4   34 1
    11    5    6 ar
    12    5    8 1
    13    6    7 ar
    14    6   35 1
    15    7   36 1
    16    8    9 1
    17    8   29 2
    18    9   53 1
    19    9   10 1
    20    9   15 1
    21   10   11 1
    22   10   12 1
    23   10   20 1
    24   12   13 am
    25   12   17 1
    26   13   14 2
    27   13   15 1
    28   15   16 2
    29   17   18 1
    30   17   37 1
    31   17   38 1
    32   18   19 2
    33   18   39 1
    34   19   40 1
    35   19   41 1
    36   20   25 ar
    37   20   21 ar
    38   21   22 ar
    39   21   42 1
    40   22   23 ar
    41   22   43 1
    42   23   24 ar
    43   23   26 1
    44   24   25 ar
    45   24   44 1
    46   25   45 1
    47   26   27 1
    48   26   28 1
    49   26   46 1
    50   27   47 1
    51   27   48 1
    52   27   49 1
    53   28   50 1
    54   28   51 1
    55   28   52 1
@<TRIPOS>MOLECULE
ZINC13161743
   53    55     0     0     0
SMALL
USER_CHARGES
(4E,5R)-1-allyl-4-[hydroxy-(p-tolyl)methylene]-5-(4-isopropylphenyl)pyrrolidine-2,3-dione
@<TRIPOS>ATOM
      1 C1         -0.9471   -2.8934   -7.4579 C.3       1 <0>        -0.1244
      2 C2         -0.5805   -2.2083   -6.1667 C.ar      1 <0>        -0.0569
      3 C3         -0.0858   -0.9157   -6.1895 C.ar      1 <0>        -0.1134
      4 C4          0.2515   -0.2819   -5.0123 C.ar      1 <0>        -0.0588
      5 C5          0.0925   -0.9485   -3.7933 C.ar      1 <0>        -0.1543
      6 C6         -0.4030   -2.2561   -3.7789 C.ar      1 <0>        -0.1263
      7 C7         -0.7407   -2.8745   -4.9641 C.ar      1 <0>        -0.1107
      8 C8          0.4509   -0.2785   -2.5308 C.2       1 <0>         0.4108
      9 C9         -0.4518   -0.2430   -1.4882 C.2       1 <0>        -0.3776
     10 C10        -0.2033    0.2710   -0.0890 C.3       1 <0>         0.2416
     11 H1          0.5914   -0.3054    0.3846 H         1 <0>         0.1083
     12 N1         -1.4574    0.0999    0.6502 N.am      1 <0>        -0.5794
     13 C11        -2.3748   -0.4464   -0.1653 C.2       1 <0>         0.5431
     14 O1         -3.5163   -0.7125    0.1509 O.2       1 <0>        -0.4849
     15 C12        -1.7873   -0.6773   -1.5131 C.2       1 <0>         0.2282
     16 O2         -2.3641   -1.1590   -2.4709 O.3       1 <0>        -0.3544
     17 C13        -1.6751    0.4649    2.0521 C.3       1 <0>         0.1636
     18 C14        -2.1640    1.8883    2.1305 C.2       1 <0>        -0.1951
     19 C15        -3.2826    2.1632    2.7544 C.2       1 <0>        -0.1607
     20 C16         0.1741    1.7292   -0.1343 C.ar      1 <0>        -0.0959
     21 C17        -0.8038    2.6912   -0.3054 C.ar      1 <0>        -0.0969
     22 C18        -0.4581    4.0292   -0.3421 C.ar      1 <0>        -0.1226
     23 C19         0.8665    4.4045   -0.2184 C.ar      1 <0>        -0.0666
     24 C20         1.8450    3.4422   -0.0526 C.ar      1 <0>        -0.1193
     25 C21         1.4988    2.1045   -0.0106 C.ar      1 <0>        -0.0710
     26 C22         1.2440    5.8627   -0.2647 C.3       1 <0>        -0.0587
     27 C23         0.8145    6.4583   -1.6069 C.3       1 <0>        -0.1444
     28 C24         0.5415    6.6077    0.8721 C.3       1 <0>        -0.1440
     29 O3          1.6628    0.3006   -2.3943 O.2       1 <0>        -0.5027
     30 H2         -0.0788   -3.4261   -7.8458 H         1 <0>         0.0801
     31 H3         -1.7564   -3.6008   -7.2768 H         1 <0>         0.0742
     32 H4         -1.2713   -2.1489   -8.1850 H         1 <0>         0.0739
     33 H5          0.0360   -0.4021   -7.1318 H         1 <0>         0.1380
     34 H6          0.6370    0.7267   -5.0317 H         1 <0>         0.1395
     35 H7         -0.5242   -2.7789   -2.8417 H         1 <0>         0.1398
     36 H8         -1.1273   -3.8829   -4.9543 H         1 <0>         0.1402
     37 H9         -2.4203   -0.1998    2.4891 H         1 <0>         0.0952
     38 H10        -0.7383    0.3717    2.6016 H         1 <0>         0.0992
     39 H11        -1.5921    2.6817    1.6723 H         1 <0>         0.1256
     40 H12        -3.8544    1.3699    3.2126 H         1 <0>         0.0996
     41 H13        -3.6329    3.1833    2.8106 H         1 <0>         0.1022
     42 H14        -1.8382    2.3978   -0.4065 H         1 <0>         0.1139
     43 H15        -1.2225    4.7810   -0.4720 H         1 <0>         0.1194
     44 H16         2.8800    3.7354    0.0437 H         1 <0>         0.1216
     45 H17         2.2632    1.3527    0.1185 H         1 <0>         0.1245
     46 H18         2.3236    5.9623   -0.1518 H         1 <0>         0.0776
     47 H19         1.3150    5.9276   -2.4168 H         1 <0>         0.0560
     48 H20        -0.2650    6.3587   -1.7198 H         1 <0>         0.0558
     49 H21         1.0875    7.5131   -1.6404 H         1 <0>         0.0583
     50 H22         0.8475    6.1834    1.8283 H         1 <0>         0.0560
     51 H23         0.8146    7.6625    0.8386 H         1 <0>         0.0582
     52 H24        -0.5380    6.5081    0.7592 H         1 <0>         0.0559
     53 H25        -1.7387   -1.2012   -3.2501 H         1 <0>         0.4187
@<TRIPOS>BOND
     1    1    2 1
     2    1   30 1
     3    1   31 1
     4    1   32 1
     5    2    7 ar
     6    2    3 ar
     7    3    4 ar
     8    3   33 1
     9    4    5 ar
    10    4   34 1
    11    5    6 ar
    12    5    8 1
    13    6    7 ar
    14    6   35 1
    15    7   36 1
    16    8    9 1
    17    8   29 2
    18    9   10 1
    19    9   15 2
    20   10   11 1
    21   10   12 1
    22   10   20 1
    23   12   13 am
    24   12   17 1
    25   13   14 2
    26   13   15 1
    27   15   16 1
    28   16   53 1
    29   17   18 1
    30   17   37 1
    31   17   38 1
    32   18   19 2
    33   18   39 1
    34   19   40 1
    35   19   41 1
    36   20   25 ar
    37   20   21 ar
    38   21   22 ar
    39   21   42 1
    40   22   23 ar
    41   22   43 1
    42   23   24 ar
    43   23   26 1
    44   24   25 ar
    45   24   44 1
    46   25   45 1
    47   26   27 1
    48   26   28 1
    49   26   46 1
    50   27   47 1
    51   27   48 1
    52   27   49 1
    53   28   50 1
    54   28   51 1
    55   28   52 1
@<TRIPOS>MOLECULE
ZINC17145551
   52    54     0     0     0
SMALL
USER_CHARGES
(5S)-1-allyl-3-hydroxy-5-(4-isopropylphenyl)-4-(4-methylbenzoyl)-5H-pyrrol-2-one
@<TRIPOS>ATOM
      1 C1         -5.8026   -2.6445    2.0846 C.3       1 <0>        -0.1147
      2 C2         -4.7883   -1.5369    2.2083 C.ar      1 <0>        -0.0769
      3 C3         -4.1493   -1.3199    3.4165 C.ar      1 <0>        -0.1377
      4 C4         -3.2199   -0.3078    3.5367 C.ar      1 <0>        -0.0718
      5 C5         -2.9240    0.4985    2.4355 C.ar      1 <0>        -0.1407
      6 C6         -3.5761    0.2771    1.2206 C.ar      1 <0>        -0.0610
      7 C7         -4.4998   -0.7416    1.1131 C.ar      1 <0>        -0.1392
      8 C8         -1.9292    1.5856    2.5571 C.2       1 <0>         0.5025
      9 O1         -1.4425    1.8464    3.6412 O.2       1 <0>        -0.4750
     10 C9         -1.5294    2.3491    1.3714 C.2       1 <0>        -0.4973
     11 C10        -1.7363    3.6690    1.1534 C.2       1 <0>         0.2637
     12 C11        -1.1766    4.0369   -0.1645 C.2       1 <0>         0.5120
     13 O2         -1.2042    5.1515   -0.6472 O.2       1 <0>        -0.5349
     14 N1         -0.6317    2.9552   -0.7501 N.am      1 <0>        -0.6086
     15 C12        -0.8061    1.8149    0.1572 C.3       1 <0>         0.2643
     16 H1         -1.3719    1.0170   -0.3459 H         1 <0>         0.0672
     17 C13         0.5371    1.2605    0.5566 C.ar      1 <0>        -0.0750
     18 C14         1.5871    2.1187    0.8248 C.ar      1 <0>        -0.0899
     19 C15         2.8209    1.6100    1.1851 C.ar      1 <0>        -0.1152
     20 C16         3.0047    0.2430    1.2773 C.ar      1 <0>        -0.0893
     21 C17         1.9546   -0.6152    1.0096 C.ar      1 <0>        -0.1198
     22 C18         0.7208   -0.1065    0.6493 C.ar      1 <0>        -0.1129
     23 C19         4.3498   -0.3116    1.6702 C.3       1 <0>        -0.0532
     24 C20         5.4022    0.1347    0.6533 C.3       1 <0>        -0.1432
     25 C21         4.7297    0.2073    3.0584 C.3       1 <0>        -0.1452
     26 C22         0.0210    2.9216   -2.0612 C.3       1 <0>         0.1605
     27 C23        -1.0020    2.6129   -3.1239 C.2       1 <0>        -0.1700
     28 C24        -1.1478    3.4186   -4.1465 C.2       1 <0>        -0.1834
     29 O3         -2.3559    4.5167    2.0063 O.3       1 <0>        -0.6535
     30 H2         -5.8981   -3.1637    3.0496 H         1 <0>         0.0626
     31 H3         -5.4739   -3.3584    1.3150 H         1 <0>         0.0675
     32 H4         -6.7762   -2.2198    1.7988 H         1 <0>         0.0679
     33 H5         -4.3791   -1.9442    4.2673 H         1 <0>         0.1196
     34 H6         -2.7219   -0.1395    4.4802 H         1 <0>         0.1277
     35 H7         -3.3552    0.8998    0.3664 H         1 <0>         0.1329
     36 H8         -5.0021   -0.9163    0.1731 H         1 <0>         0.1204
     37 H9          1.4436    3.1867    0.7525 H         1 <0>         0.1153
     38 H10         3.6412    2.2805    1.3946 H         1 <0>         0.1143
     39 H11         2.0982   -1.6832    1.0817 H         1 <0>         0.1144
     40 H12        -0.0995   -0.7770    0.4398 H         1 <0>         0.1173
     41 H13         4.2868   -1.4097    1.6858 H         1 <0>         0.0730
     42 H14         6.3840   -0.2701    0.9401 H         1 <0>         0.0536
     43 H15         5.4502    1.2335    0.6335 H         1 <0>         0.0568
     44 H16         5.1290   -0.2384   -0.3448 H         1 <0>         0.0545
     45 H17         5.7115   -0.1975    3.3451 H         1 <0>         0.0535
     46 H18         3.9730   -0.1136    3.7895 H         1 <0>         0.0569
     47 H19         4.7777    1.3061    3.0386 H         1 <0>         0.0574
     48 H20         0.4802    3.8997   -2.2674 H         1 <0>         0.0815
     49 H21         0.7987    2.1436   -2.0638 H         1 <0>         0.0834
     50 H22        -1.6263    1.7110   -3.0409 H         1 <0>         0.1109
     51 H23        -1.8945    3.1933   -4.9222 H         1 <0>         0.0979
     52 H24        -0.5235    4.3205   -4.2295 H         1 <0>         0.0988
@<TRIPOS>BOND
     1    1    2 1
     2    1   30 1
     3    1   31 1
     4    1   32 1
     5    2    7 ar
     6    2    3 ar
     7    3    4 ar
     8    3   33 1
     9    4    5 ar
    10    4   34 1
    11    5    6 ar
    12    5    8 1
    13    6    7 ar
    14    6   35 1
    15    7   36 1
    16    8    9 2
    17    8   10 1
    18   10   15 1
    19   10   11 2
    20   11   12 1
    21   11   29 1
    22   12   13 2
    23   12   14 am
    24   14   15 1
    25   14   26 1
    26   15   16 1
    27   15   17 1
    28   17   22 ar
    29   17   18 ar
    30   18   19 ar
    31   18   37 1
    32   19   20 ar
    33   19   38 1
    34   20   21 ar
    35   20   23 1
    36   21   22 ar
    37   21   39 1
    38   22   40 1
    39   23   24 1
    40   23   25 1
    41   23   41 1
    42   24   42 1
    43   24   43 1
    44   24   44 1
    45   25   45 1
    46   25   46 1
    47   25   47 1
    48   26   27 1
    49   26   48 1
    50   26   49 1
    51   27   28 2
    52   27   50 1
    53   28   51 1
    54   28   52 1
@<TRIPOS>MOLECULE
ZINC17145551
   53    55     0     0     0
SMALL
USER_CHARGES
(4E,5S)-1-allyl-4-[hydroxy-(p-tolyl)methylene]-5-(4-isopropylphenyl)pyrrolidine-2,3-dione
@<TRIPOS>ATOM
      1 C1         -7.3856    3.8000   -0.3113 C.3       1 <0>        -0.1244
      2 C2         -5.8925    3.9825   -0.2173 C.ar      1 <0>        -0.0568
      3 C3         -5.1521    3.1742    0.6279 C.ar      1 <0>        -0.1106
      4 C4         -3.7857    3.3350    0.7195 C.ar      1 <0>        -0.1263
      5 C5         -3.1484    4.3177   -0.0445 C.ar      1 <0>        -0.1544
      6 C6         -3.9041    5.1343   -0.8917 C.ar      1 <0>        -0.0583
      7 C7         -5.2689    4.9577   -0.9763 C.ar      1 <0>        -0.1136
      8 C8         -1.6884    4.4960    0.0475 C.2       1 <0>         0.4105
      9 C9         -0.8509    3.4083   -0.0878 C.2       1 <0>        -0.3766
     10 C10         0.6456    3.3830    0.1212 C.3       1 <0>         0.2420
     11 H1          0.8841    3.6672    1.1462 H         1 <0>         0.1068
     12 N1          1.0819    2.0070   -0.1325 N.am      1 <0>        -0.5790
     13 C11         0.0123    1.2617   -0.4574 C.2       1 <0>         0.5425
     14 O1          0.0444    0.0780   -0.7249 O.2       1 <0>        -0.4862
     15 C12        -1.2168    2.1009   -0.4476 C.2       1 <0>         0.2268
     16 O2         -2.3439    1.7201   -0.7066 O.3       1 <0>        -0.3548
     17 C13         2.4618    1.5225   -0.0462 C.3       1 <0>         0.1633
     18 C14         3.1313    1.6715   -1.3880 C.2       1 <0>        -0.1791
     19 C15         4.2547    2.3377   -1.4891 C.2       1 <0>        -0.1568
     20 C16         1.3185    4.3241   -0.8446 C.ar      1 <0>        -0.0933
     21 C17         1.4906    3.9527   -2.1649 C.ar      1 <0>        -0.0887
     22 C18         2.1039    4.8176   -3.0519 C.ar      1 <0>        -0.1186
     23 C19         2.5532    6.0503   -2.6164 C.ar      1 <0>        -0.0665
     24 C20         2.3858    6.4195   -1.2948 C.ar      1 <0>        -0.1200
     25 C21         1.7686    5.5563   -0.4089 C.ar      1 <0>        -0.0733
     26 C22         3.2251    6.9917   -3.5824 C.3       1 <0>        -0.0585
     27 C23         4.4762    6.3248   -4.1577 C.3       1 <0>        -0.1432
     28 C24         2.2592    7.3306   -4.7195 C.3       1 <0>        -0.1443
     29 O3         -1.1708    5.7239    0.2641 O.2       1 <0>        -0.5022
     30 H2         -7.8762    4.4331    0.4280 H         1 <0>         0.0801
     31 H3         -7.7234    4.0784   -1.3096 H         1 <0>         0.0739
     32 H4         -7.6368    2.7568   -0.1204 H         1 <0>         0.0741
     33 H5         -5.6459    2.4160    1.2175 H         1 <0>         0.1402
     34 H6         -3.2094    2.7038    1.3797 H         1 <0>         0.1396
     35 H7         -3.4194    5.8985   -1.4811 H         1 <0>         0.1396
     36 H8         -5.8535    5.5847   -1.6332 H         1 <0>         0.1379
     37 H9          3.0055    2.1047    0.6978 H         1 <0>         0.0950
     38 H10         2.4605    0.4720    0.2446 H         1 <0>         0.0997
     39 H11         2.6850    1.2290   -2.2663 H         1 <0>         0.1112
     40 H12         4.7346    2.4445   -2.4507 H         1 <0>         0.1012
     41 H13         4.7011    2.7802   -0.6108 H         1 <0>         0.0983
     42 H14         1.1429    2.9882   -2.5043 H         1 <0>         0.1097
     43 H15         2.2344    4.5293   -4.0845 H         1 <0>         0.1171
     44 H16         2.7369    7.3825   -0.9545 H         1 <0>         0.1200
     45 H17         1.6378    5.8448    0.6237 H         1 <0>         0.1222
     46 H18         3.5080    7.9063   -3.0612 H         1 <0>         0.0768
     47 H19         4.1934    5.4102   -4.6789 H         1 <0>         0.0557
     48 H20         4.9622    7.0057   -4.8564 H         1 <0>         0.0574
     49 H21         5.1644    6.0833   -3.3476 H         1 <0>         0.0559
     50 H22         1.3679    7.8057   -4.3097 H         1 <0>         0.0557
     51 H23         2.7452    8.0115   -5.4183 H         1 <0>         0.0578
     52 H24         1.9764    6.4160   -5.2407 H         1 <0>         0.0555
     53 H25        -2.9816    2.4860   -0.6245 H         1 <0>         0.4188
@<TRIPOS>BOND
     1    1    2 1
     2    1   30 1
     3    1   31 1
     4    1   32 1
     5    2    7 ar
     6    2    3 ar
     7    3    4 ar
     8    3   33 1
     9    4    5 ar
    10    4   34 1
    11    5    6 ar
    12    5    8 1
    13    6    7 ar
    14    6   35 1
    15    7   36 1
    16    8    9 1
    17    8   29 2
    18    9   10 1
    19    9   15 2
    20   10   11 1
    21   10   12 1
    22   10   20 1
    23   12   13 am
    24   12   17 1
    25   13   14 2
    26   13   15 1
    27   15   16 1
    28   16   53 1
    29   17   18 1
    30   17   37 1
    31   17   38 1
    32   18   19 2
    33   18   39 1
    34   19   40 1
    35   19   41 1
    36   20   25 ar
    37   20   21 ar
    38   21   22 ar
    39   21   42 1
    40   22   23 ar
    41   22   43 1
    42   23   24 ar
    43   23   26 1
    44   24   25 ar
    45   24   44 1
    46   25   45 1
    47   26   27 1
    48   26   28 1
    49   26   46 1
    50   27   47 1
    51   27   48 1
    52   27   49 1
    53   28   50 1
    54   28   51 1
    55   28   52 1
@<TRIPOS>MOLECULE
ZINC17145551
   53    55     0     0     0
SMALL
USER_CHARGES
(4E,5S)-1-allyl-4-[hydroxy-(p-tolyl)methylene]-5-(4-isopropylphenyl)pyrrolidine-2,3-dione
@<TRIPOS>ATOM
      1 C1         -7.3840    3.8078   -0.3411 C.3       1 <0>        -0.1224
      2 C2         -5.8912    3.9885   -0.2406 C.ar      1 <0>        -0.0515
      3 C3         -5.1555    3.1804    0.6089 C.ar      1 <0>        -0.1190
      4 C4         -3.7894    3.3396    0.7064 C.ar      1 <0>        -0.0659
      5 C5         -3.1474    4.3206   -0.0559 C.ar      1 <0>        -0.1501
      6 C6         -3.8983    5.1370   -0.9075 C.ar      1 <0>        -0.0504
      7 C7         -5.2630    4.9620   -0.9980 C.ar      1 <0>        -0.1262
      8 C8         -1.6877    4.4972    0.0424 C.2       1 <0>         0.3992
      9 C9         -0.8509    3.4083   -0.0878 C.3       1 <0>        -0.1967
     10 C10         0.6456    3.3830    0.1212 C.3       1 <0>         0.2150
     11 H1          0.8841    3.6672    1.1462 H         1 <0>         0.1150
     12 N1          1.0819    2.0070   -0.1325 N.am      1 <0>        -0.5861
     13 C11         0.0123    1.2617   -0.4574 C.2       1 <0>         0.4801
     14 O1          0.0444    0.0780   -0.7249 O.2       1 <0>        -0.4676
     15 C12        -1.2168    2.1009   -0.4476 C.2       1 <0>         0.3607
     16 O2         -2.3443    1.7195   -0.7041 O.2       1 <0>        -0.3675
     17 C13         2.4618    1.5225   -0.0462 C.3       1 <0>         0.1617
     18 C14         3.1313    1.6715   -1.3880 C.2       1 <0>        -0.1800
     19 C15         4.2547    2.3377   -1.4891 C.2       1 <0>        -0.1566
     20 C16         1.3185    4.3241   -0.8446 C.ar      1 <0>        -0.1085
     21 C17         1.4906    3.9527   -2.1649 C.ar      1 <0>        -0.0824
     22 C18         2.1039    4.8176   -3.0519 C.ar      1 <0>        -0.1173
     23 C19         2.5532    6.0503   -2.6164 C.ar      1 <0>        -0.0600
     24 C20         2.3858    6.4195   -1.2948 C.ar      1 <0>        -0.1199
     25 C21         1.7686    5.5563   -0.4089 C.ar      1 <0>        -0.0713
     26 C22         3.2251    6.9917   -3.5824 C.3       1 <0>        -0.0597
     27 C23         4.4762    6.3248   -4.1577 C.3       1 <0>        -0.1437
     28 C24         2.2592    7.3306   -4.7195 C.3       1 <0>        -0.1451
     29 O3         -1.1695    5.7247    0.2598 O.2       1 <0>        -0.4760
     30 H2         -7.8772    4.4424    0.3952 H         1 <0>         0.0773
     31 H3         -7.7170    4.0853   -1.3412 H         1 <0>         0.0719
     32 H4         -7.6374    2.7651   -0.1500 H         1 <0>         0.0716
     33 H5         -5.6529    2.4235    1.1972 H         1 <0>         0.1319
     34 H6         -3.2168    2.7085    1.3700 H         1 <0>         0.1172
     35 H7         -3.4101    5.8999   -1.4957 H         1 <0>         0.1336
     36 H8         -5.8438    5.5889   -1.6583 H         1 <0>         0.1335
     37 H9          3.0055    2.1047    0.6978 H         1 <0>         0.0944
     38 H10         2.4605    0.4720    0.2446 H         1 <0>         0.1010
     39 H11         2.6850    1.2290   -2.2663 H         1 <0>         0.1121
     40 H12         4.7346    2.4445   -2.4507 H         1 <0>         0.1015
     41 H13         4.7011    2.7802   -0.6108 H         1 <0>         0.0982
     42 H14         1.1429    2.9882   -2.5043 H         1 <0>         0.1139
     43 H15         2.2344    4.5293   -4.0845 H         1 <0>         0.1201
     44 H16         2.7369    7.3825   -0.9545 H         1 <0>         0.1222
     45 H17         1.6378    5.8448    0.6237 H         1 <0>         0.1235
     46 H18         3.5080    7.9063   -3.0612 H         1 <0>         0.0778
     47 H19         4.1934    5.4102   -4.6789 H         1 <0>         0.0563
     48 H20         4.9622    7.0057   -4.8564 H         1 <0>         0.0582
     49 H21         5.1644    6.0833   -3.3476 H         1 <0>         0.0561
     50 H22         1.3679    7.8057   -4.3097 H         1 <0>         0.0564
     51 H23         2.7452    8.0115   -5.4183 H         1 <0>         0.0586
     52 H24         1.9764    6.4160   -5.2407 H         1 <0>         0.0564
     53 H25        -1.3116    3.2025    0.7756 H         1 <0>         0.1485
@<TRIPOS>BOND
     1    1    2 1
     2    1   30 1
     3    1   31 1
     4    1   32 1
     5    2    7 ar
     6    2    3 ar
     7    3    4 ar
     8    3   33 1
     9    4    5 ar
    10    4   34 1
    11    5    6 ar
    12    5    8 1
    13    6    7 ar
    14    6   35 1
    15    7   36 1
    16    8    9 1
    17    8   29 2
    18    9   53 1
    19    9   10 1
    20    9   15 1
    21   10   11 1
    22   10   12 1
    23   10   20 1
    24   12   13 am
    25   12   17 1
    26   13   14 2
    27   13   15 1
    28   15   16 2
    29   17   18 1
    30   17   37 1
    31   17   38 1
    32   18   19 2
    33   18   39 1
    34   19   40 1
    35   19   41 1
    36   20   25 ar
    37   20   21 ar
    38   21   22 ar
    39   21   42 1
    40   22   23 ar
    41   22   43 1
    42   23   24 ar
    43   23   26 1
    44   24   25 ar
    45   24   44 1
    46   25   45 1
    47   26   27 1
    48   26   28 1
    49   26   46 1
    50   27   47 1
    51   27   48 1
    52   27   49 1
    53   28   50 1
    54   28   51 1
    55   28   52 1
