@<TRIPOS>MOLECULE
ZINC01638007
   37    38     0     0     0
SMALL
USER_CHARGES
2-[2-amino-3-(1H-indol-3-yl)propanoyl]aminopropanoic acid
@<TRIPOS>ATOM
      1 C1          2.7920    0.8322   -1.4572 C.3       1 <0>        -0.1400
      2 C2          2.4220    1.1832   -0.0147 C.3       1 <0>         0.0894
      3 H1          2.3338    0.2679    0.5707 H         1 <0>         0.0983
      4 C3          3.4948    2.0585    0.5802 C.2       1 <0>         0.4609
      5 O1          3.2196    3.1661    0.9770 O.co2     1 <0>        -0.6336
      6 N1          1.1435    1.8983    0.0013 N.am      1 <0>        -0.6633
      7 C4         -0.0144    1.2086    0.0087 C.2       1 <0>         0.4896
      8 O2          0.0021   -0.0041    0.0020 O.2       1 <0>        -0.5434
      9 C5         -1.3296    1.9443    0.0189 C.3       1 <0>         0.0199
     10 H2         -1.2655    2.8123   -0.6372 H         1 <0>         0.1586
     11 C6         -1.6456    2.4041    1.4435 C.3       1 <0>        -0.0526
     12 C7         -2.8968    3.2442    1.4343 C.2       1 <0>        -0.2269
     13 C8         -2.9587    4.5838    1.3752 C.2       1 <0>         0.1011
     14 N2         -4.2649    4.9914    1.3843 N.pl3     1 <0>        -0.5865
     15 H3         -4.5609    5.9143    1.3472 H         1 <0>         0.4246
     16 C9         -5.0964    3.8965    1.4600 C.ar      1 <0>         0.0983
     17 C10        -4.2759    2.7539    1.4946 C.ar      1 <0>        -0.1145
     18 C11        -4.8520    1.4848    1.5714 C.ar      1 <0>        -0.1080
     19 C12        -6.2121    1.3585    1.6128 C.ar      1 <0>        -0.1245
     20 C13        -7.0258    2.4823    1.5793 C.ar      1 <0>        -0.0959
     21 C14        -6.4782    3.7445    1.5033 C.ar      1 <0>        -0.1147
     22 H4          2.8802    1.7474   -2.0426 H         1 <0>         0.0532
     23 H5          3.7432    0.3001   -1.4692 H         1 <0>         0.0817
     24 H6          2.0161    0.1990   -1.8876 H         1 <0>         0.0476
     25 H7          1.1304    2.8682    0.0067 H         1 <0>         0.4129
     26 H8         -1.7974    1.5333    2.0812 H         1 <0>         0.1017
     27 H9         -0.8141    2.9951    1.8275 H         1 <0>         0.1260
     28 H10        -2.1041    5.2423    1.3257 H         1 <0>         0.1821
     29 H11        -4.2250    0.6058    1.5981 H         1 <0>         0.1170
     30 H12        -6.6574    0.3763    1.6717 H         1 <0>         0.1292
     31 H13        -8.0990    2.3664    1.6129 H         1 <0>         0.1320
     32 H14        -7.1199    4.6128    1.4771 H         1 <0>         0.1266
     33 H15        -2.4740    0.2371    0.1377 H         1 <0>         0.4390
     34 H16        -3.2751    1.5385   -0.5183 H         1 <0>         0.4378
     35 O3          4.7559    1.6078    0.6694 O.co2     1 <0>        -0.7365
     36 N3         -2.3854    1.0442   -0.4775 N.4       1 <0>        -0.6273
     37 H17        -2.1379    0.7213   -1.4202 H         1 <0>         0.4405
@<TRIPOS>BOND
     1    1    2 1
     2    1   22 1
     3    1   23 1
     4    1   24 1
     5    2    3 1
     6    2    4 1
     7    2    6 1
     8    4    5 2
     9    4   35 1
    10    6    7 am
    11    6   25 1
    12    7    8 2
    13    7    9 1
    14    9   10 1
    15    9   11 1
    16    9   36 1
    17   11   12 1
    18   11   26 1
    19   11   27 1
    20   12   17 1
    21   12   13 2
    22   13   14 1
    23   13   28 1
    24   14   15 1
    25   14   16 1
    26   16   21 ar
    27   16   17 ar
    28   17   18 ar
    29   18   19 ar
    30   18   29 1
    31   19   20 ar
    32   19   30 1
    33   20   21 ar
    34   20   31 1
    35   21   32 1
    36   33   36 1
    37   34   36 1
    38   36   37 1
@<TRIPOS>MOLECULE
ZINC02983154
   44    45     0     0     0
SMALL
USER_CHARGES

@<TRIPOS>ATOM
      1 C1         -0.0187    1.5258    0.0104 C.3       1 <0>        -0.1383
      2 C2          0.0021   -0.0041    0.0020 C.3       1 <0>         0.0703
      3 H1         -1.0205   -0.3814    0.0098 H         1 <0>         0.0810
      4 C3          0.7074   -0.4901   -1.2379 C.2       1 <0>         0.4964
      5 O1          1.8021   -1.0195   -1.1485 O.co2     1 <0>        -0.6920
      6 O2          0.1835   -0.3539   -2.3303 O.co2     1 <0>        -0.6870
      7 N1          0.7106   -0.4894    1.1889 N.am      1 <0>        -0.6910
      8 C4          0.0512   -0.6335    2.3554 C.2       1 <0>         0.4945
      9 O3         -1.1288   -0.3614    2.4226 O.2       1 <0>        -0.5461
     10 C5          0.7801   -1.1327    3.5763 C.3       1 <0>         0.1377
     11 H2          1.5952   -0.4503    3.8172 H         1 <0>         0.1154
     12 C6          1.3470   -2.5262    3.2976 C.3       1 <0>        -0.0901
     13 C7          2.1786   -2.9742    4.4718 C.ar      1 <0>        -0.0757
     14 C8          3.5287   -2.6806    4.5146 C.ar      1 <0>        -0.1114
     15 C9          4.2916   -3.0916    5.5917 C.ar      1 <0>        -0.1167
     16 C10         3.7042   -3.7958    6.6261 C.ar      1 <0>        -0.1253
     17 C11         2.3539   -4.0887    6.5837 C.ar      1 <0>        -0.1189
     18 C12         1.5902   -3.6740    5.5086 C.ar      1 <0>        -0.1131
     19 N2         -0.1498   -1.2008    4.7064 N.am      1 <0>        -0.6974
     20 C13        -0.3838   -0.1038    5.4535 C.2       1 <0>         0.5656
     21 O4          0.1766    0.9421    5.1898 O.2       1 <0>        -0.5323
     22 C14        -1.3222   -0.1725    6.5940 C.ar      1 <0>        -0.1241
     23 C15        -1.9629   -1.3734    6.9030 C.ar      1 <0>        -0.0848
     24 C16        -2.8371   -1.4309    7.9688 C.ar      1 <0>        -0.1280
     25 C17        -3.0795   -0.3014    8.7303 C.ar      1 <0>        -0.0986
     26 C18        -2.4480    0.8922    8.4290 C.ar      1 <0>        -0.1285
     27 C19        -1.5668    0.9617    7.3697 C.ar      1 <0>        -0.0607
     28 H3          1.0039    1.9031    0.0027 H         1 <0>         0.0485
     29 H4         -0.5459    1.8868   -0.8726 H         1 <0>         0.0647
     30 H5         -0.5289    1.8773    0.9072 H         1 <0>         0.0467
     31 H6          1.6544   -0.7070    1.1351 H         1 <0>         0.4045
     32 H7          0.5271   -3.2279    3.1442 H         1 <0>         0.0862
     33 H8          1.9691   -2.4931    2.4032 H         1 <0>         0.1044
     34 H9          3.9876   -2.1304    3.7065 H         1 <0>         0.1268
     35 H10         5.3466   -2.8628    5.6248 H         1 <0>         0.1215
     36 H11         4.3004   -4.1176    7.4672 H         1 <0>         0.1185
     37 H12         1.8951   -4.6392    7.3916 H         1 <0>         0.1196
     38 H13         0.5345   -3.8995    5.4773 H         1 <0>         0.1171
     39 H14        -0.5970   -2.0354    4.9168 H         1 <0>         0.3994
     40 H15        -1.7751   -2.2555    6.3089 H         1 <0>         0.1242
     41 H16        -3.3335   -2.3594    8.2090 H         1 <0>         0.1276
     42 H17        -3.7649   -0.3516    9.5634 H         1 <0>         0.1253
     43 H18        -2.6418    1.7703    9.0271 H         1 <0>         0.1284
     44 H19        -1.0708    1.8928    7.1386 H         1 <0>         0.1357
@<TRIPOS>BOND
     1    1    2 1
     2    1   28 1
     3    1   29 1
     4    1   30 1
     5    2    3 1
     6    2    4 1
     7    2    7 1
     8    4    5 2
     9    4    6 1
    10    7    8 am
    11    7   31 1
    12    8    9 2
    13    8   10 1
    14   10   11 1
    15   10   12 1
    16   10   19 1
    17   12   13 1
    18   12   32 1
    19   12   33 1
    20   13   18 ar
    21   13   14 ar
    22   14   15 ar
    23   14   34 1
    24   15   16 ar
    25   15   35 1
    26   16   17 ar
    27   16   36 1
    28   17   18 ar
    29   17   37 1
    30   18   38 1
    31   19   20 am
    32   19   39 1
    33   20   21 2
    34   20   22 1
    35   22   27 ar
    36   22   23 ar
    37   23   24 ar
    38   23   40 1
    39   24   25 ar
    40   24   41 1
    41   25   26 ar
    42   25   42 1
    43   26   27 ar
    44   26   43 1
    45   27   44 1
