@<TRIPOS>MOLECULE
ZINC14163155
   59    59     0     0     0
SMALL
USER_CHARGES
[(2R)-2-amino-2-(hydroxymethyl)-4-(4-octylphenyl)butyl] dihydrogen phosphate
@<TRIPOS>ATOM
      1 C1         -0.8243    1.6329   -8.7265 C.3       1 <0>        -0.1541
      2 C2         -0.0843    1.1261   -7.4870 C.3       1 <0>        -0.1262
      3 C3         -0.8004    1.6195   -6.2282 C.3       1 <0>        -0.1212
      4 C4         -0.0604    1.1126   -4.9886 C.3       1 <0>        -0.1212
      5 C5         -0.7766    1.6061   -3.7298 C.3       1 <0>        -0.1201
      6 C6         -0.0366    1.0992   -2.4903 C.3       1 <0>        -0.1210
      7 C7         -0.7527    1.5927   -1.2315 C.3       1 <0>        -0.1123
      8 C8         -0.0127    1.0858    0.0080 C.3       1 <0>        -0.0838
      9 C9         -0.7181    1.5718    1.2479 C.ar      1 <0>        -0.0784
     10 C10        -0.3599    2.7788    1.8186 C.ar      1 <0>        -0.1150
     11 C11        -1.0099    3.2267    2.9534 C.ar      1 <0>        -0.1131
     12 C12        -2.0119    2.4632    3.5227 C.ar      1 <0>        -0.0915
     13 C13        -2.3665    1.2538    2.9550 C.ar      1 <0>        -0.1062
     14 C14        -1.7194    0.8079    1.8177 C.ar      1 <0>        -0.1139
     15 C15        -2.7180    2.9497    4.7620 C.3       1 <0>        -0.0915
     16 C16        -1.9793    2.4425    6.0022 C.3       1 <0>        -0.1302
     17 C17        -2.6962    2.9364    7.2604 C.3       1 <0>         0.0609
     18 C18        -4.0892    2.3079    7.3336 C.3       1 <0>         0.0744
     19 O1         -3.9677    0.8849    7.3822 O.3       1 <0>        -0.5458
     20 C19        -1.8900    2.5353    8.4973 C.3       1 <0>         0.1152
     21 O2         -2.5595    2.9966    9.6725 O.3       1 <0>        -0.7596
     22 P1         -1.9920    2.7502   11.1588 P.3       1 <0>         2.1106
     23 O3         -1.7656    1.3024   11.3667 O.2       1 <0>        -1.1485
     24 H1         -1.8469    1.2556   -8.7188 H         1 <0>         0.0532
     25 H2         -0.8390    2.7228   -8.7205 H         1 <0>         0.0531
     26 H3         -0.3141    1.2814   -9.6233 H         1 <0>         0.0531
     27 H4          0.9383    1.5033   -7.4947 H         1 <0>         0.0603
     28 H5         -0.0695    0.0362   -7.4930 H         1 <0>         0.0604
     29 H6         -1.8230    1.2422   -6.2204 H         1 <0>         0.0605
     30 H7         -0.8152    2.7094   -6.2222 H         1 <0>         0.0604
     31 H8          0.9622    1.4899   -4.9964 H         1 <0>         0.0608
     32 H9         -0.0456    0.0228   -4.9946 H         1 <0>         0.0609
     33 H10        -1.7991    1.2288   -3.7221 H         1 <0>         0.0607
     34 H11        -0.7913    2.6960   -3.7239 H         1 <0>         0.0605
     35 H12         0.9860    1.4765   -2.4981 H         1 <0>         0.0621
     36 H13        -0.0218    0.0093   -2.4963 H         1 <0>         0.0623
     37 H14        -1.7753    1.2154   -1.2238 H         1 <0>         0.0626
     38 H15        -0.7675    2.6825   -1.2255 H         1 <0>         0.0622
     39 H16         0.0021   -0.0041    0.0020 H         1 <0>         0.0728
     40 H17         1.0099    1.4631    0.0003 H         1 <0>         0.0725
     41 H18         0.4255    3.3735    1.3760 H         1 <0>         0.1216
     42 H19        -0.7331    4.1718    3.3968 H         1 <0>         0.1204
     43 H20        -3.1493    0.6573    3.3998 H         1 <0>         0.1242
     44 H21        -1.9965   -0.1370    1.3742 H         1 <0>         0.1223
     45 H22        -2.7321    4.0396    4.7680 H         1 <0>         0.0633
     46 H23        -3.7408    2.5731    4.7689 H         1 <0>         0.0870
     47 H24        -1.9652    1.3526    5.9962 H         1 <0>         0.1203
     48 H25        -0.9565    2.8192    5.9953 H         1 <0>         0.0911
     49 H26        -4.5999    2.6597    8.2300 H         1 <0>         0.0833
     50 H27        -4.6635    2.5936    6.4524 H         1 <0>         0.0535
     51 H28        -4.8139    0.4193    7.4298 H         1 <0>         0.3943
     52 H29        -1.7973    1.4499    8.5344 H         1 <0>         0.0913
     53 H30        -0.8976    2.9831    8.4451 H         1 <0>         0.0585
     54 H31        -3.3477    4.7443    7.9988 H         1 <0>         0.4483
     55 H32        -1.9138    4.8382    7.1616 H         1 <0>         0.4381
     56 O4         -0.6023    3.5423   11.3409 O.3       1 <0>        -1.1864
     57 O5         -3.0607    3.2864   12.2371 O.3       1 <0>        -1.1627
     58 N1         -2.8339    4.4018    7.1887 N.4       1 <0>        -0.6326
     59 H33        -3.3482    4.6512    6.3358 H         1 <0>         0.4186
@<TRIPOS>BOND
     1    1    2 1
     2    1   24 1
     3    1   25 1
     4    1   26 1
     5    2    3 1
     6    2   27 1
     7    2   28 1
     8    3    4 1
     9    3   29 1
    10    3   30 1
    11    4    5 1
    12    4   31 1
    13    4   32 1
    14    5    6 1
    15    5   33 1
    16    5   34 1
    17    6    7 1
    18    6   35 1
    19    6   36 1
    20    7    8 1
    21    7   37 1
    22    7   38 1
    23    8    9 1
    24    8   39 1
    25    8   40 1
    26    9   14 ar
    27    9   10 ar
    28   10   11 ar
    29   10   41 1
    30   11   12 ar
    31   11   42 1
    32   12   13 ar
    33   12   15 1
    34   13   14 ar
    35   13   43 1
    36   14   44 1
    37   15   16 1
    38   15   45 1
    39   15   46 1
    40   16   17 1
    41   16   47 1
    42   16   48 1
    43   17   18 1
    44   17   20 1
    45   17   58 1
    46   18   19 1
    47   18   49 1
    48   18   50 1
    49   19   51 1
    50   20   21 1
    51   20   52 1
    52   20   53 1
    53   21   22 1
    54   22   23 2
    55   22   56 1
    56   22   57 1
    57   54   58 1
    58   55   58 1
    59   58   59 1
@<TRIPOS>MOLECULE
ZINC14163159
   59    59     0     0     0
SMALL
USER_CHARGES
[(2S)-2-amino-2-(hydroxymethyl)-4-(4-octylphenyl)butyl] dihydrogen phosphate
@<TRIPOS>ATOM
      1 C1          1.2614   -8.7879   -5.8222 C.3       1 <0>        -0.1541
      2 C2          1.2688   -8.2847   -4.3773 C.3       1 <0>        -0.1262
      3 C3          1.2481   -6.7549   -4.3699 C.3       1 <0>        -0.1212
      4 C4          1.2555   -6.2517   -2.9250 C.3       1 <0>        -0.1212
      5 C5          1.2347   -4.7219   -2.9176 C.3       1 <0>        -0.1202
      6 C6          1.2422   -4.2187   -1.4727 C.3       1 <0>        -0.1210
      7 C7          1.2214   -2.6889   -1.4653 C.3       1 <0>        -0.1123
      8 C8          1.2289   -2.1857   -0.0205 C.3       1 <0>        -0.0836
      9 C9          1.2084   -0.6789   -0.0132 C.ar      1 <0>        -0.0790
     10 C10         0.0021   -0.0041    0.0020 C.ar      1 <0>        -0.1153
     11 C11        -0.0167    1.3781    0.0096 C.ar      1 <0>        -0.1134
     12 C12         1.1709    2.0855    0.0021 C.ar      1 <0>        -0.0915
     13 C13         2.3773    1.4107   -0.0145 C.ar      1 <0>        -0.1064
     14 C14         2.3961    0.0285   -0.0212 C.ar      1 <0>        -0.1140
     15 C15         1.1505    3.5924    0.0099 C.3       1 <0>        -0.0896
     16 C16         1.1571    4.0950    1.4550 C.3       1 <0>        -0.1255
     17 C17         1.1364    5.6248    1.4629 C.3       1 <0>         0.0604
     18 C18         2.3717    6.1554    0.7328 C.3       1 <0>         0.0729
     19 O1          3.5511    5.6916    1.3930 O.3       1 <0>        -0.5462
     20 C19         1.1430    6.1275    2.9080 C.3       1 <0>         0.1106
     21 O2          1.0062    7.5499    2.9182 O.3       1 <0>        -0.7624
     22 P1          0.9742    8.4180    4.2737 P.3       1 <0>         2.1098
     23 O3          2.1823    8.1239    5.0766 O.2       1 <0>        -1.1476
     24 H1          0.3615   -8.4343   -6.3254 H         1 <0>         0.0531
     25 H2          2.1412   -8.4101   -6.3430 H         1 <0>         0.0532
     26 H3          1.2762   -9.8778   -5.8274 H         1 <0>         0.0531
     27 H4          2.1687   -8.6383   -3.8740 H         1 <0>         0.0604
     28 H5          0.3890   -8.6626   -3.8564 H         1 <0>         0.0603
     29 H6          0.3482   -6.4013   -4.8731 H         1 <0>         0.0604
     30 H7          2.1279   -6.3771   -4.8907 H         1 <0>         0.0605
     31 H8          2.1554   -6.6053   -2.4218 H         1 <0>         0.0609
     32 H9          0.3757   -6.6296   -2.4042 H         1 <0>         0.0608
     33 H10         0.3348   -4.3683   -3.4208 H         1 <0>         0.0605
     34 H11         2.1146   -4.3441   -3.4385 H         1 <0>         0.0607
     35 H12         2.1421   -4.5723   -0.9695 H         1 <0>         0.0622
     36 H13         0.3624   -4.5966   -0.9519 H         1 <0>         0.0620
     37 H14         0.3215   -2.3353   -1.9686 H         1 <0>         0.0622
     38 H15         2.1012   -2.3111   -1.9862 H         1 <0>         0.0626
     39 H16         2.1288   -2.5393    0.4828 H         1 <0>         0.0727
     40 H17         0.3491   -2.5635    0.5004 H         1 <0>         0.0723
     41 H18        -0.9258   -0.5567    0.0083 H         1 <0>         0.1213
     42 H19        -0.9592    1.9054    0.0170 H         1 <0>         0.1199
     43 H20         3.3052    1.9634   -0.0205 H         1 <0>         0.1243
     44 H21         3.3386   -0.4987   -0.0324 H         1 <0>         0.1221
     45 H22         2.0306    3.9704   -0.5103 H         1 <0>         0.0869
     46 H23         0.2509    3.9462   -0.4937 H         1 <0>         0.0637
     47 H24         0.2770    3.7170    1.9752 H         1 <0>         0.0897
     48 H25         2.0567    3.7412    1.9586 H         1 <0>         0.1196
     49 H26         2.3670    5.7974   -0.2967 H         1 <0>         0.0558
     50 H27         2.3570    7.2453    0.7384 H         1 <0>         0.0813
     51 H28         4.3745    5.9903    0.9833 H         1 <0>         0.3942
     52 H29         0.3122    5.6787    3.4526 H         1 <0>         0.0601
     53 H30         2.0827    5.8493    3.3851 H         1 <0>         0.0913
     54 H31        -0.0730    5.8373   -0.1896 H         1 <0>         0.4166
     55 H32        -0.9064    5.7644    1.2478 H         1 <0>         0.4377
     56 O4          0.9422    9.9853    3.9067 O.3       1 <0>        -1.1619
     57 O5         -0.3400    8.0387    5.1230 O.3       1 <0>        -1.1852
     58 N1         -0.0731    6.1266    0.7871 N.4       1 <0>        -0.6315
     59 H33        -0.0842    7.1523    0.8327 H         1 <0>         0.4534
@<TRIPOS>BOND
     1    1    2 1
     2    1   24 1
     3    1   25 1
     4    1   26 1
     5    2    3 1
     6    2   27 1
     7    2   28 1
     8    3    4 1
     9    3   29 1
    10    3   30 1
    11    4    5 1
    12    4   31 1
    13    4   32 1
    14    5    6 1
    15    5   33 1
    16    5   34 1
    17    6    7 1
    18    6   35 1
    19    6   36 1
    20    7    8 1
    21    7   37 1
    22    7   38 1
    23    8    9 1
    24    8   39 1
    25    8   40 1
    26    9   14 ar
    27    9   10 ar
    28   10   11 ar
    29   10   41 1
    30   11   12 ar
    31   11   42 1
    32   12   13 ar
    33   12   15 1
    34   13   14 ar
    35   13   43 1
    36   14   44 1
    37   15   16 1
    38   15   45 1
    39   15   46 1
    40   16   17 1
    41   16   47 1
    42   16   48 1
    43   17   18 1
    44   17   20 1
    45   17   58 1
    46   18   19 1
    47   18   49 1
    48   18   50 1
    49   19   51 1
    50   20   21 1
    51   20   52 1
    52   20   53 1
    53   21   22 1
    54   22   23 2
    55   22   56 1
    56   22   57 1
    57   54   58 1
    58   55   58 1
    59   58   59 1
@<TRIPOS>MOLECULE
ZINC71331761
   45    47     0     0     0
SMALL
USER_CHARGES

@<TRIPOS>ATOM
      1 C1          2.0513    0.6766    0.4049 C.3       1 <0>        -0.1234
      2 C2          1.0052   -0.3866    0.1895 C.ar      1 <0>        -0.0667
      3 C3          0.9859   -1.1090   -0.9873 C.ar      1 <0>        -0.0943
      4 C4          0.0263   -2.0848   -1.1858 C.ar      1 <0>        -0.1595
      5 C5         -0.9171   -2.3403   -0.2075 C.ar      1 <0>        -0.0934
      6 C6         -0.9037   -1.6212    0.9715 C.ar      1 <0>        -0.0590
      7 C7          0.0629   -0.6450    1.1767 C.ar      1 <0>         0.1699
      8 N1          0.0834    0.0803    2.3719 N.am      1 <0>        -0.6832
      9 C8          0.5344   -0.4973    3.5031 C.2       1 <0>         0.6202
     10 O1          0.9972   -1.6228    3.4691 O.2       1 <0>        -0.5010
     11 C9          0.4678    0.2290    4.7731 C.2       1 <0>        -0.0920
     12 C10         0.8963   -0.2390    5.9964 C.2       1 <0>        -0.0957
     13 C11         0.6445    0.7742    6.9268 C.2       1 <0>        -0.1880
     14 C12         0.0774    1.8130    6.2456 C.2       1 <0>         0.0707
     15 O2         -0.0188    1.4759    4.9486 O.3       1 <0>        -0.1457
     16 C13        -0.3528    3.0965    6.8355 C.ar      1 <0>        -0.0157
     17 C14        -1.1576    3.1092    7.9767 C.ar      1 <0>        -0.0680
     18 C15        -1.5557    4.3126    8.5231 C.ar      1 <0>        -0.0319
     19 C16        -1.1588    5.5058    7.9423 C.ar      1 <0>        -0.0784
     20 C17        -0.3622    5.5007    6.8118 C.ar      1 <0>        -0.0948
     21 C18         0.0483    4.3041    6.2578 C.ar      1 <0>        -0.0116
     22 Cl1         1.0546    4.2999    4.8433 Cl        1 <0>        -0.0448
     23 Cl2        -2.5566    4.3307    9.9414 Cl        1 <0>        -0.0419
     24 C19        -1.9328   -1.8996    2.0366 C.3       1 <0>        -0.1255
     25 C20         0.0083   -2.8711   -2.4713 C.3       1 <0>         0.0491
     26 N2          0.8446   -4.0698   -2.3238 N.4       1 <0>        -0.6374
     27 H1          2.9303    0.2322    0.8718 H         1 <0>         0.0813
     28 H2          2.3303    1.1115   -0.5548 H         1 <0>         0.0776
     29 H3          1.6498    1.4551    1.0537 H         1 <0>         0.0725
     30 H4          1.7208   -0.9115   -1.7536 H         1 <0>         0.1372
     31 H5         -1.6654   -3.1028   -0.3658 H         1 <0>         0.1372
     32 H6         -0.2270    0.9992    2.3870 H         1 <0>         0.4196
     33 H7          1.3404   -1.2026    6.1977 H         1 <0>         0.1683
     34 H8          0.8579    0.7411    7.9849 H         1 <0>         0.1669
     35 H9         -1.4681    2.1797    8.4304 H         1 <0>         0.1521
     36 H10        -1.4732    6.4445    8.3740 H         1 <0>         0.1526
     37 H11        -0.0566    6.4347    6.3638 H         1 <0>         0.1532
     38 H12        -1.6000   -2.7338    2.6542 H         1 <0>         0.0833
     39 H13        -2.0595   -1.0142    2.6596 H         1 <0>         0.0713
     40 H14        -2.8832   -2.1521    1.5664 H         1 <0>         0.0781
     41 H15        -1.0149   -3.1681   -2.7013 H         1 <0>         0.1411
     42 H16         0.3980   -2.2535   -3.2805 H         1 <0>         0.1411
     43 H17         0.8326   -4.5963   -3.1845 H         1 <0>         0.4379
     44 H18         1.7918   -3.7949   -2.1109 H         1 <0>         0.4352
     45 H19         0.4839   -4.6415   -1.5747 H         1 <0>         0.4354
@<TRIPOS>BOND
     1    1    2 1
     2    1   27 1
     3    1   28 1
     4    1   29 1
     5    2    7 ar
     6    2    3 ar
     7    3    4 ar
     8    3   30 1
     9    4    5 ar
    10    4   25 1
    11    5    6 ar
    12    5   31 1
    13    6    7 ar
    14    6   24 1
    15    7    8 1
    16    8    9 am
    17    8   32 1
    18    9   10 2
    19    9   11 1
    20   11   15 1
    21   11   12 2
    22   12   13 1
    23   12   33 1
    24   13   14 2
    25   13   34 1
    26   14   15 1
    27   14   16 1
    28   16   21 ar
    29   16   17 ar
    30   17   18 ar
    31   17   35 1
    32   18   19 ar
    33   18   23 1
    34   19   20 ar
    35   19   36 1
    36   20   21 ar
    37   20   37 1
    38   21   22 1
    39   24   38 1
    40   24   39 1
    41   24   40 1
    42   25   26 1
    43   25   41 1
    44   25   42 1
    45   26   43 1
    46   26   44 1
    47   26   45 1
@<TRIPOS>MOLECULE
ZINC03819496
   54    57     0     0     0
SMALL
USER_CHARGES
1-[[4-[5-(4-isobutylphenyl)-1,2,4-oxadiazol-3-yl]phenyl]methyl]azetidine-3-carboxylic acid
@<TRIPOS>ATOM
      1 C1          0.0310    1.2054   -2.4872 C.3       1 <0>        -0.1496
      2 C2         -0.7527    1.5927   -1.2315 C.3       1 <0>        -0.0909
      3 C3         -2.1465    0.9639   -1.2860 C.3       1 <0>        -0.1539
      4 C4         -0.0127    1.0858    0.0080 C.3       1 <0>        -0.0857
      5 C5         -0.7181    1.5718    1.2479 C.ar      1 <0>        -0.0413
      6 C6         -0.3572    2.7803    1.8166 C.ar      1 <0>        -0.1216
      7 C7         -1.0028    3.2337    2.9484 C.ar      1 <0>        -0.0546
      8 C8         -2.0145    2.4651    3.5260 C.ar      1 <0>        -0.0485
      9 C9         -2.3699    1.2442    2.9505 C.ar      1 <0>        -0.0719
     10 C10        -1.7199    0.8048    1.8157 C.ar      1 <0>        -0.1188
     11 C11        -2.7072    2.9423    4.7418 C.2       1 <0>         0.2455
     12 N1         -2.4715    4.0671    5.3905 N.2       1 <0>        -0.4689
     13 C12        -3.3399    4.0767    6.4233 C.2       1 <0>         0.2050
     14 N2         -4.0397    2.9733    6.3554 N.2       1 <0>        -0.3689
     15 O1         -3.6920    2.3119    5.4003 O.3       1 <0>         0.0920
     16 C13        -3.4727    5.1403    7.4504 C.ar      1 <0>         0.0112
     17 C14        -2.6525    6.2654    7.4017 C.ar      1 <0>        -0.0723
     18 C15        -2.7839    7.2538    8.3562 C.ar      1 <0>        -0.0911
     19 C16        -3.7202    7.1235    9.3659 C.ar      1 <0>        -0.1282
     20 C17        -4.5334    6.0061    9.4219 C.ar      1 <0>        -0.0919
     21 C18        -4.4141    5.0142    8.4696 C.ar      1 <0>        -0.0841
     22 C19        -3.8551    8.2033   10.4085 C.3       1 <0>         0.0314
     23 C20        -1.5544    8.1784   11.1780 C.3       1 <0>        -0.0060
     24 C21        -1.3753    8.7947   12.5725 C.3       1 <0>        -0.1777
     25 C22        -2.8841    9.0551   12.4622 C.3       1 <0>        -0.0132
     26 C23        -0.5332   10.0444   12.5913 C.2       1 <0>         0.4695
     27 O2         -1.0606   11.1293   12.5223 O.co2     1 <0>        -0.6157
     28 H1          0.1235    0.1205   -2.5376 H         1 <0>         0.0563
     29 H2         -0.4962    1.5665   -3.3703 H         1 <0>         0.0574
     30 H3          1.0239    1.6533   -2.4484 H         1 <0>         0.0561
     31 H4         -0.8452    2.6775   -1.1811 H         1 <0>         0.0723
     32 H5         -2.7048    1.2398   -0.3914 H         1 <0>         0.0582
     33 H6         -2.6737    1.3250   -2.1691 H         1 <0>         0.0555
     34 H7         -2.0540   -0.1210   -1.3364 H         1 <0>         0.0560
     35 H8          0.0021   -0.0041    0.0020 H         1 <0>         0.0788
     36 H9          1.0099    1.4631    0.0003 H         1 <0>         0.0788
     37 H10         0.4289    3.3721    1.3712 H         1 <0>         0.1355
     38 H11        -0.7229    4.1791    3.3891 H         1 <0>         0.1391
     39 H12        -3.1517    0.6446    3.3928 H         1 <0>         0.1365
     40 H13        -1.9938   -0.1397    1.3694 H         1 <0>         0.1354
     41 H14        -1.9179    6.3658    6.6165 H         1 <0>         0.1468
     42 H15        -2.1514    8.1283    8.3171 H         1 <0>         0.1412
     43 H16        -5.2629    5.9094   10.2124 H         1 <0>         0.1397
     44 H17        -5.0491    4.1418    8.5146 H         1 <0>         0.1407
     45 H18        -3.5867    9.1653    9.9721 H         1 <0>         0.1279
     46 H19        -4.8853    8.2396   10.7627 H         1 <0>         0.1414
     47 H20        -0.9653    7.2743   11.0239 H         1 <0>         0.1425
     48 H21        -1.4425    8.8985   10.3674 H         1 <0>         0.1418
     49 H22        -1.1016    8.0770   13.3459 H         1 <0>         0.1287
     50 H23        -3.1271   10.0091   11.9943 H         1 <0>         0.1544
     51 H24        -3.4220    8.8939   13.3964 H         1 <0>         0.1418
     52 N3         -2.8738    8.0099   11.5546 N.4       1 <0>        -0.3569
     53 H25        -3.0458    7.0995   11.9972 H         1 <0>         0.4241
     54 O3          0.8026    9.9523   12.6848 O.co2     1 <0>        -0.7297
@<TRIPOS>BOND
     1    1    2 1
     2    1   28 1
     3    1   29 1
     4    1   30 1
     5    2    3 1
     6    2    4 1
     7    2   31 1
     8    3   32 1
     9    3   33 1
    10    3   34 1
    11    4    5 1
    12    4   35 1
    13    4   36 1
    14    5   10 ar
    15    5    6 ar
    16    6    7 ar
    17    6   37 1
    18    7    8 ar
    19    7   38 1
    20    8    9 ar
    21    8   11 1
    22    9   10 ar
    23    9   39 1
    24   10   40 1
    25   11   15 1
    26   11   12 2
    27   12   13 1
    28   13   14 2
    29   13   16 1
    30   14   15 1
    31   16   21 ar
    32   16   17 ar
    33   17   18 ar
    34   17   41 1
    35   18   19 ar
    36   18   42 1
    37   19   20 ar
    38   19   22 1
    39   20   21 ar
    40   20   43 1
    41   21   44 1
    42   22   45 1
    43   22   46 1
    44   22   52 1
    45   23   24 1
    46   23   47 1
    47   23   48 1
    48   23   52 1
    49   24   25 1
    50   24   26 1
    51   24   49 1
    52   25   50 1
    53   25   51 1
    54   25   52 1
    55   26   27 2
    56   26   54 1
    57   52   53 1
@<TRIPOS>MOLECULE
ZINC02141876
   40    43     0     0     0
SMALL
USER_CHARGES

@<TRIPOS>ATOM
      1 C1         -0.0167    1.3790    0.0096 C.ar      1 <0>        -0.1063
      2 C2          1.1687    2.0919    0.0021 C.ar      1 <0>        -0.1170
      3 C3          2.3774    1.4258   -0.0130 C.ar      1 <0>        -0.0952
      4 C4          2.4022    0.0327   -0.0207 C.ar      1 <0>        -0.0543
      5 C5          1.2051   -0.6804   -0.0131 C.ar      1 <0>        -0.0982
      6 C6          0.0021   -0.0041    0.0020 C.ar      1 <0>        -0.1140
      7 C7          3.6989   -0.6890   -0.0375 C.2       1 <0>        -0.0265
      8 C8          4.6859   -0.3584   -0.9530 C.2       1 <0>        -0.0705
      9 C9          5.8450   -1.0878   -0.8808 C.2       1 <0>        -0.1559
     10 S1          5.5084   -2.2068    0.4643 S.3       1 <0>         0.4000
     11 C10         3.9562   -1.7004    0.8587 C.2       1 <0>        -0.3380
     12 C11         3.0537   -2.2322    1.9421 C.3       1 <0>         0.5607
     13 F1          2.2745   -3.2750    1.4299 F         1 <0>        -0.1641
     14 F2          3.8303   -2.7085    3.0039 F         1 <0>        -0.1663
     15 F3          2.2186   -1.2067    2.3985 F         1 <0>        -0.1547
     16 C12         7.0563   -0.9752   -1.7035 C.2       1 <0>         0.3865
     17 N1          8.1404   -1.7129   -1.5872 N.2       1 <0>        -0.5223
     18 C13         9.0480   -1.3376   -2.5006 C.2       1 <0>         0.3044
     19 N2          8.5530   -0.3538   -3.2122 N.2       1 <0>        -0.3203
     20 O1          7.2486   -0.1035   -2.7112 O.3       1 <0>        -0.0818
     21 C14        10.3943   -1.9378   -2.6766 C.ar      1 <0>        -0.0402
     22 C15        10.8048   -2.9869   -1.8567 C.ar      1 <0>        -0.0323
     23 C16        12.0572   -3.5415   -2.0250 C.ar      1 <0>        -0.1214
     24 C17        12.9046   -3.0576   -3.0056 C.ar      1 <0>        -0.0435
     25 C18        12.5024   -2.0162   -3.8218 C.ar      1 <0>        -0.1866
     26 C19        11.2495   -1.4580   -3.6659 C.ar      1 <0>        -0.0259
     27 C20        13.4312   -1.4940   -4.8876 C.3       1 <0>         0.5110
     28 F4         14.6294   -2.2154   -4.8562 F         1 <0>        -0.1735
     29 F5         12.8307   -1.6416   -6.1425 F         1 <0>        -0.1731
     30 F6         13.6956   -0.1404   -4.6533 F         1 <0>        -0.1730
     31 H1         -0.9602    1.9042    0.0260 H         1 <0>         0.1265
     32 H2          1.1483    3.1717    0.0078 H         1 <0>         0.1282
     33 H3          3.3023    1.9834   -0.0192 H         1 <0>         0.1264
     34 H4          1.2186   -1.7603   -0.0194 H         1 <0>         0.1223
     35 H5         -0.9264   -0.5558    0.0079 H         1 <0>         0.1280
     36 H6          4.5499    0.4276   -1.6810 H         1 <0>         0.1669
     37 H7         10.1441   -3.3651   -1.0906 H         1 <0>         0.1510
     38 H8         12.3765   -4.3545   -1.3898 H         1 <0>         0.1493
     39 H9         13.8839   -3.4945   -3.1339 H         1 <0>         0.1486
     40 H10        10.9346   -0.6479   -4.3070 H         1 <0>         0.1448
@<TRIPOS>BOND
     1    1    6 ar
     2    1    2 ar
     3    1   31 1
     4    2    3 ar
     5    2   32 1
     6    3    4 ar
     7    3   33 1
     8    4    5 ar
     9    4    7 1
    10    5    6 ar
    11    5   34 1
    12    6   35 1
    13    7   11 2
    14    7    8 1
    15    8    9 2
    16    8   36 1
    17    9   10 1
    18    9   16 1
    19   10   11 1
    20   11   12 1
    21   12   13 1
    22   12   14 1
    23   12   15 1
    24   16   20 1
    25   16   17 2
    26   17   18 1
    27   18   19 2
    28   18   21 1
    29   19   20 1
    30   21   26 ar
    31   21   22 ar
    32   22   23 ar
    33   22   37 1
    34   23   24 ar
    35   23   38 1
    36   24   25 ar
    37   24   39 1
    38   25   26 ar
    39   25   27 1
    40   26   40 1
    41   27   28 1
    42   27   29 1
    43   27   30 1
@<TRIPOS>MOLECULE
ZINC08860500
   62    61     0     0     0
SMALL
USER_CHARGES
(2-amino-3-hydroxy-octadec-4-enoxy)phosphonic acid
@<TRIPOS>ATOM
      1 C1        -14.6046    0.2647   13.8444 C.3       1 <0>        -0.1540
      2 C2        -13.8885   -0.2287   12.5856 C.3       1 <0>        -0.1264
      3 C3        -12.4960    0.4007   12.5112 C.3       1 <0>        -0.1210
      4 C4        -11.7798   -0.0927   11.2524 C.3       1 <0>        -0.1215
      5 C5        -10.3873    0.5367   11.1781 C.3       1 <0>        -0.1203
      6 C6         -9.6711    0.0433    9.9193 C.3       1 <0>        -0.1212
      7 C7         -8.2786    0.6727    9.8449 C.3       1 <0>        -0.1200
      8 C8         -7.5624    0.1793    8.5861 C.3       1 <0>        -0.1214
      9 C9         -6.1699    0.8087    8.5117 C.3       1 <0>        -0.1199
     10 C10        -5.4537    0.3153    7.2529 C.3       1 <0>        -0.1218
     11 C11        -4.0612    0.9447    7.1786 C.3       1 <0>        -0.1198
     12 C12        -3.3451    0.4513    5.9198 C.3       1 <0>        -0.1180
     13 C13        -1.9525    1.0807    5.8454 C.3       1 <0>        -0.0982
     14 C14        -1.2471    0.5947    4.6055 C.2       1 <0>        -0.1024
     15 C15        -0.7691    1.4573    3.7432 C.2       1 <0>        -0.2467
     16 C16        -0.0638    0.9713    2.5033 C.3       1 <0>         0.1346
     17 H1          0.9829    1.2737    2.5386 H         1 <0>         0.1255
     18 C17        -0.7288    1.5792    1.2668 C.3       1 <0>        -0.0008
     19 H2         -1.7755    1.2768    1.2315 H         1 <0>         0.1409
     20 C18        -0.0127    1.0858    0.0080 C.3       1 <0>         0.1006
     21 O1         -0.7038    1.5592   -1.1497 O.3       1 <0>        -0.7615
     22 P1         -0.2267    1.2297   -2.6516 P.3       1 <0>         2.1068
     23 O2         -0.1121   -0.2360   -2.8225 O.2       1 <0>        -1.1478
     24 O3         -0.1458   -0.4537    2.4363 O.3       1 <0>        -0.5273
     25 H3        -14.6980    1.3501   13.8075 H         1 <0>         0.0532
     26 H4        -15.5967   -0.1837   13.8974 H         1 <0>         0.0532
     27 H5        -14.0294   -0.0207   14.7252 H         1 <0>         0.0530
     28 H6        -14.4637    0.0567   11.7048 H         1 <0>         0.0605
     29 H7        -13.7951   -1.3141   12.6225 H         1 <0>         0.0603
     30 H8        -11.9207    0.1153   13.3920 H         1 <0>         0.0602
     31 H9        -12.5893    1.4861   12.4743 H         1 <0>         0.0604
     32 H10       -12.3551    0.1927   10.3717 H         1 <0>         0.0609
     33 H11       -11.6865   -1.1781   11.2894 H         1 <0>         0.0607
     34 H12        -9.8120    0.2513   12.0588 H         1 <0>         0.0600
     35 H13       -10.4806    1.6221   11.1411 H         1 <0>         0.0602
     36 H14       -10.2464    0.3287    9.0385 H         1 <0>         0.0609
     37 H15        -9.5778   -1.0421    9.9562 H         1 <0>         0.0607
     38 H16        -7.7033    0.3873   10.7256 H         1 <0>         0.0599
     39 H17        -8.3719    1.7581    9.8080 H         1 <0>         0.0600
     40 H18        -8.1377    0.4647    7.7053 H         1 <0>         0.0611
     41 H19        -7.4691   -0.9061    8.6230 H         1 <0>         0.0610
     42 H20        -5.5946    0.5233    9.3925 H         1 <0>         0.0602
     43 H21        -6.2632    1.8941    8.4748 H         1 <0>         0.0599
     44 H22        -6.0290    0.6007    6.3722 H         1 <0>         0.0619
     45 H23        -5.3604   -0.7701    7.2899 H         1 <0>         0.0622
     46 H24        -3.4860    0.6593    8.0593 H         1 <0>         0.0619
     47 H25        -4.1546    2.0301    7.1416 H         1 <0>         0.0606
     48 H26        -3.9203    0.7367    5.0390 H         1 <0>         0.0643
     49 H27        -3.2517   -0.6341    5.9567 H         1 <0>         0.0668
     50 H28        -1.3773    0.7953    6.7261 H         1 <0>         0.0790
     51 H29        -2.0459    2.1661    5.8085 H         1 <0>         0.0671
     52 H30        -1.1357   -0.4647    4.4278 H         1 <0>         0.1262
     53 H31        -0.8806    2.5168    3.9209 H         1 <0>         0.1168
     54 H32         0.0021   -0.0041    0.0020 H         1 <0>         0.0909
     55 H33         1.0099    1.4631    0.0003 H         1 <0>         0.0612
     56 H34        -1.1648    3.3997    2.1238 H         1 <0>         0.4198
     57 H35         0.3165    3.3498    1.3694 H         1 <0>         0.4312
     58 H36        -1.0502   -0.7944    2.4021 H         1 <0>         0.3865
     59 O4         -1.3056    1.8090   -3.6968 O.3       1 <0>        -1.1604
     60 O5          1.2047    1.9151   -2.9226 O.3       1 <0>        -1.1840
     61 N1         -0.6555    3.0502    1.3138 N.4       1 <0>        -0.6320
     62 H37        -1.0768    3.4365    0.4609 H         1 <0>         0.4555
@<TRIPOS>BOND
     1    1    2 1
     2    1   25 1
     3    1   26 1
     4    1   27 1
     5    2    3 1
     6    2   28 1
     7    2   29 1
     8    3    4 1
     9    3   30 1
    10    3   31 1
    11    4    5 1
    12    4   32 1
    13    4   33 1
    14    5    6 1
    15    5   34 1
    16    5   35 1
    17    6    7 1
    18    6   36 1
    19    6   37 1
    20    7    8 1
    21    7   38 1
    22    7   39 1
    23    8    9 1
    24    8   40 1
    25    8   41 1
    26    9   10 1
    27    9   42 1
    28    9   43 1
    29   10   11 1
    30   10   44 1
    31   10   45 1
    32   11   12 1
    33   11   46 1
    34   11   47 1
    35   12   13 1
    36   12   48 1
    37   12   49 1
    38   13   14 1
    39   13   50 1
    40   13   51 1
    41   14   15 2
    42   14   52 1
    43   15   16 1
    44   15   53 1
    45   16   17 1
    46   16   18 1
    47   16   24 1
    48   18   19 1
    49   18   20 1
    50   18   61 1
    51   20   21 1
    52   20   54 1
    53   20   55 1
    54   21   22 1
    55   22   23 2
    56   22   59 1
    57   22   60 1
    58   24   58 1
    59   56   61 1
    60   57   61 1
    61   61   62 1
@<TRIPOS>MOLECULE
ZINC01542002
   56    56     0     0     0
SMALL
USER_CHARGES
2-amino-2-[2-(4-octylphenyl)ethyl]propane-1,3-diol
@<TRIPOS>ATOM
      1 C1         -0.8243    1.6329   -8.7265 C.3       1 <0>        -0.1549
      2 C2         -0.0843    1.1261   -7.4870 C.3       1 <0>        -0.1263
      3 C3         -0.8004    1.6195   -6.2282 C.3       1 <0>        -0.1212
      4 C4         -0.0604    1.1126   -4.9886 C.3       1 <0>        -0.1216
      5 C5         -0.7766    1.6061   -3.7298 C.3       1 <0>        -0.1201
      6 C6         -0.0366    1.0992   -2.4903 C.3       1 <0>        -0.1215
      7 C7         -0.7527    1.5927   -1.2315 C.3       1 <0>        -0.1122
      8 C8         -0.0127    1.0858    0.0080 C.3       1 <0>        -0.0887
      9 C9         -0.7181    1.5718    1.2479 C.ar      1 <0>        -0.0656
     10 C10        -0.3599    2.7788    1.8186 C.ar      1 <0>        -0.1124
     11 C11        -1.0099    3.2267    2.9534 C.ar      1 <0>        -0.1054
     12 C12        -2.0119    2.4632    3.5227 C.ar      1 <0>        -0.1080
     13 C13        -2.3665    1.2538    2.9550 C.ar      1 <0>        -0.1130
     14 C14        -1.7194    0.8079    1.8177 C.ar      1 <0>        -0.1140
     15 C15        -2.7180    2.9497    4.7620 C.3       1 <0>        -0.0866
     16 C16        -1.9793    2.4425    6.0022 C.3       1 <0>        -0.1331
     17 C17        -2.6962    2.9364    7.2604 C.3       1 <0>         0.0708
     18 C18        -1.9575    2.4292    8.5005 C.3       1 <0>         0.0634
     19 O1         -2.6902    2.7914    9.6727 O.3       1 <0>        -0.5835
     20 C19        -2.7160    4.4663    7.2687 C.3       1 <0>         0.0650
     21 O2         -1.3750    4.9601    7.2596 O.3       1 <0>        -0.5531
     22 H1         -1.8469    1.2556   -8.7188 H         1 <0>         0.0534
     23 H2         -0.8390    2.7228   -8.7205 H         1 <0>         0.0535
     24 H3         -0.3141    1.2814   -9.6233 H         1 <0>         0.0548
     25 H4          0.9383    1.5033   -7.4947 H         1 <0>         0.0607
     26 H5         -0.0695    0.0362   -7.4930 H         1 <0>         0.0606
     27 H6         -1.8230    1.2422   -6.2204 H         1 <0>         0.0604
     28 H7         -0.8152    2.7094   -6.2222 H         1 <0>         0.0606
     29 H8          0.9622    1.4899   -4.9964 H         1 <0>         0.0615
     30 H9         -0.0456    0.0228   -4.9946 H         1 <0>         0.0613
     31 H10        -1.7991    1.2288   -3.7221 H         1 <0>         0.0606
     32 H11        -0.7913    2.6960   -3.7239 H         1 <0>         0.0609
     33 H12         0.9860    1.4765   -2.4981 H         1 <0>         0.0633
     34 H13        -0.0218    0.0093   -2.4963 H         1 <0>         0.0630
     35 H14        -1.7753    1.2154   -1.2238 H         1 <0>         0.0626
     36 H15        -0.7675    2.6825   -1.2255 H         1 <0>         0.0631
     37 H16         0.0021   -0.0041    0.0020 H         1 <0>         0.0753
     38 H17         1.0099    1.4631    0.0003 H         1 <0>         0.0757
     39 H18         0.4255    3.3735    1.3760 H         1 <0>         0.1263
     40 H19        -0.7331    4.1718    3.3968 H         1 <0>         0.1231
     41 H20        -3.1493    0.6573    3.3998 H         1 <0>         0.1183
     42 H21        -1.9965   -0.1370    1.3742 H         1 <0>         0.1253
     43 H22        -2.7321    4.0396    4.7680 H         1 <0>         0.0888
     44 H23        -3.7408    2.5731    4.7689 H         1 <0>         0.0641
     45 H24        -1.9652    1.3526    5.9962 H         1 <0>         0.0937
     46 H25        -0.9565    2.8192    5.9953 H         1 <0>         0.1238
     47 H26        -1.8656    1.3442    8.4503 H         1 <0>         0.0741
     48 H27        -0.9643    2.8765    8.5402 H         1 <0>         0.1030
     49 H28        -2.2793    2.5013   10.4986 H         1 <0>         0.4122
     50 H29        -3.2422    4.8276    6.3852 H         1 <0>         0.0709
     51 H30        -3.2267    4.8181    8.1651 H         1 <0>         0.0774
     52 H31        -1.3112    5.9249    7.2642 H         1 <0>         0.4066
     53 H32        -4.0885    1.4199    7.2644 H         1 <0>         0.4413
     54 H33        -4.5889    2.7934    8.0575 H         1 <0>         0.4437
     55 N1         -4.0829    2.4384    7.2478 N.4       1 <0>        -0.6372
     56 H34        -4.5500    2.7621    6.3926 H         1 <0>         0.4356
@<TRIPOS>BOND
     1    1    2 1
     2    1   22 1
     3    1   23 1
     4    1   24 1
     5    2    3 1
     6    2   25 1
     7    2   26 1
     8    3    4 1
     9    3   27 1
    10    3   28 1
    11    4    5 1
    12    4   29 1
    13    4   30 1
    14    5    6 1
    15    5   31 1
    16    5   32 1
    17    6    7 1
    18    6   33 1
    19    6   34 1
    20    7    8 1
    21    7   35 1
    22    7   36 1
    23    8    9 1
    24    8   37 1
    25    8   38 1
    26    9   14 ar
    27    9   10 ar
    28   10   11 ar
    29   10   39 1
    30   11   12 ar
    31   11   40 1
    32   12   13 ar
    33   12   15 1
    34   13   14 ar
    35   13   41 1
    36   14   42 1
    37   15   16 1
    38   15   43 1
    39   15   44 1
    40   16   17 1
    41   16   45 1
    42   16   46 1
    43   17   18 1
    44   17   20 1
    45   17   55 1
    46   18   19 1
    47   18   47 1
    48   18   48 1
    49   19   49 1
    50   20   21 1
    51   20   50 1
    52   20   51 1
    53   21   52 1
    54   53   55 1
    55   54   55 1
    56   55   56 1
@<TRIPOS>MOLECULE
ZINC32785912
   62    61     0     0     0
SMALL
USER_CHARGES
[(E,2S,3S)-2-amino-3-hydroxy-octadec-4-enyl] dihydrogen phosphate
@<TRIPOS>ATOM
      1 C1         -8.9173   14.7125    9.3865 C.3       1 <0>        -0.1552
      2 C2         -8.2973   14.2375    8.0709 C.3       1 <0>        -0.1269
      3 C3         -8.1854   12.7117    8.0814 C.3       1 <0>        -0.1215
      4 C4         -7.5654   12.2367    6.7658 C.3       1 <0>        -0.1220
      5 C5         -7.4535   10.7108    6.7763 C.3       1 <0>        -0.1208
      6 C6         -6.8335   10.2358    5.4607 C.3       1 <0>        -0.1217
      7 C7         -6.7216    8.7100    5.4712 C.3       1 <0>        -0.1205
      8 C8         -6.1015    8.2350    4.1556 C.3       1 <0>        -0.1220
      9 C9         -5.9896    6.7091    4.1661 C.3       1 <0>        -0.1203
     10 C10        -5.3696    6.2341    2.8505 C.3       1 <0>        -0.1224
     11 C11        -5.2577    4.7083    2.8610 C.3       1 <0>        -0.1204
     12 C12        -4.6377    4.2333    1.5454 C.3       1 <0>        -0.1194
     13 C13        -4.5258    2.7074    1.5559 C.3       1 <0>        -0.0980
     14 C14        -3.9151    2.2396    0.2601 C.2       1 <0>        -0.1005
     15 C15        -2.8450    1.4840    0.2754 C.2       1 <0>        -0.1951
     16 C16        -2.2343    1.0162   -1.0204 C.3       1 <0>         0.1363
     17 H1         -2.8436    1.3482   -1.8740 H         1 <0>         0.0950
     18 C17        -0.7955    1.5269   -1.1198 C.3       1 <0>         0.0101
     19 H2         -0.7701    2.6247   -1.0551 H         1 <0>         0.1398
     20 C18        -0.1755    1.0519   -2.4354 C.3       1 <0>         0.0981
     21 O1          1.1257    1.6239   -2.5827 O.3       1 <0>        -0.7566
     22 P1          2.0699    1.3392   -3.8553 P.3       1 <0>         2.1061
     23 O2          1.3389    1.6767   -5.0972 O.2       1 <0>        -1.1488
     24 O3          3.3977    2.2437   -3.7515 O.3       1 <0>        -1.1600
     25 O4          2.4813   -0.2171   -3.8809 O.3       1 <0>        -1.1834
     26 N1         -0.0116    1.0048    0.0076 N.4       1 <0>        -0.6713
     27 O5         -2.2365   -0.4123   -1.0597 O.3       1 <0>        -0.6010
     28 H3         -8.9977   15.8095    9.3789 H         1 <0>         0.0535
     29 H4         -8.2810   14.3973   10.2266 H         1 <0>         0.0535
     30 H5         -9.9189   14.2722    9.4998 H         1 <0>         0.0534
     31 H6         -8.9336   14.5527    7.2308 H         1 <0>         0.0606
     32 H7         -7.2957   14.6778    7.9575 H         1 <0>         0.0608
     33 H8         -7.5491   12.3965    8.9215 H         1 <0>         0.0606
     34 H9         -9.1870   12.2713    8.1948 H         1 <0>         0.0605
     35 H10        -8.2017   12.5519    5.9257 H         1 <0>         0.0609
     36 H11        -6.5638   12.6770    6.6524 H         1 <0>         0.0611
     37 H12        -6.8172   10.3956    7.6164 H         1 <0>         0.0604
     38 H13        -8.4551   10.2704    6.8897 H         1 <0>         0.0603
     39 H14        -7.4698   10.5510    4.6206 H         1 <0>         0.0609
     40 H15        -5.8319   10.6761    5.3473 H         1 <0>         0.0612
     41 H16        -6.0853    8.3948    6.3113 H         1 <0>         0.0603
     42 H17        -7.7232    8.2696    5.5845 H         1 <0>         0.0601
     43 H18        -6.7378    8.5502    3.3155 H         1 <0>         0.0612
     44 H19        -5.0999    8.6753    4.0423 H         1 <0>         0.0614
     45 H20        -5.3533    6.3939    5.0062 H         1 <0>         0.0602
     46 H21        -6.9912    6.2687    4.2795 H         1 <0>         0.0603
     47 H22        -6.0059    6.5493    2.0104 H         1 <0>         0.0623
     48 H23        -4.3680    6.6744    2.7371 H         1 <0>         0.0622
     49 H24        -4.6214    4.3931    3.7011 H         1 <0>         0.0611
     50 H25        -6.2593    4.2679    2.9744 H         1 <0>         0.0621
     51 H26        -5.2740    4.5485    0.7053 H         1 <0>         0.0668
     52 H27        -3.6361    4.6736    1.4320 H         1 <0>         0.0652
     53 H28        -3.8895    2.3922    2.3960 H         1 <0>         0.0692
     54 H29        -5.5274    2.2670    1.6692 H         1 <0>         0.0807
     55 H30        -4.3679    2.5326   -0.6986 H         1 <0>         0.1216
     56 H31        -2.3922    1.1910    1.2341 H         1 <0>         0.1158
     57 H32        -0.0951   -0.0451   -2.4278 H         1 <0>         0.0590
     58 H33        -0.8118    1.3671   -3.2755 H         1 <0>         0.0801
     59 H34         1.0228    1.3720   -0.0639 H         1 <0>         0.4696
     60 H35        -0.0133   -0.0948   -0.0227 H         1 <0>         0.4491
     61 H36        -1.8274   -0.9391   -1.9344 H         1 <0>         0.4324
     62 H37        -0.4574    1.3463    0.9535 H         1 <0>         0.4338
@<TRIPOS>BOND
     1    1    2 1
     2    1   28 1
     3    1   29 1
     4    1   30 1
     5    2    3 1
     6    2   31 1
     7    2   32 1
     8    3    4 1
     9    3   33 1
    10    3   34 1
    11    4    5 1
    12    4   35 1
    13    4   36 1
    14    5    6 1
    15    5   37 1
    16    5   38 1
    17    6    7 1
    18    6   39 1
    19    6   40 1
    20    7    8 1
    21    7   41 1
    22    7   42 1
    23    8    9 1
    24    8   43 1
    25    8   44 1
    26    9   10 1
    27    9   45 1
    28    9   46 1
    29   10   11 1
    30   10   47 1
    31   10   48 1
    32   11   12 1
    33   11   49 1
    34   11   50 1
    35   12   13 1
    36   12   51 1
    37   12   52 1
    38   13   14 1
    39   13   53 1
    40   13   54 1
    41   14   15 2
    42   14   55 1
    43   15   16 1
    44   15   56 1
    45   16   17 1
    46   16   18 1
    47   16   27 1
    48   18   19 1
    49   18   20 1
    50   18   26 1
    51   20   21 1
    52   20   57 1
    53   20   58 1
    54   21   22 1
    55   22   23 2
    56   22   24 1
    57   22   25 1
    58   26   59 1
    59   26   60 1
    60   26   62 1
    61   27   61 1
@<TRIPOS>MOLECULE
ZINC36178158
   62    61     0     0     0
SMALL
USER_CHARGES

@<TRIPOS>ATOM
      1 C1         -0.0187    1.5258    0.0104 C.3       1 <0>        -0.1541
      2 C2          0.0021   -0.0041    0.0020 C.3       1 <0>        -0.1263
      3 C3          0.7182   -0.4975   -1.2568 C.3       1 <0>        -0.1211
      4 C4          0.7390   -2.0273   -1.2652 C.3       1 <0>        -0.1214
      5 C5          1.4551   -2.5207   -2.5240 C.3       1 <0>        -0.1205
      6 C6          1.4758   -4.0506   -2.5324 C.3       1 <0>        -0.1209
      7 C7          2.1920   -4.5440   -3.7912 C.3       1 <0>        -0.1205
      8 C8          2.2127   -6.0738   -3.7996 C.3       1 <0>        -0.1209
      9 C9          2.9289   -6.5673   -5.0584 C.3       1 <0>        -0.1208
     10 C10         2.9496   -8.0971   -5.0668 C.3       1 <0>        -0.1208
     11 C11         3.6658   -8.5905   -6.3257 C.3       1 <0>        -0.1218
     12 C12         3.6865  -10.1203   -6.3341 C.3       1 <0>        -0.1165
     13 C13         4.4026  -10.6138   -7.5929 C.3       1 <0>        -0.1010
     14 C14         4.4231  -12.1206   -7.6012 C.2       1 <0>        -0.1163
     15 C15         3.9428  -12.7765   -8.6284 C.2       1 <0>        -0.2442
     16 C16         3.9632  -14.2834   -8.6366 C.3       1 <0>         0.1258
     17 H1          4.6211  -14.6334   -9.4321 H         1 <0>         0.1507
     18 C17         2.5473  -14.8113   -8.8765 C.3       1 <0>        -0.0034
     19 H2          2.2157  -14.5219   -9.8737 H         1 <0>         0.1534
     20 C18         2.5456  -16.3370   -8.7611 C.3       1 <0>         0.1041
     21 O1          1.2509  -16.8387   -9.0990 O.3       1 <0>        -0.7601
     22 P1          0.8873  -18.4070   -9.0855 P.3       1 <0>         2.1022
     23 O2          1.8969  -19.1850   -9.9965 O.2       1 <0>        -1.1706
     24 O3          0.9798  -18.9520   -7.6196 O.3       1 <0>        -1.1709
     25 O4         -0.5686  -18.6103   -9.6273 O.3       1 <0>        -1.1486
     26 N1          1.6365  -14.2434   -7.8735 N.4       1 <0>        -0.6280
     27 O5          4.4425  -14.7602   -7.3777 O.3       1 <0>        -0.5324
     28 H3          1.0039    1.9031    0.0027 H         1 <0>         0.0531
     29 H4         -0.5459    1.8868   -0.8726 H         1 <0>         0.0532
     30 H5         -0.5289    1.8773    0.9072 H         1 <0>         0.0533
     31 H6          0.5293   -0.3651    0.8851 H         1 <0>         0.0603
     32 H7         -1.0205   -0.3814    0.0098 H         1 <0>         0.0604
     33 H8          0.1910   -0.1364   -2.1398 H         1 <0>         0.0605
     34 H9          1.7408   -0.1202   -1.2645 H         1 <0>         0.0603
     35 H10         1.2661   -2.3884   -0.3821 H         1 <0>         0.0606
     36 H11        -0.2836   -2.4046   -1.2575 H         1 <0>         0.0607
     37 H12         0.9279   -2.1597   -3.4071 H         1 <0>         0.0604
     38 H13         2.4777   -2.1435   -2.5317 H         1 <0>         0.0602
     39 H14         2.0030   -4.4117   -1.6494 H         1 <0>         0.0606
     40 H15         0.4533   -4.4279   -2.5247 H         1 <0>         0.0607
     41 H16         1.6648   -4.1829   -4.6743 H         1 <0>         0.0603
     42 H17         3.2146   -4.1667   -3.7990 H         1 <0>         0.0602
     43 H18         2.7399   -6.4349   -2.9166 H         1 <0>         0.0608
     44 H19         1.1901   -6.4511   -3.7919 H         1 <0>         0.0607
     45 H20         2.4017   -6.2062   -5.9415 H         1 <0>         0.0605
     46 H21         3.9515   -6.1900   -5.0662 H         1 <0>         0.0607
     47 H22         3.4768   -8.4582   -4.1838 H         1 <0>         0.0618
     48 H23         1.9270   -8.4744   -5.0591 H         1 <0>         0.0609
     49 H24         3.1386   -8.2294   -7.2087 H         1 <0>         0.0621
     50 H25         4.6884   -8.2132   -6.3334 H         1 <0>         0.0631
     51 H26         4.2137  -10.4814   -5.4510 H         1 <0>         0.0666
     52 H27         2.6639  -10.4976   -6.3263 H         1 <0>         0.0605
     53 H28         3.8755  -10.2527   -8.4759 H         1 <0>         0.0708
     54 H29         5.4252  -10.2365   -7.6006 H         1 <0>         0.0811
     55 H30         4.8337  -12.6597   -6.7602 H         1 <0>         0.1249
     56 H31         3.5321  -12.2374   -9.4693 H         1 <0>         0.1313
     57 H32         3.2862  -16.7538   -9.4436 H         1 <0>         0.0870
     58 H33         2.7911  -16.6243   -7.7388 H         1 <0>         0.0667
     59 H34         1.9435  -14.5112   -6.9504 H         1 <0>         0.4225
     60 H35         1.6377  -13.2372   -7.9496 H         1 <0>         0.4190
     61 H36         3.9041  -14.4863   -6.6226 H         1 <0>         0.3673
     62 H37         0.7028  -14.5915   -8.0317 H         1 <0>         0.4514
@<TRIPOS>BOND
     1    1    2 1
     2    1   28 1
     3    1   29 1
     4    1   30 1
     5    2    3 1
     6    2   31 1
     7    2   32 1
     8    3    4 1
     9    3   33 1
    10    3   34 1
    11    4    5 1
    12    4   35 1
    13    4   36 1
    14    5    6 1
    15    5   37 1
    16    5   38 1
    17    6    7 1
    18    6   39 1
    19    6   40 1
    20    7    8 1
    21    7   41 1
    22    7   42 1
    23    8    9 1
    24    8   43 1
    25    8   44 1
    26    9   10 1
    27    9   45 1
    28    9   46 1
    29   10   11 1
    30   10   47 1
    31   10   48 1
    32   11   12 1
    33   11   49 1
    34   11   50 1
    35   12   13 1
    36   12   51 1
    37   12   52 1
    38   13   14 1
    39   13   53 1
    40   13   54 1
    41   14   15 2
    42   14   55 1
    43   15   16 1
    44   15   56 1
    45   16   17 1
    46   16   18 1
    47   16   27 1
    48   18   19 1
    49   18   20 1
    50   18   26 1
    51   20   21 1
    52   20   57 1
    53   20   58 1
    54   21   22 1
    55   22   23 2
    56   22   24 1
    57   22   25 1
    58   26   59 1
    59   26   60 1
    60   26   62 1
    61   27   61 1
@<TRIPOS>MOLECULE
ZINC03898989
   42    45     0     0     0
SMALL
USER_CHARGES
3-phenyl-1-(trimethylBLAHyl)-prop-2-en-1-one
@<TRIPOS>ATOM
      1 C1         -6.1003    8.2806    0.1020 C.3       1 <0>        -0.0807
      2 C2         -4.6050    8.4674    0.0886 C.2       1 <0>         0.1377
      3 C3         -3.9297    9.7026    0.0880 C.2       1 <0>        -0.1962
      4 C4         -2.6089    9.4519    0.0785 C.2       1 <0>         0.0808
      5 N1         -2.4444    8.0950    0.0651 N.am      1 <0>        -0.3546
      6 N2         -3.7164    7.5114    0.0750 N.2       1 <0>        -0.2705
      7 C5         -1.2682    7.4370    0.0508 C.2       1 <0>         0.5850
      8 O1         -0.2233    8.0595    0.0438 O.2       1 <0>        -0.4883
      9 C6         -1.2484    5.9760    0.0437 C.2       1 <0>        -0.2146
     10 C7         -0.0701    5.3169    0.0294 C.2       1 <0>         0.0026
     11 C8         -0.0501    3.8457    0.0223 C.ar      1 <0>        -0.0865
     12 C9          1.1685    3.1592    0.0074 C.ar      1 <0>        -0.0895
     13 C10         1.1787    1.7805    0.0004 C.ar      1 <0>        -0.1242
     14 C11        -0.0126    1.0758    0.0080 C.ar      1 <0>        -0.1019
     15 C12        -1.2226    1.7478    0.0173 C.ar      1 <0>        -0.1230
     16 C13        -1.2497    3.1263    0.0299 C.ar      1 <0>        -0.0944
     17 C14        -1.8131   10.7342    0.0680 C.3       1 <0>        -0.0220
     18 C15        -2.8299   11.8854    0.0759 C.3       1 <0>        -0.1544
     19 H1         -2.6130   12.7462    0.7084 H         1 <0>         0.1317
     20 C16        -4.1979   11.1883    0.0990 C.3       1 <0>        -0.0782
     21 H2         -4.9964   11.5454    0.7494 H         1 <0>         0.1193
     22 C17        -3.8099   12.0202   -1.1245 C.3       1 <0>        -0.0860
     23 C18        -3.4779   11.2666   -2.4140 C.3       1 <0>        -0.1195
     24 C19        -4.5062   13.3698   -1.3101 C.3       1 <0>        -0.1140
     25 H3         -6.4511    8.2304    1.1328 H         1 <0>         0.0862
     26 H4         -6.5761    9.1212   -0.4032 H         1 <0>         0.0853
     27 H5         -6.3555    7.3550   -0.4140 H         1 <0>         0.0802
     28 H6         -2.1762    5.4233    0.0500 H         1 <0>         0.1465
     29 H7          0.8577    5.8696    0.0231 H         1 <0>         0.1382
     30 H8          2.0989    3.7076    0.0018 H         1 <0>         0.1296
     31 H9          2.1188    1.2489   -0.0115 H         1 <0>         0.1284
     32 H10         0.0021   -0.0041    0.0020 H         1 <0>         0.1266
     33 H11        -2.1479    1.1909    0.0187 H         1 <0>         0.1282
     34 H12        -2.1946    3.6492    0.0410 H         1 <0>         0.1302
     35 H13        -1.1966   10.7873   -0.8294 H         1 <0>         0.0949
     36 H14        -1.1836   10.7864    0.9563 H         1 <0>         0.0954
     37 H15        -4.3430   10.6814   -2.7258 H         1 <0>         0.0616
     38 H16        -3.2212   11.9808   -3.1964 H         1 <0>         0.0631
     39 H17        -2.6329   10.6007   -2.2384 H         1 <0>         0.0548
     40 H18        -4.2983   14.0071   -0.4505 H         1 <0>         0.0613
     41 H19        -4.1345   13.8489   -2.2159 H         1 <0>         0.0658
     42 H20        -5.5817   13.2151   -1.3960 H         1 <0>         0.0652
@<TRIPOS>BOND
     1    1    2 1
     2    1   25 1
     3    1   26 1
     4    1   27 1
     5    2    6 2
     6    2    3 1
     7    3   20 1
     8    3    4 2
     9    4    5 1
    10    4   17 1
    11    5    6 1
    12    5    7 am
    13    7    8 2
    14    7    9 1
    15    9   10 2
    16    9   28 1
    17   10   11 1
    18   10   29 1
    19   11   16 ar
    20   11   12 ar
    21   12   13 ar
    22   12   30 1
    23   13   14 ar
    24   13   31 1
    25   14   15 ar
    26   14   32 1
    27   15   16 ar
    28   15   33 1
    29   16   34 1
    30   17   18 1
    31   17   35 1
    32   17   36 1
    33   18   19 1
    34   18   22 1
    35   18   20 1
    36   20   21 1
    37   20   22 1
    38   22   23 1
    39   22   24 1
    40   23   37 1
    41   23   38 1
    42   23   39 1
    43   24   40 1
    44   24   41 1
    45   24   42 1
