@<TRIPOS>MOLECULE
ZINC03798537
   68    70     0     0     0
SMALL
USER_CHARGES

@<TRIPOS>ATOM
      1 C1         -6.5886   -3.5092   -5.6025 C.3       1 <0>        -0.1463
      2 C2         -5.4280   -3.8335   -4.6598 C.3       1 <0>         0.0479
      3 O1         -5.0346   -2.6492   -3.9636 O.3       1 <0>        -0.2654
      4 C3         -4.0106   -2.7646   -3.0822 C.ar      1 <0>         0.1595
      5 C4         -3.3896   -3.9904   -2.8919 C.ar      1 <0>        -0.2140
      6 C5         -2.3470   -4.1062   -1.9947 C.ar      1 <0>        -0.0432
      7 C6         -1.9124   -3.0029   -1.2773 C.ar      1 <0>        -0.1619
      8 C7         -2.5163   -1.7777   -1.4524 C.ar      1 <0>        -0.0488
      9 C8         -3.5702   -1.6436   -2.3624 C.ar      1 <0>        -0.1640
     10 C9         -4.2169   -0.3364   -2.5592 C.2       1 <0>         0.5220
     11 O2         -3.8298    0.6385   -1.9296 O.co2     1 <0>        -0.6975
     12 O3         -5.1415   -0.2246   -3.3524 O.co2     1 <0>        -0.6694
     13 C10        -1.6774   -5.4412   -1.7935 C.3       1 <0>        -0.0955
     14 C11        -0.5298   -5.5784   -2.7607 C.2       1 <0>         0.5124
     15 O4         -0.2804   -4.6806   -3.5369 O.2       1 <0>        -0.5103
     16 N1          0.2192   -6.6989   -2.7631 N.am      1 <0>        -0.7319
     17 C12         1.2625   -6.8804   -3.7754 C.3       1 <0>         0.1944
     18 H1          1.7360   -5.9213   -3.9852 H         1 <0>         0.1018
     19 C13         2.3121   -7.8645   -3.2552 C.3       1 <0>        -0.1143
     20 C14         3.0230   -7.2586   -2.0434 C.3       1 <0>        -0.0935
     21 C15         2.0338   -7.1304   -0.8833 C.3       1 <0>        -0.1652
     22 C16         4.1830   -8.1651   -1.6267 C.3       1 <0>        -0.1460
     23 C17         0.6470   -7.4239   -5.0391 C.ar      1 <0>        -0.0983
     24 C18        -0.5117   -8.1731   -4.9772 C.ar      1 <0>        -0.1027
     25 C19        -1.0767   -8.6725   -6.1361 C.ar      1 <0>        -0.1251
     26 C20        -0.4845   -8.4235   -7.3609 C.ar      1 <0>        -0.1169
     27 C21         0.6738   -7.6750   -7.4300 C.ar      1 <0>        -0.1261
     28 C22         1.2413   -7.1672   -6.2680 C.ar      1 <0>         0.1845
     29 N2          2.4099   -6.4052   -6.3348 N.pl3     1 <0>        -0.6747
     30 C23         3.7286   -7.0490   -6.2616 C.3       1 <0>         0.1464
     31 C24         4.5590   -6.6109   -7.4721 C.3       1 <0>        -0.1358
     32 C25         4.6080   -5.0823   -7.5259 C.3       1 <0>        -0.1145
     33 C26         3.1899   -4.5301   -7.6876 C.3       1 <0>        -0.1363
     34 C27         2.3440   -4.9452   -6.4857 C.3       1 <0>         0.1471
     35 H2         -6.2724   -2.7532   -6.3213 H         1 <0>         0.0660
     36 H3         -6.8886   -4.4126   -6.1336 H         1 <0>         0.0670
     37 H4         -7.4315   -3.1307   -5.0243 H         1 <0>         0.0661
     38 H5         -5.7441   -4.5894   -3.9410 H         1 <0>         0.0500
     39 H6         -4.5850   -4.2119   -5.2380 H         1 <0>         0.0506
     40 H7         -3.7225   -4.8553   -3.4464 H         1 <0>         0.1144
     41 H8         -1.0963   -3.1045   -0.5772 H         1 <0>         0.1107
     42 H9         -2.1743   -0.9209   -0.8909 H         1 <0>         0.1308
     43 H10        -1.3020   -5.5092   -0.7724 H         1 <0>         0.0983
     44 H11        -2.3983   -6.2395   -1.9695 H         1 <0>         0.0957
     45 H12         0.0675   -7.3851   -2.0945 H         1 <0>         0.3988
     46 H13         1.8248   -8.7947   -2.9630 H         1 <0>         0.0659
     47 H14         3.0408   -8.0671   -4.0401 H         1 <0>         0.0785
     48 H15         3.4079   -6.2725   -2.3035 H         1 <0>         0.0702
     49 H16         1.5511   -8.0920   -0.7094 H         1 <0>         0.0518
     50 H17         2.5669   -6.8234    0.0165 H         1 <0>         0.0519
     51 H18         1.2786   -6.3842   -1.1306 H         1 <0>         0.0739
     52 H19         4.8877   -8.2565   -2.4532 H         1 <0>         0.0525
     53 H20         4.6894   -7.7335   -0.7634 H         1 <0>         0.0540
     54 H21         3.7981   -9.1512   -1.3666 H         1 <0>         0.0529
     55 H22        -0.9767   -8.3693   -4.0223 H         1 <0>         0.1177
     56 H23        -1.9824   -9.2586   -6.0847 H         1 <0>         0.1188
     57 H24        -0.9282   -8.8154   -8.2642 H         1 <0>         0.1187
     58 H25         1.1359   -7.4812   -8.3867 H         1 <0>         0.1185
     59 H26         4.2326   -6.7461   -5.3438 H         1 <0>         0.0492
     60 H27         3.6076   -8.1322   -6.2742 H         1 <0>         0.0648
     61 H28         5.5714   -7.0044   -7.3804 H         1 <0>         0.0641
     62 H29         4.1011   -6.9926   -8.3847 H         1 <0>         0.0617
     63 H30         5.0433   -4.7002   -6.6025 H         1 <0>         0.0606
     64 H31         5.2188   -4.7681   -8.3722 H         1 <0>         0.0574
     65 H32         3.2277   -3.4425   -7.7493 H         1 <0>         0.0677
     66 H33         2.7449   -4.9313   -8.5982 H         1 <0>         0.0610
     67 H34         1.3097   -4.6407   -6.6461 H         1 <0>         0.0709
     68 H35         2.7326   -4.4670   -5.5866 H         1 <0>         0.0504
@<TRIPOS>BOND
     1    1    2 1
     2    1   35 1
     3    1   36 1
     4    1   37 1
     5    2    3 1
     6    2   38 1
     7    2   39 1
     8    3    4 1
     9    4    9 ar
    10    4    5 ar
    11    5    6 ar
    12    5   40 1
    13    6    7 ar
    14    6   13 1
    15    7    8 ar
    16    7   41 1
    17    8    9 ar
    18    8   42 1
    19    9   10 1
    20   10   11 2
    21   10   12 1
    22   13   14 1
    23   13   43 1
    24   13   44 1
    25   14   15 2
    26   14   16 am
    27   16   17 1
    28   16   45 1
    29   17   18 1
    30   17   19 1
    31   17   23 1
    32   19   20 1
    33   19   46 1
    34   19   47 1
    35   20   21 1
    36   20   22 1
    37   20   48 1
    38   21   49 1
    39   21   50 1
    40   21   51 1
    41   22   52 1
    42   22   53 1
    43   22   54 1
    44   23   28 ar
    45   23   24 ar
    46   24   25 ar
    47   24   55 1
    48   25   26 ar
    49   25   56 1
    50   26   27 ar
    51   26   57 1
    52   27   28 ar
    53   27   58 1
    54   28   29 1
    55   29   34 1
    56   29   30 1
    57   30   31 1
    58   30   59 1
    59   30   60 1
    60   31   32 1
    61   31   61 1
    62   31   62 1
    63   32   33 1
    64   32   63 1
    65   32   64 1
    66   33   34 1
    67   33   65 1
    68   33   66 1
    69   34   67 1
    70   34   68 1
@<TRIPOS>MOLECULE
ZINC00402830
   51    53     0     0     0
SMALL
USER_CHARGES

@<TRIPOS>ATOM
      1 C1          0.6413    1.2433    0.6138 C.3       1 <0>        -0.1774
      2 C2          0.0098   -0.0075   -0.0006 C.3       1 <0>         0.2107
      3 C3          0.4805   -1.2275    0.7484 C.ar      1 <0>        -0.1175
      4 C4          0.6314   -1.1799    2.1216 C.ar      1 <0>        -0.1091
      5 C5          1.0632   -2.2990    2.8087 C.ar      1 <0>        -0.1140
      6 C6          1.3437   -3.4658    2.1225 C.ar      1 <0>        -0.1106
      7 C7          1.1919   -3.5137    0.7494 C.ar      1 <0>        -0.1185
      8 C8          0.7560   -2.3959    0.0628 C.ar      1 <0>        -0.1070
      9 C9         -1.4912    0.0905    0.0917 C.ar      1 <0>        -0.0775
     10 C10        -2.0961    0.2953    1.3177 C.ar      1 <0>        -0.0944
     11 C11        -3.4727    0.3853    1.4030 C.ar      1 <0>        -0.1070
     12 C12        -4.2453    0.2704    0.2611 C.ar      1 <0>        -0.0284
     13 C13        -3.6393    0.0654   -0.9657 C.ar      1 <0>        -0.1106
     14 C14        -2.2623   -0.0188   -1.0505 C.ar      1 <0>        -0.0825
     15 Cl1        -5.9743    0.3827    0.3675 Cl        1 <0>        -0.0593
     16 O1          0.3968   -0.1118   -1.3722 O.3       1 <0>        -0.3574
     17 C15         1.8104   -0.0885   -1.5807 C.3       1 <0>         0.0380
     18 C16         2.1117   -0.3310   -3.0610 C.3       1 <0>        -0.1408
     19 C17         3.6251   -0.3061   -3.2841 C.3       1 <0>         0.0285
     20 H1          4.1157   -1.0311   -2.6347 H         1 <0>         0.1435
     21 C18         3.9563   -0.6007   -4.7684 C.3       1 <0>        -0.1365
     22 C19         5.3480    0.0685   -4.9177 C.3       1 <0>        -0.1417
     23 C20         5.2330    1.3151   -4.0153 C.3       1 <0>        -0.0125
     24 N1          4.1595    1.0502   -3.0375 N.4       1 <0>        -0.3928
     25 C21         4.6992    1.1285   -1.6735 C.3       1 <0>        -0.0546
     26 H2          1.7269    1.1725    0.5470 H         1 <0>         0.0614
     27 H3          0.3008    2.1258    0.0720 H         1 <0>         0.0745
     28 H4          0.3460    1.3229    1.6600 H         1 <0>         0.0812
     29 H5          0.4123   -0.2683    2.6577 H         1 <0>         0.1244
     30 H6          1.1818   -2.2617    3.8815 H         1 <0>         0.1277
     31 H7          1.6817   -4.3400    2.6593 H         1 <0>         0.1264
     32 H8          1.4113   -4.4252    0.2133 H         1 <0>         0.1251
     33 H9          0.6338   -2.4343   -1.0095 H         1 <0>         0.1250
     34 H10        -1.4930    0.3847    2.2091 H         1 <0>         0.1310
     35 H11        -3.9452    0.5450    2.3610 H         1 <0>         0.1386
     36 H12        -4.2418   -0.0247   -1.8574 H         1 <0>         0.1369
     37 H13        -1.7889   -0.1740   -2.0087 H         1 <0>         0.1388
     38 H14         2.2054    0.8831   -1.2839 H         1 <0>         0.0488
     39 H15         2.2789   -0.8695   -0.9818 H         1 <0>         0.0712
     40 H16         1.7167   -1.3026   -3.3577 H         1 <0>         0.1220
     41 H17         1.6432    0.4500   -3.6598 H         1 <0>         0.0985
     42 H18         4.0177   -1.6738   -4.9492 H         1 <0>         0.1189
     43 H19         3.2264   -0.1357   -5.4310 H         1 <0>         0.1020
     44 H20         6.1351   -0.5951   -4.5597 H         1 <0>         0.0995
     45 H21         5.5275    0.3575   -5.9532 H         1 <0>         0.1145
     46 H22         6.1749    1.4830   -3.4932 H         1 <0>         0.1327
     47 H23         4.9801    2.1872   -4.6183 H         1 <0>         0.1325
     48 H24         5.4996    0.3978   -1.5570 H         1 <0>         0.1249
     49 H25         5.0921    2.1294   -1.4951 H         1 <0>         0.1263
     50 H26         3.9063    0.9163   -0.9563 H         1 <0>         0.1210
     51 H27         3.4231    1.7308   -3.1496 H         1 <0>         0.4251
@<TRIPOS>BOND
     1    1    2 1
     2    1   26 1
     3    1   27 1
     4    1   28 1
     5    2    3 1
     6    2    9 1
     7    2   16 1
     8    3    8 ar
     9    3    4 ar
    10    4    5 ar
    11    4   29 1
    12    5    6 ar
    13    5   30 1
    14    6    7 ar
    15    6   31 1
    16    7    8 ar
    17    7   32 1
    18    8   33 1
    19    9   14 ar
    20    9   10 ar
    21   10   11 ar
    22   10   34 1
    23   11   12 ar
    24   11   35 1
    25   12   13 ar
    26   12   15 1
    27   13   14 ar
    28   13   36 1
    29   14   37 1
    30   16   17 1
    31   17   18 1
    32   17   38 1
    33   17   39 1
    34   18   19 1
    35   18   40 1
    36   18   41 1
    37   19   20 1
    38   19   24 1
    39   19   21 1
    40   21   22 1
    41   21   42 1
    42   21   43 1
    43   22   23 1
    44   22   44 1
    45   22   45 1
    46   23   24 1
    47   23   46 1
    48   23   47 1
    49   24   25 1
    50   24   51 1
    51   25   48 1
    52   25   49 1
    53   25   50 1
@<TRIPOS>MOLECULE
ZINC03812888
   72    73     0     0     0
SMALL
USER_CHARGES

@<TRIPOS>ATOM
      1 C1          0.4643    1.3329   -0.2411 C.3       1 <0>        -0.1747
      2 C2          0.0733   -0.1223    0.0241 C.3       1 <0>        -0.0830
      3 C3          0.8761   -0.6579    1.2114 C.3       1 <0>        -0.1834
      4 C4         -1.4212   -0.1988    0.3430 C.3       1 <0>         0.1004
      5 C5         -2.2237    0.3455   -0.8405 C.3       1 <0>        -0.1048
      6 C6         -1.9247   -0.4899   -2.0868 C.3       1 <0>        -0.1606
      7 C7         -2.7272    0.0544   -3.2703 C.3       1 <0>        -0.0091
      8 N1         -2.4402   -0.7477   -4.4670 N.4       1 <0>        -0.3873
      9 C8         -1.0302   -0.5789   -4.8430 C.3       1 <0>        -0.0587
     10 C9         -3.2986   -0.3021   -5.5727 C.3       1 <0>        -0.0075
     11 C10        -3.0896   -1.2169   -6.7811 C.3       1 <0>        -0.0949
     12 C11        -3.9702   -0.7598   -7.9154 C.ar      1 <0>        -0.1088
     13 C12        -5.2517   -1.2635   -8.0399 C.ar      1 <0>        -0.1027
     14 C13        -6.0634   -0.8473   -9.0787 C.ar      1 <0>        -0.1717
     15 C14        -5.5933    0.0770   -9.9977 C.ar      1 <0>         0.1180
     16 C15        -4.3036    0.5843   -9.8722 C.ar      1 <0>         0.1059
     17 C16        -3.4969    0.1666   -8.8259 C.ar      1 <0>        -0.1655
     18 O1         -3.8377    1.4917  -10.7717 O.3       1 <0>        -0.3008
     19 C17        -2.5044    1.9690  -10.5804 C.3       1 <0>         0.0253
     20 O2         -6.3903    0.4871  -11.0204 O.3       1 <0>        -0.3014
     21 C18        -7.7019   -0.0764  -11.0869 C.3       1 <0>         0.0227
     22 C19        -1.7993   -1.6000    0.5892 C.1       1 <0>         0.2041
     23 N2         -2.0910   -2.6813    0.7792 N.1       1 <0>        -0.4101
     24 C20        -1.7157    0.6241    1.5707 C.ar      1 <0>        -0.0960
     25 C21        -0.6924    1.2978    2.2112 C.ar      1 <0>        -0.1135
     26 C22        -0.9573    2.0540    3.3377 C.ar      1 <0>        -0.1756
     27 C23        -2.2510    2.1383    3.8270 C.ar      1 <0>         0.1175
     28 C24        -3.2811    1.4605    3.1820 C.ar      1 <0>         0.1030
     29 C25        -3.0094    0.7082    2.0505 C.ar      1 <0>        -0.1606
     30 O3         -4.5524    1.5402    3.6584 O.3       1 <0>        -0.3010
     31 C26        -5.5587    0.8184    2.9454 C.3       1 <0>         0.0257
     32 O4         -2.5133    2.8814    4.9353 O.3       1 <0>        -0.3026
     33 C27        -1.4070    3.5493    5.5454 C.3       1 <0>         0.0232
     34 H1          1.5417    1.4471   -0.1220 H         1 <0>         0.0714
     35 H2          0.1801    1.6060   -1.2573 H         1 <0>         0.0573
     36 H3         -0.0504    1.9823    0.4671 H         1 <0>         0.0866
     37 H4          0.2874   -0.7230   -0.8599 H         1 <0>         0.0818
     38 H5          1.8959   -0.2762    1.1621 H         1 <0>         0.0724
     39 H6          0.4106   -0.3318    2.1415 H         1 <0>         0.0837
     40 H7          0.8938   -1.7472    1.1763 H         1 <0>         0.0565
     41 H8         -3.2884    0.2910   -0.6133 H         1 <0>         0.0854
     42 H9         -1.9437    1.3831   -1.0228 H         1 <0>         0.1040
     43 H10        -0.8600   -0.4354   -2.3140 H         1 <0>         0.0984
     44 H11        -2.2047   -1.5275   -1.9045 H         1 <0>         0.0867
     45 H12        -3.7919   -0.0001   -3.0431 H         1 <0>         0.1322
     46 H13        -2.4473    1.0920   -3.4526 H         1 <0>         0.1347
     47 H14        -0.8339    0.4722   -5.0545 H         1 <0>         0.1249
     48 H15        -0.3932   -0.9095   -4.0226 H         1 <0>         0.1255
     49 H16        -0.8172   -1.1741   -5.7310 H         1 <0>         0.1260
     50 H17        -4.3424   -0.3437   -5.2617 H         1 <0>         0.1327
     51 H18        -3.0405    0.7218   -5.8431 H         1 <0>         0.1319
     52 H19        -2.0457   -1.1754   -7.0921 H         1 <0>         0.0944
     53 H20        -3.3477   -2.2408   -6.5107 H         1 <0>         0.0957
     54 H21        -5.6193   -1.9840   -7.3242 H         1 <0>         0.1290
     55 H22        -7.0638   -1.2429   -9.1741 H         1 <0>         0.1420
     56 H23        -2.4969    0.5616   -8.7240 H         1 <0>         0.1364
     57 H24        -2.2588    2.6850  -11.3647 H         1 <0>         0.1070
     58 H25        -2.4286    2.4553   -9.6078 H         1 <0>         0.0539
     59 H26        -1.8088    1.1309  -10.6227 H         1 <0>         0.0563
     60 H27        -7.6275   -1.1590  -11.1896 H         1 <0>         0.0592
     61 H28        -8.2478    0.1654  -10.1750 H         1 <0>         0.0584
     62 H29        -8.2308    0.3347  -11.9468 H         1 <0>         0.1080
     63 H30         0.3164    1.2329    1.8308 H         1 <0>         0.1604
     64 H31        -0.1560    2.5788    3.8366 H         1 <0>         0.1426
     65 H32        -3.8077    0.1843    1.5459 H         1 <0>         0.1325
     66 H33        -6.5240    0.9669    3.4294 H         1 <0>         0.1055
     67 H34        -5.6074    1.1811    1.9187 H         1 <0>         0.0536
     68 H35        -5.3123   -0.2434    2.9444 H         1 <0>         0.0538
     69 H36        -0.6644    2.8139    5.8548 H         1 <0>         0.0583
     70 H37        -0.9593    4.2388    4.8297 H         1 <0>         0.0585
     71 H38        -1.7536    4.1046    6.4169 H         1 <0>         0.1058
     72 H39        -2.6218   -1.7207   -4.2712 H         1 <0>         0.4250
@<TRIPOS>BOND
     1    1    2 1
     2    1   34 1
     3    1   35 1
     4    1   36 1
     5    2    3 1
     6    2    4 1
     7    2   37 1
     8    3   38 1
     9    3   39 1
    10    3   40 1
    11    4    5 1
    12    4   22 1
    13    4   24 1
    14    5    6 1
    15    5   41 1
    16    5   42 1
    17    6    7 1
    18    6   43 1
    19    6   44 1
    20    7    8 1
    21    7   45 1
    22    7   46 1
    23    8    9 1
    24    8   10 1
    25    8   72 1
    26    9   47 1
    27    9   48 1
    28    9   49 1
    29   10   11 1
    30   10   50 1
    31   10   51 1
    32   11   12 1
    33   11   52 1
    34   11   53 1
    35   12   17 ar
    36   12   13 ar
    37   13   14 ar
    38   13   54 1
    39   14   15 ar
    40   14   55 1
    41   15   16 ar
    42   15   20 1
    43   16   17 ar
    44   16   18 1
    45   17   56 1
    46   18   19 1
    47   19   57 1
    48   19   58 1
    49   19   59 1
    50   20   21 1
    51   21   60 1
    52   21   61 1
    53   21   62 1
    54   22   23 3
    55   24   29 ar
    56   24   25 ar
    57   25   26 ar
    58   25   63 1
    59   26   27 ar
    60   26   64 1
    61   27   28 ar
    62   27   32 1
    63   28   29 ar
    64   28   30 1
    65   29   65 1
    66   30   31 1
    67   31   66 1
    68   31   67 1
    69   31   68 1
    70   32   33 1
    71   33   69 1
    72   33   70 1
    73   33   71 1
@<TRIPOS>MOLECULE
ZINC00601304
   50    53     0     0     0
SMALL
USER_CHARGES

@<TRIPOS>ATOM
      1 C1         -0.0848    1.4532   -0.3643 C.3       1 <0>         0.0157
      2 O1         -0.0673    0.0248   -0.4029 O.3       1 <0>        -0.2899
      3 C2         -1.2697   -0.6091   -0.3507 C.ar      1 <0>         0.1141
      4 C3         -2.4181    0.1263   -0.2712 C.ar      1 <0>        -0.1159
      5 C4         -3.6565   -0.5247   -0.2178 C.ar      1 <0>        -0.1900
      6 C5         -3.7118   -1.9398   -0.2465 C.ar      1 <0>         0.2208
      7 C6         -2.5225   -2.6738   -0.3282 C.ar      1 <0>        -0.2298
      8 C7         -1.3169   -2.0092   -0.3848 C.ar      1 <0>         0.2171
      9 O2         -0.1616   -2.7187   -0.4697 O.3       1 <0>        -0.2781
     10 C8         -0.2756   -4.1428   -0.5007 C.3       1 <0>         0.0126
     11 N1         -4.9113   -2.5410   -0.1946 N.ar      1 <0>        -0.5852
     12 C9         -6.0151   -1.8231   -0.1184 C.ar      1 <0>         0.6808
     13 N2         -6.0075   -0.4933   -0.0894 N.ar      1 <0>        -0.5933
     14 C10        -4.8747    0.1928   -0.1354 C.ar      1 <0>         0.5614
     15 N3         -4.8820    1.5717   -0.1036 N.pl3     1 <0>        -0.7723
     16 N4         -7.2317   -2.4807   -0.0668 N.pl3     1 <0>        -0.5638
     17 C11        -7.2984   -3.9422   -0.2055 C.3       1 <0>         0.0875
     18 C12        -8.0309   -4.5172    1.0132 C.3       1 <0>         0.0811
     19 N5         -9.2792   -3.7665    1.2081 N.am      1 <0>        -0.6161
     20 C13        -9.2125   -2.3049    1.3468 C.3       1 <0>         0.0965
     21 C14        -8.4794   -1.7305    0.1337 C.3       1 <0>         0.1036
     22 C15       -10.4640   -4.4068    1.2583 C.2       1 <0>         0.6126
     23 O3        -11.4993   -3.7686    1.3005 O.2       1 <0>        -0.5007
     24 C16       -10.5057   -5.8728    1.2622 C.2       1 <0>        -0.0999
     25 C17       -11.6286   -6.6439    1.1675 C.2       1 <0>        -0.0980
     26 C18       -11.2046   -7.9813    1.2107 C.2       1 <0>        -0.2186
     27 C19        -9.8585   -7.9681    1.3284 C.2       1 <0>        -0.0023
     28 O4         -9.4406   -6.6959    1.3540 O.3       1 <0>        -0.1695
     29 H1          0.9367    1.8304   -0.4129 H         1 <0>         0.1175
     30 H2         -0.6531    1.8327   -1.2135 H         1 <0>         0.0636
     31 H3         -0.5513    1.7859    0.5629 H         1 <0>         0.0637
     32 H4         -2.3709    1.2050   -0.2492 H         1 <0>         0.1589
     33 H5         -2.5500   -3.7532   -0.3508 H         1 <0>         0.1674
     34 H6         -0.7651   -4.4880    0.4100 H         1 <0>         0.0684
     35 H7         -0.8669   -4.4412   -1.3664 H         1 <0>         0.0684
     36 H8          0.7180   -4.5855   -0.5693 H         1 <0>         0.1203
     37 H9         -4.0457    2.0621   -0.1379 H         1 <0>         0.4288
     38 H10        -5.7233    2.0512   -0.0471 H         1 <0>         0.4313
     39 H11        -7.8428   -4.1990   -1.1142 H         1 <0>         0.1106
     40 H12        -6.2893   -4.3517   -0.2526 H         1 <0>         0.0927
     41 H13        -8.2596   -5.5687    0.8400 H         1 <0>         0.1354
     42 H14        -7.4023   -4.4179    1.8982 H         1 <0>         0.0848
     43 H15       -10.2215   -1.8954    1.3938 H         1 <0>         0.1238
     44 H16        -8.6680   -2.0481    2.2555 H         1 <0>         0.0830
     45 H17        -8.2501   -0.6797    0.3105 H         1 <0>         0.1273
     46 H18        -9.1099   -1.8262   -0.7503 H         1 <0>         0.0981
     47 H19       -12.6459   -6.2927    1.0769 H         1 <0>         0.1643
     48 H20       -11.8356   -8.8563    1.1598 H         1 <0>         0.1626
     49 H21        -9.2239   -8.8399    1.3885 H         1 <0>         0.2151
     50 H22        -4.9664   -3.5093   -0.2136 H         1 <0>         0.4337
@<TRIPOS>BOND
     1    1    2 1
     2    1   29 1
     3    1   30 1
     4    1   31 1
     5    2    3 1
     6    3    8 ar
     7    3    4 ar
     8    4    5 ar
     9    4   32 1
    10    5   14 ar
    11    5    6 ar
    12    6    7 ar
    13    6   11 ar
    14    7    8 ar
    15    7   33 1
    16    8    9 1
    17    9   10 1
    18   10   34 1
    19   10   35 1
    20   10   36 1
    21   11   12 ar
    22   11   50 1
    23   12   13 ar
    24   12   16 1
    25   13   14 ar
    26   14   15 1
    27   15   37 1
    28   15   38 1
    29   16   21 1
    30   16   17 1
    31   17   18 1
    32   17   39 1
    33   17   40 1
    34   18   19 1
    35   18   41 1
    36   18   42 1
    37   19   20 1
    38   19   22 am
    39   20   21 1
    40   20   43 1
    41   20   44 1
    42   21   45 1
    43   21   46 1
    44   22   23 2
    45   22   24 1
    46   24   28 1
    47   24   25 2
    48   25   26 1
    49   25   47 1
    50   26   27 2
    51   26   48 1
    52   27   28 1
    53   27   49 1
@<TRIPOS>MOLECULE
ZINC03812923
   47    50     0     0     0
SMALL
USER_CHARGES

@<TRIPOS>ATOM
      1 C1          0.3807    1.4007   -0.0396 C.3       1 <0>         0.0335
      2 O1          0.2444   -0.0216   -0.0638 O.3       1 <0>        -0.3321
      3 C2         -0.3722   -0.6008    1.0007 C.ar      1 <0>         0.1403
      4 C3         -0.8403    0.1832    2.0417 C.ar      1 <0>        -0.2385
      5 C4         -1.4696   -0.4104    3.1278 C.ar      1 <0>         0.3077
      6 C5         -1.6293   -1.7896    3.1706 C.ar      1 <0>        -0.2469
      7 C6         -1.1630   -2.5733    2.1329 C.ar      1 <0>        -0.0789
      8 C7         -0.5391   -1.9836    1.0428 C.ar      1 <0>         0.0206
      9 N1         -0.0714   -2.7787   -0.0122 N.pl3     1 <0>        -0.7076
     10 C8         -0.1230   -4.1518    0.0849 C.ar      1 <0>         0.4223
     11 C9         -1.3030   -4.8599   -0.2199 C.ar      1 <0>        -0.1480
     12 C10        -2.4636   -4.1844   -0.6332 C.ar      1 <0>        -0.0187
     13 C11        -3.5891   -4.8929   -0.9216 C.ar      1 <0>        -0.1365
     14 C12        -3.6066   -6.2832   -0.8120 C.ar      1 <0>        -0.0034
     15 C13        -2.5031   -6.9707   -0.4154 C.ar      1 <0>        -0.1822
     16 C14        -1.3161   -6.2750   -0.1075 C.ar      1 <0>         0.2199
     17 N2         -0.2278   -6.9373    0.2819 N.ar      1 <0>        -0.5116
     18 C15         0.9091   -6.3101    0.5801 C.ar      1 <0>         0.2211
     19 C16         1.0041   -4.8967    0.4868 C.ar      1 <0>        -0.1461
     20 C17         2.2160   -4.2589    0.8013 C.ar      1 <0>        -0.0195
     21 C18         3.2885   -5.0024    1.1870 C.ar      1 <0>        -0.1381
     22 C19         3.2014   -6.3917    1.2742 C.ar      1 <0>        -0.0046
     23 C20         2.0423   -7.0424    0.9890 C.ar      1 <0>        -0.1816
     24 N3         -1.9427    0.3810    4.1799 N.2       1 <0>        -1.0898
     25 S1         -2.6934   -0.3264    5.4755 S.o2      1 <0>         2.5299
     26 O2         -3.8690   -0.9150    4.9364 O.2       1 <0>        -1.0277
     27 O3         -1.6911   -1.1326    6.0794 O.2       1 <0>        -1.0278
     28 C21        -3.1305    1.0520    6.5707 C.3       1 <0>        -0.6362
     29 H1          0.8884    1.7325   -0.9453 H         1 <0>         0.0922
     30 H2         -0.6067    1.8595    0.0122 H         1 <0>         0.0568
     31 H3          0.9643    1.6950    0.8326 H         1 <0>         0.0567
     32 H4         -0.7157    1.2555    2.0091 H         1 <0>         0.1295
     33 H5         -2.1184   -2.2498    4.0163 H         1 <0>         0.1102
     34 H6         -1.2881   -3.6454    2.1681 H         1 <0>         0.0986
     35 H7          0.2887   -2.3622   -0.8108 H         1 <0>         0.4288
     36 H8         -2.4627   -3.1080   -0.7212 H         1 <0>         0.1597
     37 H9         -4.4803   -4.3719   -1.2391 H         1 <0>         0.1505
     38 H10        -4.5125   -6.8227   -1.0459 H         1 <0>         0.1520
     39 H11        -2.5357   -8.0473   -0.3360 H         1 <0>         0.1531
     40 H12         2.2960   -3.1838    0.7369 H         1 <0>         0.1590
     41 H13         4.2192   -4.5105    1.4284 H         1 <0>         0.1499
     42 H14         4.0669   -6.9595    1.5821 H         1 <0>         0.1517
     43 H15         1.9934   -8.1187    1.0633 H         1 <0>         0.1531
     44 H16        -3.7949    1.7374    6.0446 H         1 <0>         0.1178
     45 H17        -3.6342    0.6662    7.4570 H         1 <0>         0.1055
     46 H18        -2.2250    1.5806    6.8686 H         1 <0>         0.1177
     47 H19        -0.2642   -7.9042    0.3506 H         1 <0>         0.4379
@<TRIPOS>BOND
     1    1    2 1
     2    1   29 1
     3    1   30 1
     4    1   31 1
     5    2    3 1
     6    3    8 ar
     7    3    4 ar
     8    4    5 ar
     9    4   32 1
    10    5    6 ar
    11    5   24 1
    12    6    7 ar
    13    6   33 1
    14    7    8 ar
    15    7   34 1
    16    8    9 1
    17    9   10 1
    18    9   35 1
    19   10   19 ar
    20   10   11 ar
    21   11   16 ar
    22   11   12 ar
    23   12   13 ar
    24   12   36 1
    25   13   14 ar
    26   13   37 1
    27   14   15 ar
    28   14   38 1
    29   15   16 ar
    30   15   39 1
    31   16   17 ar
    32   17   18 ar
    33   17   47 1
    34   18   23 ar
    35   18   19 ar
    36   19   20 ar
    37   20   21 ar
    38   20   40 1
    39   21   22 ar
    40   21   41 1
    41   22   23 ar
    42   22   42 1
    43   23   43 1
    44   24   25 1
    45   25   26 2
    46   25   27 2
    47   25   28 1
    48   28   44 1
    49   28   45 1
    50   28   46 1
