@<TRIPOS>MOLECULE
ZINC13523229
   41    43     0     0     0
SMALL
USER_CHARGES
methyl (1S,3S,4S,5R)-3-(3,4-dichlorophenyl)-8-methyl-8-azabicyclo[3.2.1]octane-4-carboxylate
@<TRIPOS>ATOM
      1 C1          1.8712   -2.2682   -2.0871 C.3       1 <0>        -0.0360
      2 C2          1.0761   -0.0584   -1.4392 C.3       1 <0>         0.0344
      3 H1          0.9276    0.1383   -2.5010 H         1 <0>         0.1588
      4 C3         -0.2100   -0.5766   -0.7552 C.3       1 <0>        -0.1465
      5 C4          0.2873   -1.5358    0.3463 C.3       1 <0>        -0.1413
      6 C5          1.8286   -1.5099    0.2277 C.3       1 <0>         0.0451
      7 H2          2.2784   -2.4673    0.4910 H         1 <0>         0.1626
      8 C6          2.3489   -0.3637    1.1099 C.3       1 <0>        -0.1064
      9 H3          2.2485   -0.6370    2.1603 H         1 <0>         0.1532
     10 C7          1.5252    0.8951    0.8238 C.3       1 <0>        -0.0409
     11 H4          0.4974    0.7380    1.1510 H         1 <0>         0.1274
     12 C8          1.5416    1.1934   -0.6781 C.3       1 <0>        -0.1494
     13 C9          2.1158    2.0617    1.5730 C.ar      1 <0>        -0.0925
     14 C10         3.2832    2.6513    1.1244 C.ar      1 <0>        -0.1123
     15 C11         3.8259    3.7212    1.8105 C.ar      1 <0>        -0.0881
     16 C12         3.2011    4.2028    2.9470 C.ar      1 <0>        -0.0217
     17 C13         2.0322    3.6124    3.3962 C.ar      1 <0>        -0.0263
     18 C14         1.4873    2.5451    2.7049 C.ar      1 <0>        -0.0811
     19 Cl1         1.2469    4.2156    4.8221 Cl        1 <0>        -0.0278
     20 Cl2         3.8827    5.5463    3.8096 Cl        1 <0>        -0.0278
     21 C15         3.7987   -0.1011    0.7931 C.2       1 <0>         0.4803
     22 O1          4.1460    0.0670   -0.3519 O.2       1 <0>        -0.5185
     23 O2          4.7041   -0.0539    1.7829 O.3       1 <0>        -0.3244
     24 C16         6.0820    0.2034    1.4042 C.3       1 <0>         0.0267
     25 H5          0.8429   -2.6184   -1.9974 H         1 <0>         0.1169
     26 H6          2.0616   -1.9600   -3.1152 H         1 <0>         0.1237
     27 H7          2.5542   -3.0735   -1.8169 H         1 <0>         0.1206
     28 H8         -0.8315   -1.1125   -1.4725 H         1 <0>         0.1029
     29 H9         -0.7654    0.2514   -0.3147 H         1 <0>         0.1135
     30 H10        -0.0235   -1.1793    1.3284 H         1 <0>         0.1153
     31 H11        -0.0914   -2.5428    0.1717 H         1 <0>         0.1083
     32 H12         0.8679    2.0228   -0.8930 H         1 <0>         0.1213
     33 H13         2.5535    1.4554   -0.9872 H         1 <0>         0.1022
     34 H14         3.7710    2.2758    0.2370 H         1 <0>         0.1358
     35 H15         4.7380    4.1810    1.4598 H         1 <0>         0.1480
     36 H16         0.5730    2.0869    3.0523 H         1 <0>         0.1486
     37 H17         6.1466    1.1686    0.9019 H         1 <0>         0.0749
     38 H18         6.7079    0.2155    2.2965 H         1 <0>         0.1177
     39 H19         6.4259   -0.5809    0.7298 H         1 <0>         0.0750
     40 N1          2.0554   -1.1033   -1.1620 N.4       1 <0>        -0.4017
     41 H20         3.0067   -0.7328   -1.2713 H         1 <0>         0.4294
@<TRIPOS>BOND
     1    1   25 1
     2    1   26 1
     3    1   27 1
     4    1   40 1
     5    2    3 1
     6    2   12 1
     7    2    4 1
     8    2   40 1
     9    4    5 1
    10    4   28 1
    11    4   29 1
    12    5    6 1
    13    5   30 1
    14    5   31 1
    15    6    7 1
    16    6    8 1
    17    6   40 1
    18    8    9 1
    19    8   10 1
    20    8   21 1
    21   10   11 1
    22   10   12 1
    23   10   13 1
    24   12   32 1
    25   12   33 1
    26   13   18 ar
    27   13   14 ar
    28   14   15 ar
    29   14   34 1
    30   15   16 ar
    31   15   35 1
    32   16   17 ar
    33   16   20 1
    34   17   18 ar
    35   17   19 1
    36   18   36 1
    37   21   22 2
    38   21   23 1
    39   23   24 1
    40   24   37 1
    41   24   38 1
    42   24   39 1
    43   40   41 1
@<TRIPOS>MOLECULE
ZINC13517799
   29    30     0     0     0
SMALL
USER_CHARGES
(2S)-2-cyclopentyl-2-(3,4-dichlorophenyl)acetonitrile
@<TRIPOS>ATOM
      1 C1         -2.0415    1.6052    1.4762 C.ar      1 <0>        -0.0888
      2 C2         -2.6883    2.0464    2.6156 C.ar      1 <0>        -0.0935
      3 C3         -2.0195    2.8457    3.5247 C.ar      1 <0>        -0.0270
      4 C4         -0.7003    3.1994    3.2955 C.ar      1 <0>        -0.0292
      5 C5         -0.0532    2.7527    2.1577 C.ar      1 <0>        -0.0852
      6 C6         -0.7233    1.9538    1.2500 C.ar      1 <0>        -0.0682
      7 C7         -0.0179    1.4678    0.0101 C.3       1 <0>         0.0581
      8 H1          1.0047    1.8451    0.0024 H         1 <0>         0.1272
      9 C8          0.0021   -0.0041    0.0020 C.1       1 <0>         0.2062
     10 N1          0.0175   -1.1399   -0.0042 N.1       1 <0>        -0.4150
     11 C9         -0.7579    1.9746   -1.2294 C.3       1 <0>        -0.0814
     12 C10        -0.0067    1.5440   -2.5062 C.3       1 <0>        -0.1252
     13 C11        -0.1685    2.7485   -3.4665 C.3       1 <0>        -0.1248
     14 C12        -0.0516    3.9637   -2.5133 C.3       1 <0>        -0.1262
     15 C13        -0.7864    3.5131   -1.2339 C.3       1 <0>        -0.1187
     16 Cl1         0.1408    4.2022    4.4359 Cl        1 <0>        -0.0410
     17 Cl2        -2.8330    3.4050    4.9527 Cl        1 <0>        -0.0425
     18 H2         -2.5653    0.9844    0.7644 H         1 <0>         0.1389
     19 H3         -3.7171    1.7702    2.7938 H         1 <0>         0.1468
     20 H4          0.9755    3.0284    1.9781 H         1 <0>         0.1485
     21 H5         -1.7747    1.5823   -1.2433 H         1 <0>         0.0852
     22 H6          1.0468    1.3687   -2.2882 H         1 <0>         0.0714
     23 H7         -0.4624    0.6511   -2.9341 H         1 <0>         0.0683
     24 H8         -1.1455    2.7289   -3.9495 H         1 <0>         0.0688
     25 H9          0.6301    2.7611   -4.2082 H         1 <0>         0.0690
     26 H10        -0.5400    4.8366   -2.9464 H         1 <0>         0.0677
     27 H11         0.9947    4.1792   -2.2965 H         1 <0>         0.0680
     28 H12        -1.8171    3.8674   -1.2509 H         1 <0>         0.0710
     29 H13        -0.2738    3.8986   -0.3526 H         1 <0>         0.0716
@<TRIPOS>BOND
     1    1    6 ar
     2    1    2 ar
     3    1   18 1
     4    2    3 ar
     5    2   19 1
     6    3    4 ar
     7    3   17 1
     8    4    5 ar
     9    4   16 1
    10    5    6 ar
    11    5   20 1
    12    6    7 1
    13    7    8 1
    14    7    9 1
    15    7   11 1
    16    9   10 3
    17   11   15 1
    18   11   12 1
    19   11   21 1
    20   12   13 1
    21   12   22 1
    22   12   23 1
    23   13   14 1
    24   13   24 1
    25   13   25 1
    26   14   15 1
    27   14   26 1
    28   14   27 1
    29   15   28 1
    30   15   29 1
@<TRIPOS>MOLECULE
ZINC13517803
   29    30     0     0     0
SMALL
USER_CHARGES
(2R)-2-cyclopentyl-2-(3,4-dichlorophenyl)acetonitrile
@<TRIPOS>ATOM
      1 C1          1.2085   -0.6789   -0.0131 C.ar      1 <0>        -0.0871
      2 C2          0.0021   -0.0041    0.0020 C.ar      1 <0>        -0.0945
      3 C3         -0.0167    1.3788    0.0096 C.ar      1 <0>        -0.0274
      4 C4          1.1736    2.0867    0.0021 C.ar      1 <0>        -0.0286
      5 C5          2.3796    1.4100   -0.0135 C.ar      1 <0>        -0.0862
      6 C6          2.3965    0.0276   -0.0207 C.ar      1 <0>        -0.0688
      7 C7          3.7109   -0.7094   -0.0372 C.3       1 <0>         0.0588
      8 H1          3.5252   -1.7834   -0.0412 H         1 <0>         0.1287
      9 C8          4.4897   -0.3505    1.1593 C.1       1 <0>         0.2045
     10 N1          5.0907   -0.0736    2.0826 N.1       1 <0>        -0.4143
     11 C9          4.4965   -0.3230   -1.2919 C.3       1 <0>        -0.0829
     12 C10         3.7149   -0.7411   -2.5545 C.3       1 <0>        -0.1157
     13 C11         4.8130   -1.2104   -3.5420 C.3       1 <0>        -0.1261
     14 C12         5.8200   -1.9358   -2.6152 C.3       1 <0>        -0.1248
     15 C13         5.8346   -1.0818   -1.3306 C.3       1 <0>        -0.1256
     16 Cl1         1.1518    3.8225    0.0110 Cl        1 <0>        -0.0420
     17 Cl2        -1.5314    2.2268    0.0214 Cl        1 <0>        -0.0426
     18 H2          1.2228   -1.7588   -0.0187 H         1 <0>         0.1455
     19 H3         -0.9258   -0.5567    0.0076 H         1 <0>         0.1480
     20 H4          3.3082    1.9614   -0.0202 H         1 <0>         0.1420
     21 H5          4.6765    0.7520   -1.3031 H         1 <0>         0.0847
     22 H6          3.0319   -1.5595   -2.3267 H         1 <0>         0.0736
     23 H7          3.1699    0.1090   -2.9647 H         1 <0>         0.0715
     24 H8          5.2831   -0.3567   -4.0302 H         1 <0>         0.0682
     25 H9          4.4033   -1.8988   -4.2812 H         1 <0>         0.0699
     26 H10         6.8102   -1.9573   -3.0703 H         1 <0>         0.0671
     27 H11         5.4773   -2.9473   -2.3971 H         1 <0>         0.0682
     28 H12         6.6639   -0.3751   -1.3614 H         1 <0>         0.0695
     29 H13         5.9243   -1.7254   -0.4554 H         1 <0>         0.0664
@<TRIPOS>BOND
     1    1    6 ar
     2    1    2 ar
     3    1   18 1
     4    2    3 ar
     5    2   19 1
     6    3    4 ar
     7    3   17 1
     8    4    5 ar
     9    4   16 1
    10    5    6 ar
    11    5   20 1
    12    6    7 1
    13    7    8 1
    14    7    9 1
    15    7   11 1
    16    9   10 3
    17   11   15 1
    18   11   12 1
    19   11   21 1
    20   12   13 1
    21   12   22 1
    22   12   23 1
    23   13   14 1
    24   13   24 1
    25   13   25 1
    26   14   15 1
    27   14   26 1
    28   14   27 1
    29   15   28 1
    30   15   29 1
@<TRIPOS>MOLECULE
ZINC13517786
   32    33     0     0     0
SMALL
USER_CHARGES
(2S)-2-cyclohexyl-2-(3,4-dichlorophenyl)acetonitrile
@<TRIPOS>ATOM
      1 C1         -0.8554    2.9279    1.4777 C.ar      1 <0>        -0.0895
      2 C2         -1.5065    3.3750    2.6124 C.ar      1 <0>        -0.0936
      3 C3         -2.0117    2.4653    3.5235 C.ar      1 <0>        -0.0272
      4 C4         -1.8694    1.1067    3.2959 C.ar      1 <0>        -0.0293
      5 C5         -1.2224    0.6611    2.1576 C.ar      1 <0>        -0.0845
      6 C6         -0.7181    1.5718    1.2479 C.ar      1 <0>        -0.0670
      7 C7         -0.0127    1.0858    0.0080 C.3       1 <0>         0.0546
      8 H1          0.0021   -0.0041    0.0020 H         1 <0>         0.1269
      9 C8         -0.7246    1.5734   -1.1845 C.1       1 <0>         0.2074
     10 N1         -1.2741    1.9498   -2.1049 N.1       1 <0>        -0.4158
     11 C9          1.4227    1.6154   -0.0028 C.3       1 <0>        -0.0754
     12 C10         2.1388    1.1220   -1.2617 C.3       1 <0>        -0.1198
     13 C11         3.5742    1.6516   -1.2725 C.3       1 <0>        -0.1187
     14 C12         4.3142    1.1447   -0.0330 C.3       1 <0>        -0.1221
     15 C13         3.5981    1.6381    1.2258 C.3       1 <0>        -0.1192
     16 C14         2.1627    1.1086    1.2367 C.3       1 <0>        -0.1133
     17 Cl1        -2.5034   -0.0364    4.4383 Cl        1 <0>        -0.0412
     18 Cl2        -2.8240    3.0263    4.9515 Cl        1 <0>        -0.0426
     19 H2         -0.4575    3.6385    0.7685 H         1 <0>         0.1389
     20 H3         -1.6172    4.4346    2.7893 H         1 <0>         0.1466
     21 H4         -1.1108   -0.3982    1.9796 H         1 <0>         0.1485
     22 H5          1.4079    2.7053    0.0031 H         1 <0>         0.0839
     23 H6          2.1536    0.0321   -1.2676 H         1 <0>         0.0704
     24 H7          1.6116    1.4831   -2.1447 H         1 <0>         0.0621
     25 H8          3.5594    2.7414   -1.2665 H         1 <0>         0.0627
     26 H9          4.0844    1.3000   -2.1693 H         1 <0>         0.0646
     27 H10         5.3368    1.5220   -0.0407 H         1 <0>         0.0624
     28 H11         4.3290    0.0548   -0.0390 H         1 <0>         0.0635
     29 H12         3.5833    2.7280    1.2318 H         1 <0>         0.0628
     30 H13         4.1252    1.2771    2.1089 H         1 <0>         0.0654
     31 H14         1.6525    1.4601    2.1335 H         1 <0>         0.0691
     32 H15         2.1775    0.0187    1.2307 H         1 <0>         0.0696
@<TRIPOS>BOND
     1    1    6 ar
     2    1    2 ar
     3    1   19 1
     4    2    3 ar
     5    2   20 1
     6    3    4 ar
     7    3   18 1
     8    4    5 ar
     9    4   17 1
    10    5    6 ar
    11    5   21 1
    12    6    7 1
    13    7    8 1
    14    7    9 1
    15    7   11 1
    16    9   10 3
    17   11   16 1
    18   11   12 1
    19   11   22 1
    20   12   13 1
    21   12   23 1
    22   12   24 1
    23   13   14 1
    24   13   25 1
    25   13   26 1
    26   14   15 1
    27   14   27 1
    28   14   28 1
    29   15   16 1
    30   15   29 1
    31   15   30 1
    32   16   31 1
    33   16   32 1
@<TRIPOS>MOLECULE
ZINC13517789
   32    33     0     0     0
SMALL
USER_CHARGES
(2R)-2-cyclohexyl-2-(3,4-dichlorophenyl)acetonitrile
@<TRIPOS>ATOM
      1 C1         -1.2191    1.7507    0.0173 C.ar      1 <0>        -0.0895
      2 C2         -0.0126    1.0758    0.0080 C.ar      1 <0>        -0.0936
      3 C3          1.1756    1.7836    0.0004 C.ar      1 <0>        -0.0272
      4 C4          1.1559    3.1683    0.0076 C.ar      1 <0>        -0.0293
      5 C5         -0.0519    3.8418    0.0222 C.ar      1 <0>        -0.0845
      6 C6         -1.2387    3.1327    0.0297 C.ar      1 <0>        -0.0670
      7 C7         -2.5546    3.8671    0.0462 C.3       1 <0>         0.0546
      8 H1         -2.3711    4.9415    0.0502 H         1 <0>         0.1269
      9 C8         -3.3097    3.4938    1.2534 C.1       1 <0>         0.2074
     10 N1         -3.8925    3.2057    2.1850 N.1       1 <0>        -0.4158
     11 C9         -3.3633    3.4925   -1.1974 C.3       1 <0>        -0.0754
     12 C10        -2.5784    3.8805   -2.4521 C.3       1 <0>        -0.1133
     13 C11        -3.3871    3.5058   -3.6957 C.3       1 <0>        -0.1192
     14 C12        -4.7231    4.2514   -3.6790 C.3       1 <0>        -0.1221
     15 C13        -5.5080    3.8634   -2.4242 C.3       1 <0>        -0.1187
     16 C14        -4.6993    4.2380   -1.1806 C.3       1 <0>        -0.1198
     17 Cl1         2.6465    4.0581   -0.0025 Cl        1 <0>        -0.0412
     18 Cl2         2.6909    0.9366   -0.0186 Cl        1 <0>        -0.0426
     19 H2         -2.1468    1.1977    0.0191 H         1 <0>         0.1389
     20 H3          0.0021   -0.0041    0.0020 H         1 <0>         0.1466
     21 H4         -0.0680    4.9217    0.0274 H         1 <0>         0.1486
     22 H5         -3.5468    2.4180   -1.2014 H         1 <0>         0.0839
     23 H6         -2.3949    4.9549   -2.4481 H         1 <0>         0.0696
     24 H7         -1.6267    3.3493   -2.4640 H         1 <0>         0.0691
     25 H8         -3.5707    2.4314   -3.6997 H         1 <0>         0.0629
     26 H9         -2.8280    3.7823   -4.5896 H         1 <0>         0.0654
     27 H10        -5.2992    3.9845   -4.5649 H         1 <0>         0.0624
     28 H11        -4.5396    5.3258   -3.6750 H         1 <0>         0.0635
     29 H12        -5.6915    2.7890   -2.4282 H         1 <0>         0.0627
     30 H13        -6.4597    4.3945   -2.4123 H         1 <0>         0.0646
     31 H14        -5.2584    3.9616   -0.2867 H         1 <0>         0.0620
     32 H15        -4.5157    5.3124   -1.1766 H         1 <0>         0.0704
@<TRIPOS>BOND
     1    1    6 ar
     2    1    2 ar
     3    1   19 1
     4    2    3 ar
     5    2   20 1
     6    3    4 ar
     7    3   18 1
     8    4    5 ar
     9    4   17 1
    10    5    6 ar
    11    5   21 1
    12    6    7 1
    13    7    8 1
    14    7    9 1
    15    7   11 1
    16    9   10 3
    17   11   16 1
    18   11   12 1
    19   11   22 1
    20   12   13 1
    21   12   23 1
    22   12   24 1
    23   13   14 1
    24   13   25 1
    25   13   26 1
    26   14   15 1
    27   14   27 1
    28   14   28 1
    29   15   16 1
    30   15   29 1
    31   15   30 1
    32   16   31 1
    33   16   32 1
