@<TRIPOS>MOLECULE
ZINC03996003
   53    55     0     0     0
SMALL
USER_CHARGES

@<TRIPOS>ATOM
      1 C1         -0.3161    1.0064   -0.2169 C.3       1 <0>        -0.0541
      2 N1         -0.0595   -0.4399   -0.2380 N.4       1 <0>        -0.3597
      3 C2          0.6109   -0.8365    1.0075 C.3       1 <0>        -0.0125
      4 C3          1.9920   -0.1813    1.0741 C.3       1 <0>        -0.1398
      5 C4          2.6903   -0.5944    2.3713 C.3       1 <0>         0.1388
      6 H1          2.0523   -0.3509    3.2208 H         1 <0>         0.0927
      7 C5          3.9970    0.1458    2.4960 C.ar      1 <0>        -0.1406
      8 C6          5.1064   -0.2882    1.7945 C.ar      1 <0>        -0.0598
      9 C7          6.3052    0.3900    1.9078 C.ar      1 <0>        -0.1528
     10 C8          6.3948    1.5047    2.7242 C.ar      1 <0>         0.1133
     11 C9          5.2831    1.9386    3.4262 C.ar      1 <0>        -0.1524
     12 C10         4.0840    1.2618    3.3073 C.ar      1 <0>        -0.0768
     13 F1          7.5663    2.1683    2.8360 F         1 <0>        -0.1341
     14 O1          2.9399   -2.0013    2.3508 O.3       1 <0>        -0.3044
     15 C11         3.0653   -2.6231    3.5523 C.ar      1 <0>         0.1254
     16 C12         3.0572   -1.8766    4.7229 C.ar      1 <0>        -0.1989
     17 C13         3.1843   -2.5050    5.9439 C.ar      1 <0>        -0.0703
     18 C14         3.3204   -3.8909    6.0020 C.ar      1 <0>        -0.0741
     19 C15         3.3277   -4.6376    4.8252 C.ar      1 <0>        -0.0708
     20 C16         3.1954   -4.0042    3.6074 C.ar      1 <0>        -0.1428
     21 C17         3.4578   -4.5698    7.3140 C.ar      1 <0>        -0.0439
     22 C18         3.4453   -3.8248    8.4916 C.ar      1 <0>        -0.1141
     23 C19         3.5730   -4.4617    9.7094 C.ar      1 <0>        -0.1158
     24 C20         3.7137   -5.8367    9.7623 C.ar      1 <0>        -0.1189
     25 C21         3.7272   -6.5811    8.5965 C.ar      1 <0>        -0.1153
     26 C22         3.5940   -5.9554    7.3736 C.ar      1 <0>        -0.1133
     27 C23        -1.3333   -1.1614   -0.3596 C.3       1 <0>        -0.0834
     28 C24        -1.9626   -0.8487   -1.6927 C.2       1 <0>         0.4872
     29 O2         -1.4019   -0.0946   -2.4696 O.co2     1 <0>        -0.6730
     30 O3         -3.0323   -1.3497   -1.9944 O.co2     1 <0>        -0.6385
     31 H2          0.6290    1.5418   -0.1267 H         1 <0>         0.1074
     32 H3         -0.8136    1.3006   -1.1410 H         1 <0>         0.1510
     33 H4         -0.9541    1.2499    0.6327 H         1 <0>         0.1053
     34 H5          0.0140   -0.5134    1.8603 H         1 <0>         0.1223
     35 H6          0.7216   -1.9206    1.0312 H         1 <0>         0.1300
     36 H7          2.5890   -0.5044    0.2213 H         1 <0>         0.1013
     37 H8          1.8814    0.9028    1.0503 H         1 <0>         0.1091
     38 H9          5.0363   -1.1580    1.1581 H         1 <0>         0.1381
     39 H10         7.1718    0.0505    1.3599 H         1 <0>         0.1403
     40 H11         5.3519    2.8077    4.0636 H         1 <0>         0.1406
     41 H12         3.2155    1.6026    3.8514 H         1 <0>         0.1346
     42 H13         2.9516   -0.8028    4.6772 H         1 <0>         0.1297
     43 H14         3.1786   -1.9237    6.8541 H         1 <0>         0.1291
     44 H15         3.4334   -5.7116    4.8672 H         1 <0>         0.1345
     45 H16         3.1973   -4.5827    2.6954 H         1 <0>         0.1346
     46 H17         3.3363   -2.7511    8.4515 H         1 <0>         0.1235
     47 H18         3.5635   -3.8853   10.6227 H         1 <0>         0.1248
     48 H19         3.8137   -6.3309   10.7173 H         1 <0>         0.1238
     49 H20         3.8380   -7.6544    8.6435 H         1 <0>         0.1254
     50 H21         3.5999   -6.5380    6.4642 H         1 <0>         0.1251
     51 H22        -1.1520   -2.2337   -0.2860 H         1 <0>         0.1239
     52 H23        -2.0047   -0.8508    0.4409 H         1 <0>         0.1228
     53 H24         0.5311   -0.6653   -1.0244 H         1 <0>         0.4257
@<TRIPOS>BOND
     1    1    2 1
     2    1   31 1
     3    1   32 1
     4    1   33 1
     5    2    3 1
     6    2   27 1
     7    2   53 1
     8    3    4 1
     9    3   34 1
    10    3   35 1
    11    4    5 1
    12    4   36 1
    13    4   37 1
    14    5    6 1
    15    5    7 1
    16    5   14 1
    17    7   12 ar
    18    7    8 ar
    19    8    9 ar
    20    8   38 1
    21    9   10 ar
    22    9   39 1
    23   10   11 ar
    24   10   13 1
    25   11   12 ar
    26   11   40 1
    27   12   41 1
    28   14   15 1
    29   15   20 ar
    30   15   16 ar
    31   16   17 ar
    32   16   42 1
    33   17   18 ar
    34   17   43 1
    35   18   19 ar
    36   18   21 1
    37   19   20 ar
    38   19   44 1
    39   20   45 1
    40   21   26 ar
    41   21   22 ar
    42   22   23 ar
    43   22   46 1
    44   23   24 ar
    45   23   47 1
    46   24   25 ar
    47   24   48 1
    48   25   26 ar
    49   25   49 1
    50   26   50 1
    51   27   28 1
    52   27   51 1
    53   27   52 1
    54   28   29 2
    55   28   30 1
@<TRIPOS>MOLECULE
ZINC03961882
   50    52     0     0     0
SMALL
USER_CHARGES
2-[4-[5-chloro-2-(4-methoxyphenyl)sulfanyl-phenyl]-2-methyl-piperazin-1-yl]acetic acid
@<TRIPOS>ATOM
      1 C1         -3.0544    4.6085    2.1008 C.3       1 <0>        -0.1771
      2 C2         -3.0399    3.8738    0.7589 C.3       1 <0>         0.0240
      3 H1         -3.7737    3.0680    0.7774 H         1 <0>         0.1792
      4 C3         -1.6468    3.2902    0.5113 C.3       1 <0>         0.0436
      5 N1         -1.6252    2.6184   -0.7955 N.pl3     1 <0>        -0.4876
      6 C4         -1.9578    3.5597   -1.8739 C.3       1 <0>         0.0390
      7 C5         -3.3508    4.1433   -1.6264 C.3       1 <0>        -0.0076
      8 C6         -4.6728    5.4545   -0.0778 C.3       1 <0>        -0.0572
      9 C7         -5.7607    4.4125   -0.1208 C.2       1 <0>         0.4575
     10 O1         -5.4736    3.2432   -0.2218 O.co2     1 <0>        -0.6065
     11 C8         -0.3863    2.0092   -1.0259 C.ar      1 <0>         0.0998
     12 C9          0.7697    2.7742   -1.0557 C.ar      1 <0>        -0.1192
     13 C10         1.9928    2.1705   -1.2888 C.ar      1 <0>        -0.0357
     14 C11         2.0663    0.8039   -1.4936 C.ar      1 <0>        -0.0833
     15 C12         0.9184    0.0341   -1.4654 C.ar      1 <0>        -0.1095
     16 C13        -0.3118    0.6313   -1.2319 C.ar      1 <0>        -0.0704
     17 S1         -1.7764   -0.3477   -1.1961 S.3       1 <0>         0.0717
     18 C14        -1.2283   -1.9523   -1.6753 C.ar      1 <0>        -0.2073
     19 C15        -1.1373   -2.2825   -3.0218 C.ar      1 <0>        -0.0206
     20 C16        -0.7027   -3.5385   -3.3962 C.ar      1 <0>        -0.2190
     21 C17        -0.3680   -4.4743   -2.4284 C.ar      1 <0>         0.1621
     22 C18        -0.4635   -4.1474   -1.0836 C.ar      1 <0>        -0.1617
     23 C19        -0.8924   -2.8902   -0.7069 C.ar      1 <0>        -0.0226
     24 O2          0.0546   -5.7129   -2.7982 O.3       1 <0>        -0.3125
     25 C20         0.1292   -5.9812   -4.1998 C.3       1 <0>         0.0235
     26 Cl1         3.4389    3.1303   -1.3257 Cl        1 <0>        -0.0634
     27 H2         -2.3210    5.4147    2.0817 H         1 <0>         0.0700
     28 H3         -4.0466    5.0240    2.2768 H         1 <0>         0.0855
     29 H4         -2.8059    3.9102    2.9001 H         1 <0>         0.0998
     30 H5         -1.4099    2.5700    1.2944 H         1 <0>         0.1177
     31 H6         -0.9092    4.0926    0.5199 H         1 <0>         0.0550
     32 H7         -1.2240    4.3654   -1.8925 H         1 <0>         0.0546
     33 H8         -1.9476    3.0359   -2.8298 H         1 <0>         0.1190
     34 H9         -4.0882    3.3406   -1.6349 H         1 <0>         0.1702
     35 H10        -3.5878    4.8635   -2.4095 H         1 <0>         0.1224
     36 H11        -4.6661    5.9325    0.9018 H         1 <0>         0.1310
     37 H12        -4.8574    6.2045   -0.8468 H         1 <0>         0.1278
     38 H13         0.7156    3.8411   -0.8970 H         1 <0>         0.1326
     39 H14         3.0232    0.3373   -1.6755 H         1 <0>         0.1384
     40 H15         0.9794   -1.0323   -1.6249 H         1 <0>         0.1377
     41 H16        -1.4021   -1.5556   -3.7753 H         1 <0>         0.1347
     42 H17        -0.6272   -3.7938   -4.4428 H         1 <0>         0.1358
     43 H18        -0.2020   -4.8765   -0.3310 H         1 <0>         0.1392
     44 H19        -0.9664   -2.6358    0.3401 H         1 <0>         0.1406
     45 H20        -0.8586   -5.8636   -4.6454 H         1 <0>         0.0599
     46 H21         0.8240   -5.2832   -4.6669 H         1 <0>         0.0588
     47 H22         0.4792   -7.0016   -4.3563 H         1 <0>         0.1050
     48 N2         -3.3525    4.8346   -0.3201 N.4       1 <0>        -0.3702
     49 H23        -2.6357    5.5697   -0.3305 H         1 <0>         0.4016
     50 O3         -7.0486    4.7834   -0.0471 O.co2     1 <0>        -0.7063
@<TRIPOS>BOND
     1    1    2 1
     2    1   27 1
     3    1   28 1
     4    1   29 1
     5    2    3 1
     6    2    4 1
     7    2   48 1
     8    4    5 1
     9    4   30 1
    10    4   31 1
    11    5    6 1
    12    5   11 1
    13    6    7 1
    14    6   32 1
    15    6   33 1
    16    7   34 1
    17    7   35 1
    18    7   48 1
    19    8    9 1
    20    8   36 1
    21    8   37 1
    22    8   48 1
    23    9   10 2
    24    9   50 1
    25   11   16 ar
    26   11   12 ar
    27   12   13 ar
    28   12   38 1
    29   13   14 ar
    30   13   26 1
    31   14   15 ar
    32   14   39 1
    33   15   16 ar
    34   15   40 1
    35   16   17 1
    36   17   18 1
    37   18   23 ar
    38   18   19 ar
    39   19   20 ar
    40   19   41 1
    41   20   21 ar
    42   20   42 1
    43   21   22 ar
    44   21   24 1
    45   22   23 ar
    46   22   43 1
    47   23   44 1
    48   24   25 1
    49   25   45 1
    50   25   46 1
    51   25   47 1
    52   48   49 1
@<TRIPOS>MOLECULE
ZINC28359635
   50    52     0     0     0
SMALL
USER_CHARGES
2-[(2S)-4-[5-chloro-2-(4-methoxyphenyl)sulfanyl-phenyl]-2-methyl-piperazin-1-yl]acetic acid
@<TRIPOS>ATOM
      1 C1         -2.5358    3.3012    0.3094 C.3       1 <0>        -0.1786
      2 C2         -1.0629    2.9127    0.4522 C.3       1 <0>         0.0225
      3 H1         -0.6239    3.3890    1.3413 H         1 <0>         0.1762
      4 C3         -0.9429    1.3896    0.5421 C.3       1 <0>         0.0460
      5 N1          0.4754    1.0174    0.6398 N.pl3     1 <0>        -0.4746
      6 C4          1.2245    1.4970   -0.5299 C.3       1 <0>         0.0269
      7 C5          1.1046    3.0202   -0.6198 C.3       1 <0>        -0.0179
      8 N2         -0.3137    3.3923   -0.7175 N.4       1 <0>        -0.3720
      9 C6         -0.4669    4.8441   -0.8818 C.3       1 <0>        -0.0600
     10 C7          0.1171    5.5494    0.3150 C.2       1 <0>         0.4549
     11 O1          0.6693    4.9133    1.1812 O.co2     1 <0>        -0.6079
     12 O2          0.0239    6.8845    0.4188 O.co2     1 <0>        -0.7058
     13 C8          0.6213   -0.3658    0.7964 C.ar      1 <0>         0.1604
     14 C9          1.1971   -1.1227   -0.2126 C.ar      1 <0>        -0.1657
     15 C10         1.3408   -2.4899   -0.0555 C.ar      1 <0>         0.0118
     16 C11         0.9109   -3.1056    1.1068 C.ar      1 <0>        -0.1298
     17 C12         0.3358   -2.3581    2.1175 C.ar      1 <0>        -0.0425
     18 C13         0.1931   -0.9860    1.9705 C.ar      1 <0>        -0.1408
     19 S1         -0.5330   -0.0301    3.2603 S.3       1 <0>         0.0131
     20 C14         0.6142   -0.1679    4.5906 C.ar      1 <0>        -0.1372
     21 C15         1.8236   -0.8248    4.4004 C.ar      1 <0>        -0.0805
     22 C16         2.7243   -0.9272    5.4420 C.ar      1 <0>        -0.1909
     23 C17         2.4171   -0.3845    6.6812 C.ar      1 <0>         0.1292
     24 C18         1.2074    0.2666    6.8738 C.ar      1 <0>        -0.1328
     25 C19         0.3076    0.3752    5.8321 C.ar      1 <0>        -0.0545
     26 O3          3.3023   -0.4912    7.7080 O.3       1 <0>        -0.3147
     27 C20         4.5284   -1.1744    7.4393 C.3       1 <0>         0.0226
     28 Cl1         2.0620   -3.4355   -1.3202 Cl        1 <0>        -0.0529
     29 H2         -3.0963    2.9421    1.1851 H         1 <0>         0.1021
     30 H3         -2.9486    2.8450   -0.6025 H         1 <0>         0.0730
     31 H4         -2.6215    4.3958    0.2429 H         1 <0>         0.0885
     32 H5         -1.4792    1.0315    1.4333 H         1 <0>         0.1255
     33 H6         -1.3815    0.9335   -0.3577 H         1 <0>         0.0617
     34 H7          2.2833    1.2170   -0.4272 H         1 <0>         0.1228
     35 H8          0.8115    1.0413   -1.4419 H         1 <0>         0.0629
     36 H9          1.5432    3.4762    0.2800 H         1 <0>         0.1761
     37 H10         1.6409    3.3783   -1.5110 H         1 <0>         0.1266
     38 H11         0.0601    5.1678   -1.7914 H         1 <0>         0.1314
     39 H12        -1.5349    5.0926   -0.9688 H         1 <0>         0.1350
     40 H13         1.5337   -0.6451   -1.1209 H         1 <0>         0.1441
     41 H14         1.0246   -4.1731    1.2245 H         1 <0>         0.1433
     42 H15         0.0016   -2.8417    3.0235 H         1 <0>         0.1455
     43 H16         2.0609   -1.2515    3.4371 H         1 <0>         0.1233
     44 H17         3.6665   -1.4335    5.2931 H         1 <0>         0.1307
     45 H18         0.9691    0.6884    7.8391 H         1 <0>         0.1385
     46 H19        -0.6343    0.8818    5.9824 H         1 <0>         0.1361
     47 H20         5.1472   -1.1884    8.3486 H         1 <0>         0.1042
     48 H21         5.0696   -0.6539    6.6354 H         1 <0>         0.0574
     49 H22         4.3121   -2.2067    7.1271 H         1 <0>         0.0567
     50 H23        -0.7317    2.9061   -1.6113 H         1 <0>         0.4105
@<TRIPOS>BOND
     1    1    2 1
     2    1   29 1
     3    1   30 1
     4    1   31 1
     5    2    3 1
     6    2    8 1
     7    2    4 1
     8    4    5 1
     9    4   32 1
    10    4   33 1
    11    5    6 1
    12    5   13 1
    13    6    7 1
    14    6   34 1
    15    6   35 1
    16    7    8 1
    17    7   36 1
    18    7   37 1
    19    8    9 1
    20    8   50 1
    21    9   10 1
    22    9   38 1
    23    9   39 1
    24   10   11 2
    25   10   12 1
    26   13   18 ar
    27   13   14 ar
    28   14   15 ar
    29   14   40 1
    30   15   16 ar
    31   15   28 1
    32   16   17 ar
    33   16   41 1
    34   17   18 ar
    35   17   42 1
    36   18   19 1
    37   19   20 1
    38   20   25 ar
    39   20   21 ar
    40   21   22 ar
    41   21   43 1
    42   22   23 ar
    43   22   44 1
    44   23   24 ar
    45   23   26 1
    46   24   25 ar
    47   24   45 1
    48   25   46 1
    49   26   27 1
    50   27   47 1
    51   27   48 1
    52   27   49 1
@<TRIPOS>MOLECULE
ZINC02548486
   53    55     0     0     0
SMALL
USER_CHARGES
2-[[(3S)-3-(4-fluorophenyl)-3-(4-phenylphenoxy)propyl]-methyl-amino]acetic acid
@<TRIPOS>ATOM
      1 C1          3.6592   -0.2655    3.9339 C.3       1 <0>        -0.0507
      2 N1          4.5935    0.5048    3.1023 N.4       1 <0>        -0.3811
      3 C2          4.2238    0.4247    1.6828 C.3       1 <0>        -0.0091
      4 C3          2.8808    1.1246    1.4653 C.3       1 <0>        -0.1380
      5 C4          2.4957    1.0412   -0.0131 C.3       1 <0>         0.1375
      6 H1          2.5327    0.0068   -0.3853 H         1 <0>         0.0942
      7 C5          1.1184    1.6212   -0.2069 C.ar      1 <0>        -0.1397
      8 C6          0.0135    0.7903   -0.2124 C.ar      1 <0>        -0.0774
      9 C7         -1.2496    1.3205   -0.3948 C.ar      1 <0>        -0.1525
     10 C8         -1.4092    2.6857   -0.5622 C.ar      1 <0>         0.1129
     11 C9         -0.3019    3.5169   -0.5566 C.ar      1 <0>        -0.1524
     12 C10         0.9607    2.9839   -0.3787 C.ar      1 <0>        -0.0602
     13 F1         -2.6439    3.2056   -0.7365 F         1 <0>        -0.1342
     14 O1          3.4378    1.7801   -0.7931 O.3       1 <0>        -0.3089
     15 C11         3.5727    1.4241   -2.0974 C.ar      1 <0>         0.1260
     16 C12         2.7388    0.4565   -2.6413 C.ar      1 <0>        -0.1996
     17 C13         2.8696    0.0972   -3.9663 C.ar      1 <0>        -0.0701
     18 C14         3.8477    0.6983   -4.7566 C.ar      1 <0>        -0.0740
     19 C15         4.6872    1.6653   -4.2063 C.ar      1 <0>        -0.0707
     20 C16         4.5479    2.0246   -2.8822 C.ar      1 <0>        -0.1427
     21 C17         3.9954    0.3093   -6.1806 C.ar      1 <0>        -0.0441
     22 C18         4.9694    0.9133   -6.9733 C.ar      1 <0>        -0.1132
     23 C19         5.1051    0.5444   -8.2962 C.ar      1 <0>        -0.1153
     24 C20         4.2699   -0.4158   -8.8383 C.ar      1 <0>        -0.1188
     25 C21         3.2982   -1.0152   -8.0575 C.ar      1 <0>        -0.1159
     26 C22         3.1567   -0.6575   -6.7320 C.ar      1 <0>        -0.1141
     27 C23         5.9768    0.0573    3.3120 C.3       1 <0>        -0.0523
     28 C24         6.4012    0.3806    4.7215 C.2       1 <0>         0.4535
     29 O2          5.6303    0.9276    5.4740 O.co2     1 <0>        -0.6198
     30 O3          7.6355    0.0608    5.1408 O.co2     1 <0>        -0.7054
     31 H2          3.9588   -0.1884    4.9895 H         1 <0>         0.1455
     32 H3          3.6768   -1.3208    3.6238 H         1 <0>         0.1051
     33 H4          2.6424    0.1359    3.8110 H         1 <0>         0.1106
     34 H5          4.9967    0.9170    1.0743 H         1 <0>         0.1324
     35 H6          4.1397   -0.6308    1.3848 H         1 <0>         0.1213
     36 H7          2.1080    0.6322    2.0738 H         1 <0>         0.1092
     37 H8          2.9649    2.1801    1.7633 H         1 <0>         0.1037
     38 H9          0.1379   -0.2741   -0.0784 H         1 <0>         0.1346
     39 H10        -2.1122    0.6707   -0.4035 H         1 <0>         0.1405
     40 H11        -0.4248    4.5814   -0.6915 H         1 <0>         0.1402
     41 H12         1.8245    3.6320   -0.3743 H         1 <0>         0.1386
     42 H13         1.9842   -0.0124   -2.0271 H         1 <0>         0.1300
     43 H14         2.2180   -0.6527   -4.3899 H         1 <0>         0.1290
     44 H15         5.4462    2.1326   -4.8162 H         1 <0>         0.1346
     45 H16         5.1979    2.7741   -2.4553 H         1 <0>         0.1348
     46 H17         5.6193    1.6661   -6.5521 H         1 <0>         0.1252
     47 H18         5.8623    1.0090   -8.9104 H         1 <0>         0.1254
     48 H19         4.3766   -0.6982   -9.8753 H         1 <0>         0.1238
     49 H20         2.6488   -1.7643   -8.4858 H         1 <0>         0.1247
     50 H21         2.3972   -1.1256   -6.1234 H         1 <0>         0.1235
     51 H22         6.0392   -1.0290    3.1503 H         1 <0>         0.1271
     52 H23         6.6405    0.5724    2.6020 H         1 <0>         0.1313
     53 H24         4.5291    1.5591    3.4095 H         1 <0>         0.4451
@<TRIPOS>BOND
     1    1    2 1
     2    1   31 1
     3    1   32 1
     4    1   33 1
     5    2    3 1
     6    2   27 1
     7    2   53 1
     8    3    4 1
     9    3   34 1
    10    3   35 1
    11    4    5 1
    12    4   36 1
    13    4   37 1
    14    5    6 1
    15    5    7 1
    16    5   14 1
    17    7   12 ar
    18    7    8 ar
    19    8    9 ar
    20    8   38 1
    21    9   10 ar
    22    9   39 1
    23   10   11 ar
    24   10   13 1
    25   11   12 ar
    26   11   40 1
    27   12   41 1
    28   14   15 1
    29   15   20 ar
    30   15   16 ar
    31   16   17 ar
    32   16   42 1
    33   17   18 ar
    34   17   43 1
    35   18   19 ar
    36   18   21 1
    37   19   20 ar
    38   19   44 1
    39   20   45 1
    40   21   26 ar
    41   21   22 ar
    42   22   23 ar
    43   22   46 1
    44   23   24 ar
    45   23   47 1
    46   24   25 ar
    47   24   48 1
    48   25   26 ar
    49   25   49 1
    50   26   50 1
    51   27   28 1
    52   27   51 1
    53   27   52 1
    54   28   29 2
    55   28   30 1
@<TRIPOS>MOLECULE
ZINC13816272
   46    47     0     0     0
SMALL
USER_CHARGES

@<TRIPOS>ATOM
      1 C1          0.1493    1.8117    0.0728 C.3       1 <0>        -0.0528
      2 N1          0.3123    0.3657   -0.1286 N.4       1 <0>        -0.3593
      3 C2          0.9741   -0.2205    1.0446 C.3       1 <0>        -0.0136
      4 C3          0.0633   -0.0820    2.2662 C.3       1 <0>        -0.1390
      5 C4          0.7526   -0.6926    3.4881 C.3       1 <0>         0.1358
      6 H1          1.0334   -1.7229    3.2698 H         1 <0>         0.0929
      7 C5         -0.1915   -0.6672    4.6624 C.ar      1 <0>        -0.1319
      8 C6         -0.3685    0.4999    5.3818 C.ar      1 <0>        -0.0909
      9 C7         -1.2345    0.5232    6.4590 C.ar      1 <0>        -0.1180
     10 C8         -1.9239   -0.6204    6.8165 C.ar      1 <0>        -0.1053
     11 C9         -1.7476   -1.7872    6.0965 C.ar      1 <0>        -0.1168
     12 C10        -0.8848   -1.8094    5.0167 C.ar      1 <0>        -0.1065
     13 O1          1.9236    0.0639    3.8019 O.3       1 <0>        -0.3004
     14 C11         2.9095   -0.5787    4.4815 C.ar      1 <0>         0.1593
     15 C12         4.1160    0.0611    4.7258 C.ar      1 <0>        -0.1494
     16 C13         5.1165   -0.5941    5.4173 C.ar      1 <0>        -0.0296
     17 C14         4.9163   -1.8867    5.8655 C.ar      1 <0>        -0.2167
     18 C15         3.7149   -2.5268    5.6229 C.ar      1 <0>        -0.0278
     19 C16         2.7091   -1.8737    4.9373 C.ar      1 <0>        -0.2052
     20 C17         6.0095   -2.5994    6.6191 C.3       1 <0>         0.5106
     21 F1          5.8695   -2.3517    7.9889 F         1 <0>        -0.1759
     22 F2          5.9188   -3.9752    6.3823 F         1 <0>        -0.1770
     23 F3          7.2552   -2.1327    6.1859 F         1 <0>        -0.1762
     24 C18         1.1325    0.1271   -1.3237 C.3       1 <0>        -0.0836
     25 C19         0.3975    0.6192   -2.5438 C.2       1 <0>         0.4872
     26 O2         -0.7072    1.1220   -2.4285 O.co2     1 <0>        -0.6728
     27 O3          0.9076    0.5144   -3.6462 O.co2     1 <0>        -0.6383
     28 H2          1.1280    2.2726    0.2059 H         1 <0>         0.1061
     29 H3         -0.3418    2.2467   -0.7977 H         1 <0>         0.1507
     30 H4         -0.4593    1.9888    0.9595 H         1 <0>         0.1076
     31 H5          1.1751   -1.2756    0.8590 H         1 <0>         0.1228
     32 H6          1.9130    0.3010    1.2305 H         1 <0>         0.1291
     33 H7         -0.1377    0.9731    2.4518 H         1 <0>         0.1031
     34 H8         -0.8756   -0.6035    2.0803 H         1 <0>         0.1089
     35 H9          0.1701    1.3934    5.1025 H         1 <0>         0.1266
     36 H10        -1.3723    1.4348    7.0215 H         1 <0>         0.1269
     37 H11        -2.6000   -0.6024    7.6585 H         1 <0>         0.1266
     38 H12        -2.2860   -2.6808    6.3760 H         1 <0>         0.1277
     39 H13        -0.7499   -2.7200    4.4519 H         1 <0>         0.1243
     40 H14         4.2731    1.0705    4.3753 H         1 <0>         0.1445
     41 H15         6.0559   -0.0965    5.6077 H         1 <0>         0.1453
     42 H16         3.5611   -3.5366    5.9737 H         1 <0>         0.1401
     43 H17         1.7693   -2.3724    4.7519 H         1 <0>         0.1399
     44 H18         2.0775    0.6619   -1.2285 H         1 <0>         0.1235
     45 H19         1.3277   -0.9406   -1.4231 H         1 <0>         0.1232
     46 H20        -0.5938   -0.0609   -0.2518 H         1 <0>         0.4243
@<TRIPOS>BOND
     1    1    2 1
     2    1   28 1
     3    1   29 1
     4    1   30 1
     5    2    3 1
     6    2   24 1
     7    2   46 1
     8    3    4 1
     9    3   31 1
    10    3   32 1
    11    4    5 1
    12    4   33 1
    13    4   34 1
    14    5    6 1
    15    5    7 1
    16    5   13 1
    17    7   12 ar
    18    7    8 ar
    19    8    9 ar
    20    8   35 1
    21    9   10 ar
    22    9   36 1
    23   10   11 ar
    24   10   37 1
    25   11   12 ar
    26   11   38 1
    27   12   39 1
    28   13   14 1
    29   14   19 ar
    30   14   15 ar
    31   15   16 ar
    32   15   40 1
    33   16   17 ar
    34   16   41 1
    35   17   18 ar
    36   17   20 1
    37   18   19 ar
    38   18   42 1
    39   19   43 1
    40   20   21 1
    41   20   22 1
    42   20   23 1
    43   24   25 1
    44   24   44 1
    45   24   45 1
    46   25   26 2
    47   25   27 1
@<TRIPOS>MOLECULE
ZINC13981793
   61    65     0     0     0
SMALL
USER_CHARGES
1-phenyl-8-[(1S,2S)-2-phenylcyclohexyl]-1,3,8-triazaspiro[4.5]decan-4-one
@<TRIPOS>ATOM
      1 C1          3.0226    7.6329    2.2412 C.ar      1 <0>        -0.1042
      2 C2          3.9514    8.5363    1.7594 C.ar      1 <0>        -0.1050
      3 C3          4.5907    8.2956    0.5576 C.ar      1 <0>        -0.1045
      4 C4          4.3008    7.1518   -0.1626 C.ar      1 <0>        -0.1186
      5 C5          3.3679    6.2513    0.3165 C.ar      1 <0>        -0.1349
      6 C6          2.7324    6.4893    1.5208 C.ar      1 <0>        -0.1132
      7 C7          4.9975    6.8897   -1.4729 C.3       1 <0>        -0.0621
      8 H1          5.2358    7.8384   -1.9539 H         1 <0>         0.1279
      9 C8          4.0794    6.0725   -2.3841 C.3       1 <0>        -0.1271
     10 C9          4.7866    5.8064   -3.7145 C.3       1 <0>        -0.1299
     11 C10         6.0774    5.0258   -3.4586 C.3       1 <0>        -0.1407
     12 C11         6.9955    5.8430   -2.5474 C.3       1 <0>        -0.1466
     13 C12         6.2883    6.1091   -1.2171 C.3       1 <0>         0.0433
     14 H2          6.9423    6.6913   -0.5680 H         1 <0>         0.1404
     15 C13         7.0445    3.8532   -0.7701 C.3       1 <0>        -0.0275
     16 C14         6.6083    2.4925   -0.2194 C.3       1 <0>        -0.1193
     17 C15         6.2709    2.6325    1.2625 C.3       1 <0>         0.0524
     18 C16         5.1986    3.6999    1.4636 C.3       1 <0>        -0.1595
     19 C17         5.6799    5.0216    0.8585 C.3       1 <0>        -0.0513
     20 C18         7.5089    2.9735    2.0547 C.2       1 <0>         0.5302
     21 O1          8.3424    3.7997    1.7487 O.2       1 <0>        -0.5098
     22 N1          7.5305    2.2020    3.1621 N.am      1 <0>        -0.7210
     23 C19         6.3412    1.3409    3.1850 C.3       1 <0>         0.2389
     24 N2          5.8071    1.3378    1.8029 N.pl3     1 <0>        -0.4411
     25 C20         4.4121    1.2673    1.8055 C.ar      1 <0>         0.0833
     26 C21         3.7054    1.4158    0.6189 C.ar      1 <0>        -0.1423
     27 C22         2.3259    1.3508    0.6258 C.ar      1 <0>        -0.0954
     28 C23         1.6487    1.1267    1.8105 C.ar      1 <0>        -0.1243
     29 C24         2.3491    0.9785    2.9936 C.ar      1 <0>        -0.0843
     30 C25         3.7284    1.0481    2.9947 C.ar      1 <0>        -0.1596
     31 H3          2.5233    7.8207    3.1803 H         1 <0>         0.1331
     32 H4          4.1778    9.4299    2.3220 H         1 <0>         0.1341
     33 H5          5.3163    9.0014    0.1811 H         1 <0>         0.1324
     34 H6          3.1382    5.3598   -0.2483 H         1 <0>         0.1243
     35 H7          2.0065    5.7837    1.8971 H         1 <0>         0.1330
     36 H8          3.1598    6.6286   -2.5664 H         1 <0>         0.0972
     37 H9          3.8410    5.1238   -1.9032 H         1 <0>         0.0561
     38 H10         5.0250    6.7551   -4.1954 H         1 <0>         0.0822
     39 H11         4.1326    5.2242   -4.3636 H         1 <0>         0.0828
     40 H12         6.5813    4.8362   -4.4064 H         1 <0>         0.0939
     41 H13         5.8391    4.0771   -2.9777 H         1 <0>         0.0583
     42 H14         7.2339    6.7917   -3.0284 H         1 <0>         0.1132
     43 H15         7.9151    5.2869   -2.3652 H         1 <0>         0.0951
     44 H16         7.9403    4.1869   -0.2465 H         1 <0>         0.1537
     45 H17         7.2586    3.7624   -1.8350 H         1 <0>         0.1415
     46 H18         7.4186    1.7738   -0.3417 H         1 <0>         0.1236
     47 H19         5.7287    2.1456   -0.7616 H         1 <0>         0.1001
     48 H20         4.2778    3.3880    0.9706 H         1 <0>         0.1155
     49 H21         5.0138    3.8337    2.5295 H         1 <0>         0.1118
     50 H22         6.5853    5.3474    1.3707 H         1 <0>         0.1324
     51 H23         4.9042    5.7785    0.9749 H         1 <0>         0.1719
     52 H24         8.2251    2.2145    3.8391 H         1 <0>         0.4320
     53 H25         5.5987    1.7455    3.8728 H         1 <0>         0.0843
     54 H26         6.6166    0.3292    3.4826 H         1 <0>         0.1175
     55 H27         4.2339    1.5862   -0.3074 H         1 <0>         0.1243
     56 H28         1.7756    1.4706   -0.2957 H         1 <0>         0.1313
     57 H29         0.5701    1.0719    1.8125 H         1 <0>         0.1305
     58 H30         1.8169    0.8085    3.9179 H         1 <0>         0.1323
     59 H31         4.2748    0.9326    3.9191 H         1 <0>         0.1349
     60 N3          5.9416    4.8206   -0.5830 N.4       1 <0>        -0.3814
     61 H32         5.0937    4.4483   -1.0263 H         1 <0>         0.4138
@<TRIPOS>BOND
     1    1    6 ar
     2    1    2 ar
     3    1   31 1
     4    2    3 ar
     5    2   32 1
     6    3    4 ar
     7    3   33 1
     8    4    5 ar
     9    4    7 1
    10    5    6 ar
    11    5   34 1
    12    6   35 1
    13    7    8 1
    14    7   13 1
    15    7    9 1
    16    9   10 1
    17    9   36 1
    18    9   37 1
    19   10   11 1
    20   10   38 1
    21   10   39 1
    22   11   12 1
    23   11   40 1
    24   11   41 1
    25   12   13 1
    26   12   42 1
    27   12   43 1
    28   13   14 1
    29   13   60 1
    30   15   16 1
    31   15   44 1
    32   15   45 1
    33   15   60 1
    34   16   17 1
    35   16   46 1
    36   16   47 1
    37   17   24 1
    38   17   18 1
    39   17   20 1
    40   18   19 1
    41   18   48 1
    42   18   49 1
    43   19   50 1
    44   19   51 1
    45   19   60 1
    46   20   21 2
    47   20   22 am
    48   22   23 1
    49   22   52 1
    50   23   24 1
    51   23   53 1
    52   23   54 1
    53   24   25 1
    54   25   30 ar
    55   25   26 ar
    56   26   27 ar
    57   26   55 1
    58   27   28 ar
    59   27   56 1
    60   28   29 ar
    61   28   57 1
    62   29   30 ar
    63   29   58 1
    64   30   59 1
    65   60   61 1
@<TRIPOS>MOLECULE
ZINC16636899
   46    48     0     0     0
SMALL
USER_CHARGES
N-[2-(benzhydrylamino)-2-oxo-ethyl]-4-fluoro-benzamide
@<TRIPOS>ATOM
      1 C1          9.4259    0.9049    1.6194 C.ar      1 <0>        -0.1147
      2 C2          9.1177    2.2180    1.9222 C.ar      1 <0>        -0.1139
      3 C3          7.9869    2.8041    1.3850 C.ar      1 <0>        -0.1033
      4 C4          7.1640    2.0771    0.5453 C.ar      1 <0>        -0.0912
      5 C5          7.4691    0.7622    0.2470 C.ar      1 <0>        -0.1117
      6 C6          8.6027    0.1777    0.7800 C.ar      1 <0>        -0.1140
      7 C7          5.9310    2.7160   -0.0400 C.3       1 <0>         0.2316
      8 C8          6.2131    3.1482   -1.4558 C.ar      1 <0>        -0.0927
      9 C9          6.1834    2.2208   -2.4805 C.ar      1 <0>        -0.1037
     10 C10         6.4374    2.6181   -3.7799 C.ar      1 <0>        -0.1199
     11 C11         6.7310    3.9410   -4.0533 C.ar      1 <0>        -0.1166
     12 C12         6.7663    4.8673   -3.0278 C.ar      1 <0>        -0.1175
     13 C13         6.5071    4.4710   -1.7291 C.ar      1 <0>        -0.1008
     14 N1          4.8306    1.7489   -0.0347 N.am      1 <0>        -0.7175
     15 C14         3.5540    2.1808   -0.0202 C.2       1 <0>         0.5144
     16 O1          3.3162    3.3701   -0.0115 O.2       1 <0>        -0.5282
     17 C15         2.4220    1.1860   -0.0147 C.3       1 <0>         0.1005
     18 N2          1.1435    1.9012    0.0014 N.am      1 <0>        -0.7153
     19 C16        -0.0144    1.2115    0.0087 C.2       1 <0>         0.5660
     20 O2          0.0021   -0.0041    0.0020 O.2       1 <0>        -0.5328
     21 C17        -1.3036    1.9326    0.0187 C.ar      1 <0>        -0.1498
     22 C18        -1.3254    3.3289    0.0322 C.ar      1 <0>        -0.0541
     23 C19        -2.5312    3.9968    0.0348 C.ar      1 <0>        -0.1606
     24 C20        -3.7209    3.2848    0.0370 C.ar      1 <0>         0.1288
     25 C21        -3.7050    1.8984    0.0299 C.ar      1 <0>        -0.1616
     26 C22        -2.5049    1.2205    0.0206 C.ar      1 <0>        -0.0273
     27 F1         -4.9000    3.9444    0.0457 F         1 <0>        -0.1319
     28 H1         10.3095    0.4470    2.0388 H         1 <0>         0.1246
     29 H2          9.7606    2.7860    2.5783 H         1 <0>         0.1262
     30 H3          7.7462    3.8300    1.6217 H         1 <0>         0.1250
     31 H4          6.8238    0.1928   -0.4055 H         1 <0>         0.1195
     32 H5          8.8433   -0.8483    0.5437 H         1 <0>         0.1255
     33 H6          5.6539    3.5850    0.5568 H         1 <0>         0.1071
     34 H7          5.9581    1.1865   -2.2664 H         1 <0>         0.1164
     35 H8          6.4102    1.8944   -4.5811 H         1 <0>         0.1224
     36 H9          6.9331    4.2508   -5.0680 H         1 <0>         0.1225
     37 H10         6.9960    5.9008   -3.2413 H         1 <0>         0.1240
     38 H11         6.5347    5.1947   -0.9280 H         1 <0>         0.1224
     39 H12         5.0207    0.7978   -0.0416 H         1 <0>         0.4045
     40 H13         2.4967    0.5554    0.8712 H         1 <0>         0.1044
     41 H14         2.4797    0.5650   -0.9086 H         1 <0>         0.1037
     42 H15         1.1303    2.8711    0.0067 H         1 <0>         0.4123
     43 H16        -0.3992    3.8844    0.0354 H         1 <0>         0.1386
     44 H17        -2.5492    5.0767    0.0396 H         1 <0>         0.1446
     45 H18        -4.6346    1.3486    0.0313 H         1 <0>         0.1456
     46 H19        -2.4936    0.1406    0.0143 H         1 <0>         0.1486
@<TRIPOS>BOND
     1    1    6 ar
     2    1    2 ar
     3    1   28 1
     4    2    3 ar
     5    2   29 1
     6    3    4 ar
     7    3   30 1
     8    4    5 ar
     9    4    7 1
    10    5    6 ar
    11    5   31 1
    12    6   32 1
    13    7    8 1
    14    7   14 1
    15    7   33 1
    16    8   13 ar
    17    8    9 ar
    18    9   10 ar
    19    9   34 1
    20   10   11 ar
    21   10   35 1
    22   11   12 ar
    23   11   36 1
    24   12   13 ar
    25   12   37 1
    26   13   38 1
    27   14   15 am
    28   14   39 1
    29   15   16 2
    30   15   17 1
    31   17   18 1
    32   17   40 1
    33   17   41 1
    34   18   19 am
    35   18   42 1
    36   19   20 2
    37   19   21 1
    38   21   26 ar
    39   21   22 ar
    40   22   23 ar
    41   22   43 1
    42   23   24 ar
    43   23   44 1
    44   24   25 ar
    45   24   27 1
    46   25   26 ar
    47   25   45 1
    48   26   46 1
@<TRIPOS>MOLECULE
ZINC40409284
   49    51     0     0     0
SMALL
USER_CHARGES

@<TRIPOS>ATOM
      1 C1         -0.0167    1.3781    0.0096 C.ar      1 <0>        -0.1187
      2 C2          1.1709    2.0855    0.0021 C.ar      1 <0>        -0.1190
      3 C3          2.3773    1.4107   -0.0130 C.ar      1 <0>        -0.1052
      4 C4          2.3960    0.0285   -0.0201 C.ar      1 <0>        -0.0701
      5 C5          1.2084   -0.6789   -0.0117 C.ar      1 <0>        -0.1051
      6 C6          0.0021   -0.0041    0.0020 C.ar      1 <0>        -0.1189
      7 C7          3.7112   -0.7071   -0.0376 C.3       1 <0>        -0.1005
      8 C8          4.1644   -0.9594    1.3773 C.2       1 <0>         0.5182
      9 O1          3.4863   -0.5793    2.3082 O.2       1 <0>        -0.5279
     10 N1          5.3234   -1.6075    1.6082 N.am      1 <0>        -0.7223
     11 C9          5.7640   -1.8528    2.9837 C.3       1 <0>         0.1007
     12 C10         7.0792   -2.5884    2.9662 C.2       1 <0>         0.5152
     13 O2          7.5973   -2.8792    1.9090 O.2       1 <0>        -0.5263
     14 N2          7.6795   -2.9232    4.1256 N.am      1 <0>        -0.7197
     15 C11         8.9579   -3.6384    4.1086 C.3       1 <0>         0.2319
     16 H1          8.9784   -4.3259    3.2631 H         1 <0>         0.1096
     17 C12        10.0860   -2.6477    3.9779 C.ar      1 <0>        -0.0951
     18 C13        10.0406   -1.4531    4.6720 C.ar      1 <0>        -0.1035
     19 C14        11.0754   -0.5443    4.5521 C.ar      1 <0>        -0.1196
     20 C15        12.1557   -0.8304    3.7384 C.ar      1 <0>        -0.1153
     21 C16        12.2015   -2.0254    3.0450 C.ar      1 <0>        -0.1171
     22 C17        11.1688   -2.9360    3.1683 C.ar      1 <0>        -0.0999
     23 C18         9.1167   -4.4140    5.3908 C.ar      1 <0>        -0.0866
     24 C19         8.7133   -3.8568    6.5899 C.ar      1 <0>        -0.0990
     25 C20         8.8587   -4.5677    7.7663 C.ar      1 <0>        -0.1041
     26 C21         9.4079   -5.8373    7.7436 C.ar      1 <0>        -0.0308
     27 C22         9.8114   -6.3945    6.5432 C.ar      1 <0>        -0.1041
     28 C23         9.6604   -5.6848    5.3668 C.ar      1 <0>        -0.0897
     29 Cl1         9.5913   -6.7306    9.2207 Cl        1 <0>        -0.0640
     30 H2         -0.9591    1.9053    0.0259 H         1 <0>         0.1217
     31 H3          1.1563    3.1654    0.0076 H         1 <0>         0.1223
     32 H4          3.3051    1.9634   -0.0196 H         1 <0>         0.1195
     33 H5          1.2231   -1.7588   -0.0176 H         1 <0>         0.1196
     34 H6         -0.9258   -0.5567    0.0082 H         1 <0>         0.1223
     35 H7          3.5884   -1.6586   -0.5549 H         1 <0>         0.1061
     36 H8          4.4573   -0.1052   -0.5563 H         1 <0>         0.1060
     37 H9          5.8657   -1.9115    0.8637 H         1 <0>         0.4130
     38 H10         5.8868   -0.9013    3.5010 H         1 <0>         0.1005
     39 H11         5.0179   -2.4547    3.5024 H         1 <0>         0.1011
     40 H12         7.2650   -2.6906    4.9712 H         1 <0>         0.4042
     41 H13         9.1966   -1.2296    5.3076 H         1 <0>         0.1166
     42 H14        11.0396    0.3893    5.0938 H         1 <0>         0.1228
     43 H15        12.9638   -0.1201    3.6442 H         1 <0>         0.1228
     44 H16        13.0453   -2.2487    2.4091 H         1 <0>         0.1245
     45 H17        11.2063   -3.8712    2.6295 H         1 <0>         0.1230
     46 H18         8.2849   -2.8655    6.6076 H         1 <0>         0.1297
     47 H19         8.5439   -4.1321    8.7030 H         1 <0>         0.1374
     48 H20        10.2406   -7.3854    6.5249 H         1 <0>         0.1381
     49 H21         9.9709   -6.1216    4.4291 H         1 <0>         0.1360
@<TRIPOS>BOND
     1    1    6 ar
     2    1    2 ar
     3    1   30 1
     4    2    3 ar
     5    2   31 1
     6    3    4 ar
     7    3   32 1
     8    4    5 ar
     9    4    7 1
    10    5    6 ar
    11    5   33 1
    12    6   34 1
    13    7    8 1
    14    7   35 1
    15    7   36 1
    16    8    9 2
    17    8   10 am
    18   10   11 1
    19   10   37 1
    20   11   12 1
    21   11   38 1
    22   11   39 1
    23   12   13 2
    24   12   14 am
    25   14   15 1
    26   14   40 1
    27   15   16 1
    28   15   17 1
    29   15   23 1
    30   17   22 ar
    31   17   18 ar
    32   18   19 ar
    33   18   41 1
    34   19   20 ar
    35   19   42 1
    36   20   21 ar
    37   20   43 1
    38   21   22 ar
    39   21   44 1
    40   22   45 1
    41   23   28 ar
    42   23   24 ar
    43   24   25 ar
    44   24   46 1
    45   25   26 ar
    46   25   47 1
    47   26   27 ar
    48   26   29 1
    49   27   28 ar
    50   27   48 1
    51   28   49 1
@<TRIPOS>MOLECULE
ZINC40409288
   49    51     0     0     0
SMALL
USER_CHARGES

@<TRIPOS>ATOM
      1 C1         -0.0167    1.3781    0.0096 C.ar      1 <0>        -0.1187
      2 C2          1.1709    2.0855    0.0021 C.ar      1 <0>        -0.1189
      3 C3          2.3773    1.4107   -0.0130 C.ar      1 <0>        -0.1052
      4 C4          2.3960    0.0285   -0.0201 C.ar      1 <0>        -0.0702
      5 C5          1.2084   -0.6789   -0.0117 C.ar      1 <0>        -0.1052
      6 C6          0.0021   -0.0041    0.0020 C.ar      1 <0>        -0.1190
      7 C7          3.7112   -0.7071   -0.0376 C.3       1 <0>        -0.1005
      8 C8          4.1644   -0.9594    1.3773 C.2       1 <0>         0.5182
      9 O1          3.4863   -0.5793    2.3082 O.2       1 <0>        -0.5279
     10 N1          5.3234   -1.6075    1.6082 N.am      1 <0>        -0.7223
     11 C9          5.7640   -1.8528    2.9837 C.3       1 <0>         0.1007
     12 C10         7.0792   -2.5884    2.9662 C.2       1 <0>         0.5152
     13 O2          7.5973   -2.8792    1.9090 O.2       1 <0>        -0.5263
     14 N2          7.6795   -2.9232    4.1256 N.am      1 <0>        -0.7197
     15 C11         8.9579   -3.6384    4.1086 C.3       1 <0>         0.2319
     16 H1          9.5540   -3.2971    3.2622 H         1 <0>         0.1096
     17 C12         8.7041   -5.1182    3.9800 C.ar      1 <0>        -0.0952
     18 C13         7.6560   -5.7019    4.6668 C.ar      1 <0>        -0.1036
     19 C14         7.4231   -7.0594    4.5489 C.ar      1 <0>        -0.1196
     20 C15         8.2380   -7.8331    3.7438 C.ar      1 <0>        -0.1153
     21 C16         9.2855   -7.2493    3.0563 C.ar      1 <0>        -0.1171
     22 C17         9.5158   -5.8910    3.1709 C.ar      1 <0>        -0.0999
     23 C18         9.7030   -3.3660    5.3899 C.ar      1 <0>        -0.0867
     24 C19         9.0196   -3.3235    6.5909 C.ar      1 <0>        -0.0988
     25 C20         9.7023   -3.0737    7.7664 C.ar      1 <0>        -0.1042
     26 C21        11.0699   -2.8661    7.7410 C.ar      1 <0>        -0.0307
     27 C22        11.7533   -2.9087    6.5388 C.ar      1 <0>        -0.1042
     28 C23        11.0703   -3.1642    5.3646 C.ar      1 <0>        -0.0896
     29 Cl1        11.9280   -2.5518    9.2169 Cl        1 <0>        -0.0640
     30 H2         -0.9591    1.9053    0.0259 H         1 <0>         0.1217
     31 H3          1.1563    3.1654    0.0076 H         1 <0>         0.1223
     32 H4          3.3051    1.9634   -0.0196 H         1 <0>         0.1196
     33 H5          1.2231   -1.7588   -0.0176 H         1 <0>         0.1195
     34 H6         -0.9258   -0.5567    0.0082 H         1 <0>         0.1223
     35 H7          3.5884   -1.6586   -0.5549 H         1 <0>         0.1060
     36 H8          4.4573   -0.1052   -0.5563 H         1 <0>         0.1061
     37 H9          5.8657   -1.9115    0.8637 H         1 <0>         0.4130
     38 H10         5.8868   -0.9013    3.5010 H         1 <0>         0.1011
     39 H11         5.0179   -2.4547    3.5024 H         1 <0>         0.1005
     40 H12         7.2650   -2.6906    4.9712 H         1 <0>         0.4042
     41 H13         7.0193   -5.0974    5.2958 H         1 <0>         0.1166
     42 H14         6.6046   -7.5155    5.0860 H         1 <0>         0.1228
     43 H15         8.0565   -8.8938    3.6522 H         1 <0>         0.1229
     44 H16         9.9224   -7.8538    2.4276 H         1 <0>         0.1244
     45 H17        10.3319   -5.4343    2.6308 H         1 <0>         0.1230
     46 H18         7.9519   -3.4852    6.6105 H         1 <0>         0.1298
     47 H19         9.1682   -3.0403    8.7045 H         1 <0>         0.1374
     48 H20        12.8208   -2.7464    6.5183 H         1 <0>         0.1381
     49 H21        11.6044   -3.2022    4.4267 H         1 <0>         0.1360
@<TRIPOS>BOND
     1    1    6 ar
     2    1    2 ar
     3    1   30 1
     4    2    3 ar
     5    2   31 1
     6    3    4 ar
     7    3   32 1
     8    4    5 ar
     9    4    7 1
    10    5    6 ar
    11    5   33 1
    12    6   34 1
    13    7    8 1
    14    7   35 1
    15    7   36 1
    16    8    9 2
    17    8   10 am
    18   10   11 1
    19   10   37 1
    20   11   12 1
    21   11   38 1
    22   11   39 1
    23   12   13 2
    24   12   14 am
    25   14   15 1
    26   14   40 1
    27   15   16 1
    28   15   17 1
    29   15   23 1
    30   17   22 ar
    31   17   18 ar
    32   18   19 ar
    33   18   41 1
    34   19   20 ar
    35   19   42 1
    36   20   21 ar
    37   20   43 1
    38   21   22 ar
    39   21   44 1
    40   22   45 1
    41   23   28 ar
    42   23   24 ar
    43   24   25 ar
    44   24   46 1
    45   25   26 ar
    46   25   47 1
    47   26   27 ar
    48   26   29 1
    49   27   28 ar
    50   27   48 1
    51   28   49 1
@<TRIPOS>MOLECULE
ZINC40916008
   46    48     0     0     0
SMALL
USER_CHARGES

@<TRIPOS>ATOM
      1 C1         -0.0167    1.3781    0.0096 C.ar      1 <0>        -0.1153
      2 C2          1.1709    2.0855    0.0021 C.ar      1 <0>        -0.1172
      3 C3          2.3773    1.4107   -0.0130 C.ar      1 <0>        -0.0999
      4 C4          2.3960    0.0285   -0.0201 C.ar      1 <0>        -0.0953
      5 C5          1.2084   -0.6789   -0.0117 C.ar      1 <0>        -0.1035
      6 C6          0.0021   -0.0041    0.0020 C.ar      1 <0>        -0.1195
      7 C7          3.7112   -0.7071   -0.0376 C.3       1 <0>         0.2319
      8 H1          4.4960   -0.0399   -0.3940 H         1 <0>         0.1098
      9 C8          4.0438   -1.1746    1.3559 C.ar      1 <0>        -0.0865
     10 C9          3.4553   -2.3197    1.8594 C.ar      1 <0>        -0.0989
     11 C10         3.7599   -2.7490    3.1374 C.ar      1 <0>        -0.1041
     12 C11         4.6540   -2.0325    3.9128 C.ar      1 <0>        -0.0307
     13 C12         5.2427   -0.8866    3.4084 C.ar      1 <0>        -0.1041
     14 C13         4.9415   -0.4614    2.1282 C.ar      1 <0>        -0.0897
     15 Cl1         5.0367   -2.5708    5.5182 Cl        1 <0>        -0.0640
     16 N1          3.6115   -1.8645   -0.9302 N.am      1 <0>        -0.7190
     17 C14         3.8246   -1.7159   -2.2527 C.2       1 <0>         0.5155
     18 O1          4.0988   -0.6240   -2.7038 O.2       1 <0>        -0.5265
     19 C15         3.7220   -2.9064   -3.1709 C.3       1 <0>         0.1005
     20 N2          3.9952   -2.4864   -4.5475 N.am      1 <0>        -0.7163
     21 C16         3.9597   -3.3895   -5.5473 C.2       1 <0>         0.5640
     22 O2          3.7010   -4.5526   -5.3068 O.2       1 <0>        -0.5350
     23 C17         4.2354   -2.9656   -6.9366 C.ar      1 <0>        -0.1383
     24 C18         4.5384   -1.6319   -7.2154 C.ar      1 <0>        -0.0846
     25 C19         4.7951   -1.2430   -8.5139 C.ar      1 <0>        -0.1271
     26 C20         4.7522   -2.1716   -9.5387 C.ar      1 <0>        -0.0910
     27 C21         4.4520   -3.4951   -9.2692 C.ar      1 <0>        -0.1280
     28 C22         4.1994   -3.8984   -7.9743 C.ar      1 <0>        -0.0581
     29 H2         -0.9591    1.9053    0.0259 H         1 <0>         0.1228
     30 H3          1.1563    3.1654    0.0076 H         1 <0>         0.1244
     31 H4          3.3051    1.9634   -0.0196 H         1 <0>         0.1230
     32 H5          1.2231   -1.7588   -0.0176 H         1 <0>         0.1168
     33 H6         -0.9258   -0.5567    0.0082 H         1 <0>         0.1229
     34 H7          2.7571   -2.8788    1.2541 H         1 <0>         0.1299
     35 H8          3.2998   -3.6435    3.5307 H         1 <0>         0.1375
     36 H9          5.9405   -0.3266    4.0133 H         1 <0>         0.1381
     37 H10         5.4046    0.4305    1.7325 H         1 <0>         0.1359
     38 H11         3.3922   -2.7378   -0.5694 H         1 <0>         0.4045
     39 H12         4.4490   -3.6609   -2.8702 H         1 <0>         0.1039
     40 H13         2.7176   -3.3257   -3.1115 H         1 <0>         0.1032
     41 H14         4.2017   -1.5582   -4.7395 H         1 <0>         0.4124
     42 H15         4.5715   -0.9060   -6.4164 H         1 <0>         0.1274
     43 H16         5.0298   -0.2114   -8.7310 H         1 <0>         0.1306
     44 H17         4.9536   -1.8619  -10.5536 H         1 <0>         0.1289
     45 H18         4.4198   -4.2149  -10.0737 H         1 <0>         0.1317
     46 H19         3.9700   -4.9327   -7.7645 H         1 <0>         0.1371
@<TRIPOS>BOND
     1    1    6 ar
     2    1    2 ar
     3    1   29 1
     4    2    3 ar
     5    2   30 1
     6    3    4 ar
     7    3   31 1
     8    4    5 ar
     9    4    7 1
    10    5    6 ar
    11    5   32 1
    12    6   33 1
    13    7    8 1
    14    7    9 1
    15    7   16 1
    16    9   14 ar
    17    9   10 ar
    18   10   11 ar
    19   10   34 1
    20   11   12 ar
    21   11   35 1
    22   12   13 ar
    23   12   15 1
    24   13   14 ar
    25   13   36 1
    26   14   37 1
    27   16   17 am
    28   16   38 1
    29   17   18 2
    30   17   19 1
    31   19   20 1
    32   19   39 1
    33   19   40 1
    34   20   21 am
    35   20   41 1
    36   21   22 2
    37   21   23 1
    38   23   28 ar
    39   23   24 ar
    40   24   25 ar
    41   24   42 1
    42   25   26 ar
    43   25   43 1
    44   26   27 ar
    45   26   44 1
    46   27   28 ar
    47   27   45 1
    48   28   46 1
@<TRIPOS>MOLECULE
ZINC40916010
   46    48     0     0     0
SMALL
USER_CHARGES

@<TRIPOS>ATOM
      1 C1         -0.0167    1.3781    0.0096 C.ar      1 <0>        -0.1153
      2 C2          1.1709    2.0855    0.0021 C.ar      1 <0>        -0.1171
      3 C3          2.3773    1.4107   -0.0130 C.ar      1 <0>        -0.0999
      4 C4          2.3960    0.0285   -0.0201 C.ar      1 <0>        -0.0953
      5 C5          1.2084   -0.6789   -0.0117 C.ar      1 <0>        -0.1035
      6 C6          0.0021   -0.0041    0.0020 C.ar      1 <0>        -0.1194
      7 C7          3.7112   -0.7071   -0.0376 C.3       1 <0>         0.2319
      8 H1          4.5034   -0.0434    0.3089 H         1 <0>         0.1098
      9 C8          4.0144   -1.1607   -1.4423 C.ar      1 <0>        -0.0867
     10 C9          3.4067   -2.2944   -1.9487 C.ar      1 <0>        -0.0987
     11 C10         3.6845   -2.7109   -3.2370 C.ar      1 <0>        -0.1042
     12 C11         4.5709   -1.9929   -4.0199 C.ar      1 <0>        -0.0307
     13 C12         5.1788   -0.8583   -3.5126 C.ar      1 <0>        -0.1042
     14 C13         4.8959   -0.4396   -2.2261 C.ar      1 <0>        -0.0896
     15 Cl1         4.9207   -2.5157   -5.6379 Cl        1 <0>        -0.0640
     16 N1          3.6301   -1.8734    0.8453 N.am      1 <0>        -0.7190
     17 C14         3.8709   -1.7379    2.1645 C.2       1 <0>         0.5155
     18 O1          4.1546   -0.6506    2.6206 O.2       1 <0>        -0.5265
     19 C15         3.7875   -2.9376    3.0727 C.3       1 <0>         0.1005
     20 N2          4.0895   -2.5313    4.4475 N.am      1 <0>        -0.7162
     21 C16         4.0748   -3.4443    5.4387 C.2       1 <0>         0.5640
     22 O2          3.8110   -4.6050    5.1920 O.2       1 <0>        -0.5351
     23 C17         4.3796   -3.0343    6.8261 C.ar      1 <0>        -0.1383
     24 C18         4.6773   -1.7013    7.1136 C.ar      1 <0>        -0.0846
     25 C19         4.9603   -1.3252    8.4104 C.ar      1 <0>        -0.1271
     26 C20         4.9500   -2.2661    9.4247 C.ar      1 <0>        -0.0910
     27 C21         4.6562   -3.5892    9.1464 C.ar      1 <0>        -0.1280
     28 C22         4.3653   -3.9774    7.8549 C.ar      1 <0>        -0.0581
     29 H2         -0.9591    1.9053    0.0259 H         1 <0>         0.1228
     30 H3          1.1563    3.1654    0.0076 H         1 <0>         0.1244
     31 H4          3.3051    1.9634   -0.0196 H         1 <0>         0.1230
     32 H5          1.2231   -1.7588   -0.0176 H         1 <0>         0.1168
     33 H6         -0.9258   -0.5567    0.0082 H         1 <0>         0.1229
     34 H7          2.7151   -2.8550   -1.3373 H         1 <0>         0.1299
     35 H8          3.2099   -3.5969   -3.6323 H         1 <0>         0.1374
     36 H9          5.8710   -0.2976   -4.1231 H         1 <0>         0.1380
     37 H10         5.3667    0.4487   -1.8316 H         1 <0>         0.1359
     38 H11         3.4032   -2.7430    0.4805 H         1 <0>         0.4045
     39 H12         2.7820   -3.3563    3.0302 H         1 <0>         0.1032
     40 H13         4.5079   -3.6889    2.7493 H         1 <0>         0.1039
     41 H14         4.3000   -1.6051    4.6443 H         1 <0>         0.4124
     42 H15         4.6863   -0.9660    6.3226 H         1 <0>         0.1274
     43 H16         5.1908   -0.2941    8.6342 H         1 <0>         0.1306
     44 H17         5.1727   -1.9665   10.4382 H         1 <0>         0.1289
     45 H18         4.6502   -4.3188    9.9426 H         1 <0>         0.1317
     46 H19         4.1314   -5.0095    7.6397 H         1 <0>         0.1371
@<TRIPOS>BOND
     1    1    6 ar
     2    1    2 ar
     3    1   29 1
     4    2    3 ar
     5    2   30 1
     6    3    4 ar
     7    3   31 1
     8    4    5 ar
     9    4    7 1
    10    5    6 ar
    11    5   32 1
    12    6   33 1
    13    7    8 1
    14    7    9 1
    15    7   16 1
    16    9   14 ar
    17    9   10 ar
    18   10   11 ar
    19   10   34 1
    20   11   12 ar
    21   11   35 1
    22   12   13 ar
    23   12   15 1
    24   13   14 ar
    25   13   36 1
    26   14   37 1
    27   16   17 am
    28   16   38 1
    29   17   18 2
    30   17   19 1
    31   19   20 1
    32   19   39 1
    33   19   40 1
    34   20   21 am
    35   20   41 1
    36   21   22 2
    37   21   23 1
    38   23   28 ar
    39   23   24 ar
    40   24   25 ar
    41   24   42 1
    42   25   26 ar
    43   25   43 1
    44   26   27 ar
    45   26   44 1
    46   27   28 ar
    47   27   45 1
    48   28   46 1
@<TRIPOS>MOLECULE
ZINC25448987
   50    52     0     0     0
SMALL
USER_CHARGES
4-fluoro-N-[2-[[(S)-(4-methoxyphenyl)-phenyl-methyl]amino]-2-oxo-ethyl]benzamide
@<TRIPOS>ATOM
      1 C1         -4.1707    3.3556   -4.5063 C.3       1 <0>         0.0225
      2 O1         -2.7425    3.3673   -4.5533 O.3       1 <0>        -0.3160
      3 C2         -2.0852    2.9180   -3.4520 C.ar      1 <0>         0.1330
      4 C3         -0.6982    2.9016   -3.4291 C.ar      1 <0>        -0.1461
      5 C4         -0.0324    2.4440   -2.3085 C.ar      1 <0>        -0.0627
      6 C5         -0.7472    2.0020   -1.2106 C.ar      1 <0>        -0.1262
      7 C6         -2.1297    2.0120   -1.2331 C.ar      1 <0>        -0.0697
      8 C7         -2.8002    2.4744   -2.3489 C.ar      1 <0>        -0.2031
      9 C8         -0.0184    1.5028    0.0103 C.3       1 <0>         0.2380
     10 H1          1.0084    1.8971    0.0279 H         1 <0>         0.1056
     11 C9          0.0021   -0.0041    0.0020 C.ar      1 <0>        -0.0898
     12 C10        -1.1074   -0.7127    0.4236 C.ar      1 <0>        -0.1040
     13 C11        -1.0902   -2.0949    0.4119 C.ar      1 <0>        -0.1206
     14 C12         0.0399   -2.7685   -0.0124 C.ar      1 <0>        -0.1180
     15 C13         1.1511   -2.0599   -0.4295 C.ar      1 <0>        -0.1174
     16 C14         1.1323   -0.6777   -0.4219 C.ar      1 <0>        -0.1018
     17 N1         -0.7041    1.9752    1.2156 N.am      1 <0>        -0.7300
     18 C15        -0.0225    2.1068    2.3709 C.2       1 <0>         0.5170
     19 O2          1.1585    1.8342    2.4126 O.2       1 <0>        -0.5345
     20 C16        -0.7279    2.5929    3.6107 C.3       1 <0>         0.1023
     21 N2          0.2234    2.6489    4.7235 N.am      1 <0>        -0.7270
     22 C17        -0.1864    3.0582    5.9404 C.2       1 <0>         0.5658
     23 O3         -1.3455    3.3808    6.1148 O.2       1 <0>        -0.5390
     24 C18         0.7728    3.1147    7.0625 C.ar      1 <0>        -0.1467
     25 C19         2.1035    2.7392    6.8664 C.ar      1 <0>        -0.0545
     26 C20         2.9957    2.7998    7.9152 C.ar      1 <0>        -0.1605
     27 C21         2.5713    3.2208    9.1663 C.ar      1 <0>         0.1271
     28 C22         1.2499    3.5893    9.3679 C.ar      1 <0>        -0.1613
     29 C23         0.3508    3.5384    8.3245 C.ar      1 <0>        -0.0292
     30 F1          3.4486    3.2725   10.1924 F         1 <0>        -0.1324
     31 H2         -4.5719    3.7418   -5.4549 H         1 <0>         0.1038
     32 H3         -4.5155    3.9905   -3.6768 H         1 <0>         0.0579
     33 H4         -4.5240    2.3255   -4.3510 H         1 <0>         0.0577
     34 H5         -0.1394    3.2468   -4.2864 H         1 <0>         0.1345
     35 H6          1.0474    2.4310   -2.2902 H         1 <0>         0.1323
     36 H7         -2.6858    1.6618   -0.3760 H         1 <0>         0.1231
     37 H8         -3.8800    2.4865   -2.3642 H         1 <0>         0.1312
     38 H9         -1.9889   -0.1864    0.7590 H         1 <0>         0.1160
     39 H10        -1.9585   -2.6485    0.7374 H         1 <0>         0.1213
     40 H11         0.0545   -3.8484   -0.0184 H         1 <0>         0.1216
     41 H12         2.0340   -2.5861   -0.7610 H         1 <0>         0.1233
     42 H13         2.0006   -0.1240   -0.7474 H         1 <0>         0.1220
     43 H14        -1.7753    2.2225    1.1778 H         1 <0>         0.4229
     44 H15        -1.1390    3.5968    3.4288 H         1 <0>         0.1013
     45 H16        -1.5459    1.9017    3.8620 H         1 <0>         0.1006
     46 H17         1.2721    2.3569    4.5658 H         1 <0>         0.4341
     47 H18         2.4339    2.4063    5.8936 H         1 <0>         0.1383
     48 H19         4.0262    2.5143    7.7635 H         1 <0>         0.1443
     49 H20         0.9247    3.9171   10.3442 H         1 <0>         0.1449
     50 H21        -0.6782    3.8259    8.4825 H         1 <0>         0.1478
@<TRIPOS>BOND
     1    1    2 1
     2    1   31 1
     3    1   32 1
     4    1   33 1
     5    2    3 1
     6    3    8 ar
     7    3    4 ar
     8    4    5 ar
     9    4   34 1
    10    5    6 ar
    11    5   35 1
    12    6    7 ar
    13    6    9 1
    14    7    8 ar
    15    7   36 1
    16    8   37 1
    17    9   10 1
    18    9   11 1
    19    9   17 1
    20   11   16 ar
    21   11   12 ar
    22   12   13 ar
    23   12   38 1
    24   13   14 ar
    25   13   39 1
    26   14   15 ar
    27   14   40 1
    28   15   16 ar
    29   15   41 1
    30   16   42 1
    31   17   18 am
    32   17   43 1
    33   18   19 2
    34   18   20 1
    35   20   21 1
    36   20   44 1
    37   20   45 1
    38   21   22 am
    39   21   46 1
    40   22   23 2
    41   22   24 1
    42   24   29 ar
    43   24   25 ar
    44   25   26 ar
    45   25   47 1
    46   26   27 ar
    47   26   48 1
    48   27   28 ar
    49   27   30 1
    50   28   29 ar
    51   28   49 1
    52   29   50 1
@<TRIPOS>MOLECULE
ZINC25448991
   50    52     0     0     0
SMALL
USER_CHARGES
4-fluoro-N-[2-[[(R)-(4-methoxyphenyl)-phenyl-methyl]amino]-2-oxo-ethyl]benzamide
@<TRIPOS>ATOM
      1 C1         -2.3918    4.2475    5.0497 C.3       1 <0>         0.0225
      2 O1         -2.6480    2.9018    4.6428 O.3       1 <0>        -0.3160
      3 C2         -2.0126    2.4638    3.5242 C.ar      1 <0>         0.1329
      4 C3         -2.2154    1.1680    3.0722 C.ar      1 <0>        -0.1460
      5 C4         -1.5680    0.7250    1.9351 C.ar      1 <0>        -0.0628
      6 C5         -0.7181    1.5718    1.2479 C.ar      1 <0>        -0.1261
      7 C6         -0.5098    2.8619    1.6995 C.ar      1 <0>        -0.0699
      8 C7         -1.1596    3.3117    2.8326 C.ar      1 <0>        -0.2029
      9 C8         -0.0127    1.0858    0.0080 C.3       1 <0>         0.2380
     10 H1          0.0314   -0.0133    0.0017 H         1 <0>         0.1056
     11 C9         -0.7416    1.5850   -1.2129 C.ar      1 <0>        -0.0897
     12 C10        -0.5514    2.8830   -1.6488 C.ar      1 <0>        -0.1039
     13 C11        -1.2166    3.3396   -2.7713 C.ar      1 <0>        -0.1206
     14 C12        -2.0790    2.5010   -3.4525 C.ar      1 <0>        -0.1180
     15 C13        -2.2732    1.2047   -3.0135 C.ar      1 <0>        -0.1175
     16 C14        -1.6046    0.7468   -1.8935 C.ar      1 <0>        -0.1018
     17 N1          1.3617    1.5929   -0.0024 N.am      1 <0>        -0.7300
     18 C15         2.3184    0.9327   -0.6846 C.2       1 <0>         0.5170
     19 O2          2.0415   -0.0811   -1.2899 O.2       1 <0>        -0.5345
     20 C16         3.7322    1.4544   -0.6953 C.3       1 <0>         0.1023
     21 N2          4.5743    0.5662   -1.5004 N.am      1 <0>        -0.7270
     22 C17         5.8859    0.8363   -1.6527 C.2       1 <0>         0.5658
     23 O3          6.3702    1.8170   -1.1220 O.2       1 <0>        -0.5390
     24 C18         6.7351   -0.0593   -2.4645 C.ar      1 <0>        -0.1467
     25 C19         6.1826   -1.1897   -3.0705 C.ar      1 <0>        -0.0546
     26 C20         6.9781   -2.0185   -3.8321 C.ar      1 <0>        -0.1605
     27 C21         8.3273   -1.7385   -3.9868 C.ar      1 <0>         0.1271
     28 C22         8.8822   -0.6207   -3.3826 C.ar      1 <0>        -0.1613
     29 C23         8.0944    0.2183   -2.6240 C.ar      1 <0>        -0.0292
     30 F1          9.1039   -2.5576   -4.7293 F         1 <0>        -0.1324
     31 H2         -2.9651    4.4702    5.9617 H         1 <0>         0.1038
     32 H3         -2.6954    4.9370    4.2482 H         1 <0>         0.0577
     33 H4         -1.3177    4.3711    5.2524 H         1 <0>         0.0579
     34 H5         -2.8787    0.5060    3.6091 H         1 <0>         0.1345
     35 H6         -1.7256   -0.2837    1.5829 H         1 <0>         0.1323
     36 H7          0.1582    3.5199    1.1636 H         1 <0>         0.1230
     37 H8         -1.0004    4.3210    3.1823 H         1 <0>         0.1312
     38 H9          0.1195    3.5393   -1.1144 H         1 <0>         0.1160
     39 H10        -1.0647    4.3522   -3.1145 H         1 <0>         0.1213
     40 H11        -2.6008    2.8585   -4.3279 H         1 <0>         0.1216
     41 H12        -2.9469    0.5495   -3.5457 H         1 <0>         0.1233
     42 H13        -1.7563   -0.2660   -1.5506 H         1 <0>         0.1220
     43 H14         1.6128    2.5125    0.5466 H         1 <0>         0.4229
     44 H15         3.7467    2.4655   -1.1283 H         1 <0>         0.1006
     45 H16         4.1173    1.4910    0.3344 H         1 <0>         0.1013
     46 H17         4.1361   -0.3211   -1.9806 H         1 <0>         0.4341
     47 H18         5.1329   -1.4115   -2.9464 H         1 <0>         0.1383
     48 H19         6.5509   -2.8904   -4.3051 H         1 <0>         0.1443
     49 H20         9.9335   -0.4068   -3.5069 H         1 <0>         0.1449
     50 H21         8.5275    1.0889   -2.1541 H         1 <0>         0.1478
@<TRIPOS>BOND
     1    1    2 1
     2    1   31 1
     3    1   32 1
     4    1   33 1
     5    2    3 1
     6    3    8 ar
     7    3    4 ar
     8    4    5 ar
     9    4   34 1
    10    5    6 ar
    11    5   35 1
    12    6    7 ar
    13    6    9 1
    14    7    8 ar
    15    7   36 1
    16    8   37 1
    17    9   10 1
    18    9   11 1
    19    9   17 1
    20   11   16 ar
    21   11   12 ar
    22   12   13 ar
    23   12   38 1
    24   13   14 ar
    25   13   39 1
    26   14   15 ar
    27   14   40 1
    28   15   16 ar
    29   15   41 1
    30   16   42 1
    31   17   18 am
    32   17   43 1
    33   18   19 2
    34   18   20 1
    35   20   21 1
    36   20   44 1
    37   20   45 1
    38   21   22 am
    39   21   46 1
    40   22   23 2
    41   22   24 1
    42   24   29 ar
    43   24   25 ar
    44   25   26 ar
    45   25   47 1
    46   26   27 ar
    47   26   48 1
    48   27   28 ar
    49   27   30 1
    50   28   29 ar
    51   28   49 1
    52   29   50 1
@<TRIPOS>MOLECULE
ZINC40943257
   56    59     0     0     0
SMALL
USER_CHARGES

@<TRIPOS>ATOM
      1 C1         -0.0657    1.5180    0.0218 C.3       1 <0>        -0.1178
      2 C2         -0.0150    0.0119    0.0136 C.ar      1 <0>        -0.0369
      3 C3          0.0185   -0.6716   -1.1884 C.ar      1 <0>        -0.1772
      4 C4          0.0647   -2.0534   -1.2004 C.ar      1 <0>        -0.0665
      5 C5          0.0779   -2.7559   -0.0113 C.ar      1 <0>        -0.2044
      6 C6          0.0448   -2.0727    1.1975 C.ar      1 <0>         0.2204
      7 C7          0.0037   -0.6840    1.2061 C.ar      1 <0>        -0.1988
      8 N1          0.0581   -2.7800    2.4019 N.pl3     1 <0>        -0.6298
      9 C8          0.1367   -2.0693    3.6859 C.3       1 <0>         0.1093
     10 C9         -1.0463   -2.5039    4.5599 C.3       1 <0>         0.0983
     11 N2         -1.1112   -3.9721    4.5658 N.am      1 <0>        -0.6042
     12 C10        -1.1898   -4.6829    3.2819 C.3       1 <0>         0.0828
     13 C11        -0.0125   -4.2479    2.4081 C.3       1 <0>         0.1101
     14 C12        -1.0984   -4.6546    5.7279 C.2       1 <0>         0.5738
     15 O1         -1.1077   -4.0546    6.7856 O.2       1 <0>        -0.5100
     16 C13        -1.0732   -6.1287    5.7169 C.ar      1 <0>        -0.1383
     17 C14        -2.0522   -6.8434    5.0216 C.ar      1 <0>        -0.0237
     18 C15        -2.0231   -8.2205    5.0152 C.ar      1 <0>        -0.0559
     19 C16        -1.0269   -8.9033    5.6955 C.ar      1 <0>        -0.0289
     20 C17        -0.0535   -8.2123    6.3870 C.ar      1 <0>        -0.1265
     21 C18        -0.0626   -6.8228    6.3999 C.ar      1 <0>         0.2757
     22 N3          0.9200   -6.1247    7.0897 N.pl3     1 <0>        -0.6830
     23 C19         0.7431   -5.7688    8.5066 C.3       1 <0>         0.1162
     24 C20         1.9912   -6.2151    9.2767 C.3       1 <0>         0.0456
     25 O2          3.1546   -5.6921    8.6312 O.3       1 <0>        -0.3771
     26 C21         3.3476   -6.1682    7.2971 C.3       1 <0>         0.0482
     27 C22         2.1714   -5.7244    6.4271 C.3       1 <0>         0.1109
     28 N4         -3.0615   -8.9754    4.2784 N.pl3     1 <0>         0.0331
     29 O3         -3.9321   -8.3831    3.6843 O.2       1 <0>        -0.1547
     30 O4         -3.0391  -10.1841    4.2706 O.3       1 <0>        -0.1489
     31 H1          0.9491    1.9157    0.0279 H         1 <0>         0.0719
     32 H2         -0.5881    1.8688   -0.8682 H         1 <0>         0.0680
     33 H3         -0.5949    1.8589    0.9117 H         1 <0>         0.0655
     34 H4          0.0083   -0.1247   -2.1196 H         1 <0>         0.1184
     35 H5          0.0900   -2.5840   -2.1407 H         1 <0>         0.1215
     36 H6          0.1136   -3.8353   -0.0214 H         1 <0>         0.1204
     37 H7         -0.0180   -0.1495    2.1443 H         1 <0>         0.1217
     38 H8          1.0724   -2.3196    4.1858 H         1 <0>         0.0672
     39 H9          0.0879   -0.9942    3.5125 H         1 <0>         0.0986
     40 H10        -0.9026   -2.1400    5.5772 H         1 <0>         0.1052
     41 H11        -1.9717   -2.0985    4.1509 H         1 <0>         0.0769
     42 H12        -1.1410   -5.7579    3.4552 H         1 <0>         0.0922
     43 H13        -2.1255   -4.4325    2.7819 H         1 <0>         0.0833
     44 H14        -0.1598   -4.6113    1.3911 H         1 <0>         0.0985
     45 H15         0.9123   -4.6569    2.8150 H         1 <0>         0.0653
     46 H16        -2.8309   -6.3166    4.4901 H         1 <0>         0.1588
     47 H17        -1.0128   -9.9831    5.6844 H         1 <0>         0.1614
     48 H18         0.7190   -8.7517    6.9148 H         1 <0>         0.1546
     49 H19         0.6195   -4.6900    8.6014 H         1 <0>         0.0744
     50 H20        -0.1354   -6.2760    8.9056 H         1 <0>         0.0793
     51 H21         1.9420   -5.8395   10.2988 H         1 <0>         0.1040
     52 H22         2.0407   -7.3039    9.2901 H         1 <0>         0.0532
     53 H23         4.2744   -5.7589    6.8949 H         1 <0>         0.1030
     54 H24         3.4021   -7.2568    7.3033 H         1 <0>         0.0543
     55 H25         2.2384   -6.2022    5.4497 H         1 <0>         0.0776
     56 H26         2.1941   -4.6410    6.3091 H         1 <0>         0.0632
@<TRIPOS>BOND
     1    1    2 1
     2    1   31 1
     3    1   32 1
     4    1   33 1
     5    2    7 ar
     6    2    3 ar
     7    3    4 ar
     8    3   34 1
     9    4    5 ar
    10    4   35 1
    11    5    6 ar
    12    5   36 1
    13    6    7 ar
    14    6    8 1
    15    7   37 1
    16    8   13 1
    17    8    9 1
    18    9   10 1
    19    9   38 1
    20    9   39 1
    21   10   11 1
    22   10   40 1
    23   10   41 1
    24   11   12 1
    25   11   14 am
    26   12   13 1
    27   12   42 1
    28   12   43 1
    29   13   44 1
    30   13   45 1
    31   14   15 2
    32   14   16 1
    33   16   21 ar
    34   16   17 ar
    35   17   18 ar
    36   17   46 1
    37   18   19 ar
    38   18   28 1
    39   19   20 ar
    40   19   47 1
    41   20   21 ar
    42   20   48 1
    43   21   22 1
    44   22   27 1
    45   22   23 1
    46   23   24 1
    47   23   49 1
    48   23   50 1
    49   24   25 1
    50   24   51 1
    51   24   52 1
    52   25   26 1
    53   26   27 1
    54   26   53 1
    55   26   54 1
    56   27   55 1
    57   27   56 1
    58   28   29 2
    59   28   30 1
@<TRIPOS>MOLECULE
ZINC45496532
   53    56     0     0     0
SMALL
USER_CHARGES

@<TRIPOS>ATOM
      1 C1         -0.1088    1.3748    0.0185 C.ar      1 <0>        -0.1090
      2 C2          1.0692    2.0994    0.0180 C.ar      1 <0>        -0.1090
      3 C3          2.2872    1.4450    0.0078 C.ar      1 <0>        -0.1077
      4 C4          2.3309    0.0636   -0.0020 C.ar      1 <0>        -0.0425
      5 C5          1.1487   -0.6671   -0.0010 C.ar      1 <0>         0.1757
      6 C6         -0.0726   -0.0059    0.0092 C.ar      1 <0>        -0.1124
      7 N1          1.1887   -2.0640   -0.0113 N.pl3     1 <0>        -0.6711
      8 C7          1.2106   -2.8210    1.2482 C.3       1 <0>         0.1353
      9 C8          0.0446   -3.8173    1.2415 C.3       1 <0>         0.0982
     10 N2          0.0650   -4.5556   -0.0290 N.am      1 <0>        -0.6020
     11 C9          0.0431   -3.7987   -1.2885 C.3       1 <0>         0.0867
     12 C10         1.2035   -2.8025   -1.2819 C.3       1 <0>         0.1360
     13 C11         0.1036   -5.9028   -0.0389 C.2       1 <0>         0.5731
     14 O1          0.2266   -6.5153    1.0044 O.2       1 <0>        -0.5118
     15 C12        -0.0033   -6.6340   -1.3147 C.ar      1 <0>        -0.1377
     16 C13        -1.0808   -6.3975   -2.1724 C.ar      1 <0>        -0.0204
     17 C14        -1.1750   -7.0839   -3.3630 C.ar      1 <0>        -0.0565
     18 C15        -0.2056   -8.0096   -3.7164 C.ar      1 <0>        -0.0296
     19 C16         0.8640   -8.2547   -2.8804 C.ar      1 <0>        -0.1274
     20 C17         0.9796   -7.5675   -1.6781 C.ar      1 <0>         0.2754
     21 N3          2.0590   -7.8076   -0.8378 N.pl3     1 <0>        -0.6825
     22 C18         1.9973   -8.8546    0.1943 C.3       1 <0>         0.1168
     23 C19         3.2434   -9.7377    0.0623 C.3       1 <0>         0.0456
     24 O2          4.4092   -8.9102    0.0662 O.3       1 <0>        -0.3772
     25 C20         4.4810   -7.9950   -1.0297 C.3       1 <0>         0.0483
     26 C21         3.3003   -7.0265   -0.9574 C.3       1 <0>         0.1112
     27 N4         -2.3176   -6.8321   -4.2695 N.pl3     1 <0>         0.0336
     28 O3         -3.1651   -6.0257   -3.9643 O.2       1 <0>        -0.1552
     29 O4         -2.4034   -7.4327   -5.3153 O.3       1 <0>        -0.1505
     30 Cl1         3.8604   -0.7575   -0.0160 Cl        1 <0>        -0.0630
     31 H1         -1.0583    1.8892    0.0307 H         1 <0>         0.1302
     32 H2          1.0376    3.1789    0.0253 H         1 <0>         0.1326
     33 H3          3.2052    2.0139    0.0070 H         1 <0>         0.1335
     34 H4         -0.9931   -0.5707    0.0099 H         1 <0>         0.1303
     35 H5          2.1533   -3.3616    1.3337 H         1 <0>         0.0598
     36 H6          1.1015   -2.1357    2.0888 H         1 <0>         0.0835
     37 H7          0.1547   -4.5149    2.0718 H         1 <0>         0.1011
     38 H8         -0.8979   -3.2780    1.3361 H         1 <0>         0.0736
     39 H9          0.1522   -4.4839   -2.1291 H         1 <0>         0.0855
     40 H10        -0.8995   -3.2581   -1.3741 H         1 <0>         0.0784
     41 H11         1.0896   -2.1051   -2.1118 H         1 <0>         0.0836
     42 H12         2.1456   -3.3418   -1.3806 H         1 <0>         0.0577
     43 H13        -1.8392   -5.6777   -1.9020 H         1 <0>         0.1578
     44 H14        -0.2885   -8.5426   -4.6520 H         1 <0>         0.1606
     45 H15         1.6149   -8.9777   -3.1628 H         1 <0>         0.1539
     46 H16         1.9760   -8.3951    1.1825 H         1 <0>         0.0745
     47 H17         1.1019   -9.4593    0.0507 H         1 <0>         0.0787
     48 H18         3.2875  -10.4328    0.9007 H         1 <0>         0.1035
     49 H19         3.1964  -10.2962   -0.8726 H         1 <0>         0.0529
     50 H20         5.4155   -7.4364   -0.9770 H         1 <0>         0.1026
     51 H21         4.4385   -8.5472   -1.9686 H         1 <0>         0.0539
     52 H22         3.2674   -6.4212   -1.8633 H         1 <0>         0.0776
     53 H23         3.4125   -6.3799   -0.0871 H         1 <0>         0.0639
@<TRIPOS>BOND
     1    1    6 ar
     2    1    2 ar
     3    1   31 1
     4    2    3 ar
     5    2   32 1
     6    3    4 ar
     7    3   33 1
     8    4    5 ar
     9    4   30 1
    10    5    6 ar
    11    5    7 1
    12    6   34 1
    13    7   12 1
    14    7    8 1
    15    8    9 1
    16    8   35 1
    17    8   36 1
    18    9   10 1
    19    9   37 1
    20    9   38 1
    21   10   11 1
    22   10   13 am
    23   11   12 1
    24   11   39 1
    25   11   40 1
    26   12   41 1
    27   12   42 1
    28   13   14 2
    29   13   15 1
    30   15   20 ar
    31   15   16 ar
    32   16   17 ar
    33   16   43 1
    34   17   18 ar
    35   17   27 1
    36   18   19 ar
    37   18   44 1
    38   19   20 ar
    39   19   45 1
    40   20   21 1
    41   21   26 1
    42   21   22 1
    43   22   23 1
    44   22   46 1
    45   22   47 1
    46   23   24 1
    47   23   48 1
    48   23   49 1
    49   24   25 1
    50   25   26 1
    51   25   50 1
    52   25   51 1
    53   26   52 1
    54   26   53 1
    55   27   28 2
    56   27   29 1
@<TRIPOS>MOLECULE
ZINC40957260
   53    55     0     0     0
SMALL
USER_CHARGES

@<TRIPOS>ATOM
      1 C1         -0.0305    1.6150   -0.0557 C.3       1 <0>        -0.2010
      2 C2         -0.0157    0.1081   -0.0447 C.2       1 <0>         0.3942
      3 O1         -0.0035   -0.4906    1.0103 O.2       1 <0>        -0.4512
      4 C3         -0.0161   -0.6350   -1.3101 C.ar      1 <0>        -0.1467
      5 C4         -0.0244    0.0545   -2.5294 C.ar      1 <0>        -0.0757
      6 C5         -0.0248   -0.6373   -3.7065 C.ar      1 <0>        -0.1093
      7 C6         -0.0174   -2.0295   -3.7018 C.ar      1 <0>         0.1691
      8 C7         -0.0091   -2.7266   -2.4936 C.ar      1 <0>         0.0815
      9 C8         -0.0023   -2.0363   -1.3020 C.ar      1 <0>        -0.0920
     10 F1         -0.0019   -4.0776   -2.4924 F         1 <0>        -0.1292
     11 N1         -0.0188   -2.7268   -4.9046 N.pl3     1 <0>        -0.6745
     12 C9         -1.2846   -3.1034   -5.5494 C.3       1 <0>         0.1319
     13 C10        -1.2880   -2.5531   -6.9810 C.3       1 <0>         0.0987
     14 N2         -0.0237   -2.9265   -7.6306 N.am      1 <0>        -0.6040
     15 C11         1.2422   -2.5499   -6.9858 C.3       1 <0>         0.0874
     16 C12         1.2455   -3.0953   -5.5570 C.3       1 <0>         0.1323
     17 C13        -0.0250   -3.6025   -8.7966 C.2       1 <0>         0.5744
     18 O2         -1.0732   -3.9996   -9.2679 O.2       1 <0>        -0.5116
     19 C14         1.2445   -3.8604   -9.5006 C.ar      1 <0>        -0.1415
     20 C15         2.1026   -2.8028   -9.8131 C.ar      1 <0>        -0.0207
     21 C16         3.2872   -3.0504  -10.4710 C.ar      1 <0>        -0.0580
     22 C17         3.6341   -4.3447  -10.8257 C.ar      1 <0>        -0.0296
     23 C18         2.7975   -5.3996  -10.5248 C.ar      1 <0>        -0.1271
     24 C19         1.6012   -5.1704   -9.8560 C.ar      1 <0>         0.2739
     25 N3          0.7605   -6.2314   -9.5459 N.pl3     1 <0>        -0.6883
     26 C20         0.9068   -6.9327   -8.2680 C.3       1 <0>         0.1159
     27 C21        -0.2727   -6.6493  -10.4968 C.3       1 <0>         0.1234
     28 N4          4.1943   -1.9284  -10.8013 N.pl3     1 <0>         0.0340
     29 O3          3.8947   -0.7982  -10.4937 O.2       1 <0>        -0.1561
     30 O4          5.2348   -2.1421  -11.3787 O.3       1 <0>        -0.1508
     31 H1          0.9935    1.9884   -0.0646 H         1 <0>         0.1011
     32 H2         -0.5532    1.9667   -0.9452 H         1 <0>         0.0883
     33 H3         -0.5426    1.9799    0.8347 H         1 <0>         0.0913
     34 H4         -0.0309    1.1345   -2.5384 H         1 <0>         0.1428
     35 H5         -0.0313   -0.1025   -4.6448 H         1 <0>         0.1394
     36 H6          0.0090   -2.5728   -0.3648 H         1 <0>         0.1471
     37 H7         -1.3733   -4.1895   -5.5747 H         1 <0>         0.0617
     38 H8         -2.1195   -2.6785   -4.9922 H         1 <0>         0.0856
     39 H9         -2.1239   -2.9801   -7.5351 H         1 <0>         0.1028
     40 H10        -1.3794   -1.4673   -6.9553 H         1 <0>         0.0753
     41 H11         2.0771   -2.9748   -7.5429 H         1 <0>         0.0880
     42 H12         1.3309   -1.4639   -6.9604 H         1 <0>         0.0799
     43 H13         2.0811   -2.6651   -5.0048 H         1 <0>         0.0858
     44 H14         1.3410   -4.1808   -5.5829 H         1 <0>         0.0605
     45 H15         1.8372   -1.7924   -9.5394 H         1 <0>         0.1575
     46 H16         4.5651   -4.5285  -11.3414 H         1 <0>         0.1607
     47 H17         3.0750   -6.4050  -10.8050 H         1 <0>         0.1558
     48 H18         0.2791   -6.4535   -7.5167 H         1 <0>         0.0369
     49 H19         0.6016   -7.9723   -8.3871 H         1 <0>         0.0685
     50 H20         1.9485   -6.8940   -7.9495 H         1 <0>         0.0570
     51 H21        -0.2290   -6.0156  -11.3826 H         1 <0>         0.0625
     52 H22        -0.1039   -7.6872  -10.7838 H         1 <0>         0.0477
     53 H23        -1.2539   -6.5560  -10.0313 H         1 <0>         0.0546
@<TRIPOS>BOND
     1    1    2 1
     2    1   31 1
     3    1   32 1
     4    1   33 1
     5    2    3 2
     6    2    4 1
     7    4    9 ar
     8    4    5 ar
     9    5    6 ar
    10    5   34 1
    11    6    7 ar
    12    6   35 1
    13    7    8 ar
    14    7   11 1
    15    8    9 ar
    16    8   10 1
    17    9   36 1
    18   11   16 1
    19   11   12 1
    20   12   13 1
    21   12   37 1
    22   12   38 1
    23   13   14 1
    24   13   39 1
    25   13   40 1
    26   14   15 1
    27   14   17 am
    28   15   16 1
    29   15   41 1
    30   15   42 1
    31   16   43 1
    32   16   44 1
    33   17   18 2
    34   17   19 1
    35   19   24 ar
    36   19   20 ar
    37   20   21 ar
    38   20   45 1
    39   21   22 ar
    40   21   28 1
    41   22   23 ar
    42   22   46 1
    43   23   24 ar
    44   23   47 1
    45   24   25 1
    46   25   26 1
    47   25   27 1
    48   26   48 1
    49   26   49 1
    50   26   50 1
    51   27   51 1
    52   27   52 1
    53   27   53 1
    54   28   29 2
    55   28   30 1
@<TRIPOS>MOLECULE
ZINC09635673
   57    60     0     0     0
SMALL
USER_CHARGES
[4-(4-methoxyphenyl)piperazin-1-yl]-(2-morpholino-5-nitro-phenyl)-methanone
@<TRIPOS>ATOM
      1 C1         -9.4361   -5.1239    3.7796 C.3       1 <0>         0.0271
      2 O1         -9.1627   -4.2234    4.8550 O.3       1 <0>        -0.3182
      3 C2         -7.9919   -3.5337    4.8003 C.ar      1 <0>         0.1067
      4 C3         -7.6643   -2.6429    5.8118 C.ar      1 <0>        -0.1255
      5 C4         -6.4757   -1.9418    5.7569 C.ar      1 <0>        -0.0960
      6 C5         -5.6083   -2.1291    4.6888 C.ar      1 <0>         0.0701
      7 C6         -5.9395   -3.0171    3.6739 C.ar      1 <0>        -0.1274
      8 C7         -7.1258   -3.7217    3.7334 C.ar      1 <0>        -0.1815
      9 N1         -4.4037   -1.4191    4.6323 N.pl3     1 <0>        -0.4830
     10 C8         -3.6433   -1.7677    3.4248 C.3       1 <0>         0.0357
     11 C9         -2.2597   -1.1122    3.4895 C.3       1 <0>         0.1171
     12 N2         -2.4361    0.3299    3.7186 N.am      1 <0>        -0.6123
     13 C10        -3.2939    0.7574    4.8343 C.3       1 <0>         0.1005
     14 C11        -4.6415    0.0283    4.7130 C.3       1 <0>         0.0411
     15 C12        -1.8236    1.2356    2.9306 C.2       1 <0>         0.5701
     16 O2         -1.1737    0.8663    1.9714 O.2       1 <0>        -0.5009
     17 C13        -1.9414    2.6741    3.2315 C.ar      1 <0>        -0.1449
     18 C14        -3.2011    3.2706    3.3315 C.ar      1 <0>        -0.0058
     19 C15        -3.3043    4.6162    3.6073 C.ar      1 <0>        -0.0719
     20 C16        -2.1643    5.3829    3.7914 C.ar      1 <0>        -0.0078
     21 C17        -0.9135    4.8079    3.7007 C.ar      1 <0>        -0.1721
     22 C18        -0.7891    3.4520    3.4233 C.ar      1 <0>         0.2072
     23 N3          0.4688    2.8710    3.3305 N.pl3     1 <0>        -0.4792
     24 C19         1.5222    3.8964    3.3068 C.3       1 <0>         0.0067
     25 C20         2.8846    3.2169    3.1452 C.3       1 <0>         0.0621
     26 O3          3.0704    2.2730    4.2034 O.3       1 <0>        -0.3784
     27 C21         2.0624    1.2597    4.2546 C.3       1 <0>         0.0637
     28 C22         0.6918    1.9192    4.4286 C.3       1 <0>         0.0225
     29 N4         -4.6397    5.2469    3.7070 N.pl3     1 <0>         0.0315
     30 O4         -4.7346    6.4366    3.9504 O.2       1 <0>        -0.1545
     31 O5         -5.6435    4.5762    3.5459 O.3       1 <0>        -0.1598
     32 H1         -9.4657   -4.5705    2.8410 H         1 <0>         0.0549
     33 H2         -8.6526   -5.8802    3.7310 H         1 <0>         0.0551
     34 H3        -10.3984   -5.6078    3.9466 H         1 <0>         0.1010
     35 H4         -8.3390   -2.4974    6.6424 H         1 <0>         0.1344
     36 H5         -6.2207   -1.2482    6.5445 H         1 <0>         0.1330
     37 H6         -5.2676   -3.1598    2.8405 H         1 <0>         0.1293
     38 H7         -7.3815   -4.4157    2.9464 H         1 <0>         0.1291
     39 H8         -4.1751   -1.4084    2.5437 H         1 <0>         0.0527
     40 H9         -3.5305   -2.8502    3.3658 H         1 <0>         0.0988
     41 H10        -1.7345   -1.2717    2.5478 H         1 <0>         0.1033
     42 H11        -1.6841   -1.5452    4.3076 H         1 <0>         0.0821
     43 H12        -2.8188    0.5000    5.7809 H         1 <0>         0.0858
     44 H13        -3.4528    1.8345    4.7821 H         1 <0>         0.0909
     45 H14        -5.1594    0.3625    3.8140 H         1 <0>         0.0529
     46 H15        -5.2526    0.2483    5.5883 H         1 <0>         0.0991
     47 H16        -4.0927    2.6781    3.1886 H         1 <0>         0.1598
     48 H17        -2.2558    6.4372    4.0068 H         1 <0>         0.1617
     49 H18        -0.0302    5.4123    3.8451 H         1 <0>         0.1594
     50 H19         1.5040    4.4577    4.2409 H         1 <0>         0.0656
     51 H20         1.3522    4.5745    2.4705 H         1 <0>         0.1009
     52 H21         3.6731    3.9683    3.1851 H         1 <0>         0.1093
     53 H22         2.9222    2.7004    2.1860 H         1 <0>         0.0667
     54 H23         2.0754    0.6862    3.3278 H         1 <0>         0.0682
     55 H24         2.2568    0.5952    5.0965 H         1 <0>         0.1082
     56 H25        -0.0849    1.1547    4.4108 H         1 <0>         0.0920
     57 H26         0.6607    2.4485    5.3810 H         1 <0>         0.0626
@<TRIPOS>BOND
     1    1    2 1
     2    1   32 1
     3    1   33 1
     4    1   34 1
     5    2    3 1
     6    3    8 ar
     7    3    4 ar
     8    4    5 ar
     9    4   35 1
    10    5    6 ar
    11    5   36 1
    12    6    7 ar
    13    6    9 1
    14    7    8 ar
    15    7   37 1
    16    8   38 1
    17    9   14 1
    18    9   10 1
    19   10   11 1
    20   10   39 1
    21   10   40 1
    22   11   12 1
    23   11   41 1
    24   11   42 1
    25   12   13 1
    26   12   15 am
    27   13   14 1
    28   13   43 1
    29   13   44 1
    30   14   45 1
    31   14   46 1
    32   15   16 2
    33   15   17 1
    34   17   22 ar
    35   17   18 ar
    36   18   19 ar
    37   18   47 1
    38   19   20 ar
    39   19   29 1
    40   20   21 ar
    41   20   48 1
    42   21   22 ar
    43   21   49 1
    44   22   23 1
    45   23   28 1
    46   23   24 1
    47   24   25 1
    48   24   50 1
    49   24   51 1
    50   25   26 1
    51   25   52 1
    52   25   53 1
    53   26   27 1
    54   27   28 1
    55   27   54 1
    56   27   55 1
    57   28   56 1
    58   28   57 1
    59   29   30 2
    60   29   31 1
@<TRIPOS>MOLECULE
ZINC40976841
   53    56     0     0     0
SMALL
USER_CHARGES

@<TRIPOS>ATOM
      1 C1          1.2040   -0.6630    0.0258 C.ar      1 <0>        -0.1875
      2 C2          2.3882    0.0476    0.0194 C.ar      1 <0>        -0.0583
      3 C3          2.3664    1.4311   -0.0012 C.ar      1 <0>        -0.0911
      4 C4          1.1587    2.1065   -0.0153 C.ar      1 <0>        -0.0582
      5 C5         -0.0286    1.4010   -0.0094 C.ar      1 <0>        -0.1868
      6 C6         -0.0097    0.0124    0.0113 C.ar      1 <0>         0.2230
      7 N1         -1.2095   -0.7040    0.0173 N.pl3     1 <0>        -0.6265
      8 C7         -2.4981   -0.0042    0.1155 C.3       1 <0>         0.1077
      9 C8         -3.3750   -0.4231   -1.0710 C.3       1 <0>         0.0980
     10 N2         -3.3708   -1.8898   -1.1633 N.am      1 <0>        -0.6051
     11 C9         -2.0823   -2.5897   -1.2615 C.3       1 <0>         0.0826
     12 C10        -1.2056   -2.1704   -0.0806 C.3       1 <0>         0.1083
     13 C11        -4.5280   -2.5807   -1.1574 C.2       1 <0>         0.5744
     14 O1         -5.5899   -1.9882   -1.1502 O.2       1 <0>        -0.5088
     15 C12        -4.5064   -4.0549   -1.1599 C.ar      1 <0>        -0.1389
     16 C13        -3.8110   -4.7462   -2.1554 C.ar      1 <0>        -0.0239
     17 C14        -3.7947   -6.1236   -2.1522 C.ar      1 <0>        -0.0558
     18 C15        -4.4650   -6.8297   -1.1655 C.ar      1 <0>        -0.0286
     19 C16        -5.1564   -6.1619   -0.1760 C.ar      1 <0>        -0.1264
     20 C17        -5.1792   -4.7726   -0.1590 C.ar      1 <0>         0.2758
     21 N3         -5.8690   -4.0980    0.8399 N.pl3     1 <0>        -0.6832
     22 C18        -7.2892   -3.7490    0.6768 C.3       1 <0>         0.1162
     23 C19        -8.0497   -4.2241    1.9201 C.3       1 <0>         0.0455
     24 O2         -7.4020   -3.7183    3.0899 O.3       1 <0>        -0.3770
     25 C20        -6.0635   -4.1882    3.2673 C.3       1 <0>         0.0480
     26 C21        -5.2028   -3.7163    2.0953 C.3       1 <0>         0.1110
     27 N4         -3.0578   -6.8536   -3.2082 N.pl3     1 <0>         0.0329
     28 O3         -2.4724   -6.2409   -4.0705 O.2       1 <0>        -0.1544
     29 O4         -3.0414   -8.0625   -3.2084 O.3       1 <0>        -0.1487
     30 Cl1         3.8569    2.3211   -0.0087 Cl        1 <0>        -0.0769
     31 H1          1.2216   -1.7427    0.0377 H         1 <0>         0.1309
     32 H2          3.3322   -0.4770    0.0307 H         1 <0>         0.1330
     33 H3          1.1446    3.1863   -0.0306 H         1 <0>         0.1331
     34 H4         -0.9709    1.9287   -0.0200 H         1 <0>         0.1320
     35 H5         -2.9915   -0.2754    1.0488 H         1 <0>         0.0701
     36 H6         -2.3326    1.0728    0.0859 H         1 <0>         0.0998
     37 H7         -4.3941   -0.0692   -0.9156 H         1 <0>         0.1064
     38 H8         -2.9736    0.0025   -1.9908 H         1 <0>         0.0778
     39 H9         -2.2477   -3.6666   -1.2318 H         1 <0>         0.0934
     40 H10        -1.5888   -2.3184   -2.1948 H         1 <0>         0.0841
     41 H11        -0.1868   -2.5237   -0.2397 H         1 <0>         0.0993
     42 H12        -1.6049   -2.5995    0.8384 H         1 <0>         0.0682
     43 H13        -3.2873   -4.2012   -2.9269 H         1 <0>         0.1589
     44 H14        -4.4462   -7.9095   -1.1717 H         1 <0>         0.1615
     45 H15        -5.6764   -6.7194    0.5890 H         1 <0>         0.1547
     46 H16        -7.3923   -2.6688    0.5738 H         1 <0>         0.0744
     47 H17        -7.6890   -4.2426   -0.2090 H         1 <0>         0.0793
     48 H18        -9.0746   -3.8550    1.8831 H         1 <0>         0.1040
     49 H19        -8.0551   -5.3137    1.9493 H         1 <0>         0.0533
     50 H20        -5.6596   -3.7934    4.1995 H         1 <0>         0.1031
     51 H21        -6.0617   -5.2777    3.3014 H         1 <0>         0.0543
     52 H22        -4.2217   -4.1882    2.1484 H         1 <0>         0.0776
     53 H23        -5.0923   -2.6328    2.1376 H         1 <0>         0.0632
@<TRIPOS>BOND
     1    1    6 ar
     2    1    2 ar
     3    1   31 1
     4    2    3 ar
     5    2   32 1
     6    3    4 ar
     7    3   30 1
     8    4    5 ar
     9    4   33 1
    10    5    6 ar
    11    5   34 1
    12    6    7 1
    13    7   12 1
    14    7    8 1
    15    8    9 1
    16    8   35 1
    17    8   36 1
    18    9   10 1
    19    9   37 1
    20    9   38 1
    21   10   11 1
    22   10   13 am
    23   11   12 1
    24   11   39 1
    25   11   40 1
    26   12   41 1
    27   12   42 1
    28   13   14 2
    29   13   15 1
    30   15   20 ar
    31   15   16 ar
    32   16   17 ar
    33   16   43 1
    34   17   18 ar
    35   17   27 1
    36   18   19 ar
    37   18   44 1
    38   19   20 ar
    39   19   45 1
    40   20   21 1
    41   21   26 1
    42   21   22 1
    43   22   23 1
    44   22   46 1
    45   22   47 1
    46   23   24 1
    47   23   48 1
    48   23   49 1
    49   24   25 1
    50   25   26 1
    51   25   50 1
    52   25   51 1
    53   26   52 1
    54   26   53 1
    55   27   28 2
    56   27   29 1
@<TRIPOS>MOLECULE
ZINC40974944
   56    59     0     0     0
SMALL
USER_CHARGES

@<TRIPOS>ATOM
      1 C1         -0.3603   -1.1507    0.9006 C.3       1 <0>        -0.6514
      2 S1         -0.2439   -2.3080   -0.4914 S.o2      1 <0>         2.5009
      3 O1          0.5273   -3.4427   -0.1214 O.2       1 <0>        -0.9339
      4 O2         -1.5161   -2.4655   -1.1046 O.2       1 <0>        -0.9344
      5 C2          0.7348   -1.4721   -1.6947 C.ar      1 <0>        -0.7039
      6 C3          0.1239   -0.6649   -2.6406 C.ar      1 <0>         0.0376
      7 C4          0.8799   -0.0047   -3.5885 C.ar      1 <0>        -0.2310
      8 C5          2.2597   -0.1460   -3.5990 C.ar      1 <0>         0.2309
      9 C6          2.8815   -0.9612   -2.6437 C.ar      1 <0>        -0.1803
     10 C7          2.1047   -1.6197   -1.6872 C.ar      1 <0>         0.0418
     11 C8          4.3484   -1.1192   -2.6449 C.2       1 <0>         0.5730
     12 O3          4.9189   -1.4915   -3.6520 O.2       1 <0>        -0.5161
     13 N1          5.0560   -0.8509   -1.5296 N.am      1 <0>        -0.6032
     14 C9          6.5244   -0.9101   -1.5431 C.3       1 <0>         0.0966
     15 C10         7.0736    0.4351   -1.0520 C.3       1 <0>         0.1318
     16 N2          6.3906    0.7925    0.1992 N.pl3     1 <0>        -0.6756
     17 C11         4.9222    0.8517    0.2127 C.3       1 <0>         0.1308
     18 C12         4.3732   -0.4880   -0.2798 C.3       1 <0>         0.0784
     19 C13         7.1221    1.0699    1.3522 C.ar      1 <0>         0.1667
     20 C14         7.5261    2.3736    1.6210 C.ar      1 <0>        -0.0959
     21 C15         8.2487    2.6518    2.7595 C.ar      1 <0>        -0.0727
     22 C16         8.5771    1.6228    3.6469 C.ar      1 <0>         0.0008
     23 C17         8.1703    0.3129    3.3751 C.ar      1 <0>        -0.1030
     24 C18         7.4426    0.0418    2.2364 C.ar      1 <0>         0.0934
     25 F1          7.0442   -1.2223    1.9748 F         1 <0>        -0.1251
     26 C19         9.3290    1.9094    4.8314 C.1       1 <0>         0.2484
     27 N3          9.9254    2.1368    5.7711 N.1       1 <0>        -0.3999
     28 O4          3.0039    0.5017   -4.5301 O.3       1 <0>        -0.2875
     29 C20         2.3007    1.3145   -5.4719 C.3       1 <0>         0.0853
     30 C21         3.2995    1.9595   -6.4348 C.3       1 <0>        -0.1608
     31 C22         3.4102    3.4854   -6.4204 C.3       1 <0>        -0.1740
     32 C23         2.7329    2.7787   -7.5963 C.3       1 <0>        -0.1660
     33 H1          0.6395   -0.9316    1.2755 H         1 <0>         0.1319
     34 H2         -0.8335   -0.2273    0.5668 H         1 <0>         0.1328
     35 H3         -0.9567   -1.5977    1.6959 H         1 <0>         0.1351
     36 H4         -0.9502   -0.5516   -2.6366 H         1 <0>         0.1514
     37 H5          0.3964    0.6222   -4.3230 H         1 <0>         0.1460
     38 H6          2.5770   -2.2467   -0.9455 H         1 <0>         0.1539
     39 H7          6.8645   -1.7073   -0.8822 H         1 <0>         0.0754
     40 H8          6.8735   -1.0992   -2.5582 H         1 <0>         0.1018
     41 H9          8.1452    0.3490   -0.8722 H         1 <0>         0.0856
     42 H10         6.8866    1.2027   -1.8030 H         1 <0>         0.0639
     43 H11         4.5730    1.0407    1.2278 H         1 <0>         0.0858
     44 H12         4.5821    1.6489   -0.4482 H         1 <0>         0.0630
     45 H13         3.3021   -0.3984   -0.4609 H         1 <0>         0.0924
     46 H14         4.5566   -1.2545    0.4731 H         1 <0>         0.0815
     47 H15         7.2728    3.1687    0.9354 H         1 <0>         0.1446
     48 H16         8.5619    3.6644    2.9667 H         1 <0>         0.1422
     49 H17         8.4226   -0.4845    4.0584 H         1 <0>         0.1470
     50 H18         1.6010    0.6963   -6.0344 H         1 <0>         0.0751
     51 H19         1.7524    2.0932   -4.9417 H         1 <0>         0.0708
     52 H20         4.2108    1.3902   -6.6179 H         1 <0>         0.1199
     53 H21         2.7715    4.0298   -5.7248 H         1 <0>         0.0967
     54 H22         4.3945    3.9203   -6.5938 H         1 <0>         0.0999
     55 H23         3.2717    2.7485   -8.5433 H         1 <0>         0.1033
     56 H24         1.6486    2.8581   -7.6743 H         1 <0>         0.0982
@<TRIPOS>BOND
     1    1    2 1
     2    1   33 1
     3    1   34 1
     4    1   35 1
     5    2    3 2
     6    2    4 2
     7    2    5 1
     8    5   10 ar
     9    5    6 ar
    10    6    7 ar
    11    6   36 1
    12    7    8 ar
    13    7   37 1
    14    8    9 ar
    15    8   28 1
    16    9   10 ar
    17    9   11 1
    18   10   38 1
    19   11   12 2
    20   11   13 am
    21   13   18 1
    22   13   14 1
    23   14   15 1
    24   14   39 1
    25   14   40 1
    26   15   16 1
    27   15   41 1
    28   15   42 1
    29   16   17 1
    30   16   19 1
    31   17   18 1
    32   17   43 1
    33   17   44 1
    34   18   45 1
    35   18   46 1
    36   19   24 ar
    37   19   20 ar
    38   20   21 ar
    39   20   47 1
    40   21   22 ar
    41   21   48 1
    42   22   23 ar
    43   22   26 1
    44   23   24 ar
    45   23   49 1
    46   24   25 1
    47   26   27 3
    48   28   29 1
    49   29   30 1
    50   29   50 1
    51   29   51 1
    52   30   32 1
    53   30   31 1
    54   30   52 1
    55   31   32 1
    56   31   53 1
    57   31   54 1
    58   32   55 1
    59   32   56 1
@<TRIPOS>MOLECULE
ZINC15014954
   53    56     0     0     0
SMALL
USER_CHARGES
[4-(3-chlorophenyl)piperazin-1-yl]-(2-morpholino-5-nitro-phenyl)methanone
@<TRIPOS>ATOM
      1 C1         -7.1260   -3.7190    3.7344 C.ar      1 <0>        -0.0781
      2 C2         -5.9383   -3.0162    3.6740 C.ar      1 <0>        -0.1663
      3 C3         -5.6060   -2.1277    4.6887 C.ar      1 <0>         0.1222
      4 C4         -6.4744   -1.9411    5.7566 C.ar      1 <0>        -0.1317
      5 C5         -7.6634   -2.6436    5.8089 C.ar      1 <0>        -0.0084
      6 C6         -7.9888   -3.5318    4.7982 C.ar      1 <0>        -0.1345
      7 Cl1        -8.7499   -2.4117    7.1429 Cl        1 <0>        -0.0639
      8 N1         -4.4037   -1.4191    4.6323 N.pl3     1 <0>        -0.4852
      9 C7         -3.6433   -1.7677    3.4248 C.3       1 <0>         0.0351
     10 C8         -2.2597   -1.1122    3.4895 C.3       1 <0>         0.1169
     11 N2         -2.4361    0.3299    3.7186 N.am      1 <0>        -0.6133
     12 C9         -3.2939    0.7574    4.8343 C.3       1 <0>         0.1006
     13 C10        -4.6415    0.0283    4.7130 C.3       1 <0>         0.0410
     14 C11        -1.8236    1.2356    2.9306 C.2       1 <0>         0.5708
     15 O1         -1.1737    0.8663    1.9714 O.2       1 <0>        -0.4996
     16 C12        -1.9414    2.6741    3.2315 C.ar      1 <0>        -0.1455
     17 C13        -3.2011    3.2706    3.3315 C.ar      1 <0>        -0.0061
     18 C14        -3.3043    4.6162    3.6073 C.ar      1 <0>        -0.0717
     19 C15        -2.1643    5.3829    3.7914 C.ar      1 <0>        -0.0075
     20 C16        -0.9135    4.8079    3.7007 C.ar      1 <0>        -0.1719
     21 C17        -0.7891    3.4520    3.4233 C.ar      1 <0>         0.2074
     22 N3          0.4688    2.8710    3.3305 N.pl3     1 <0>        -0.4792
     23 C18         1.5222    3.8964    3.3068 C.3       1 <0>         0.0067
     24 C19         2.8846    3.2169    3.1452 C.3       1 <0>         0.0621
     25 O2          3.0704    2.2730    4.2034 O.3       1 <0>        -0.3783
     26 C20         2.0624    1.2597    4.2546 C.3       1 <0>         0.0636
     27 C21         0.6918    1.9192    4.4286 C.3       1 <0>         0.0225
     28 N4         -4.6397    5.2469    3.7070 N.pl3     1 <0>         0.0314
     29 O3         -4.7346    6.4366    3.9504 O.2       1 <0>        -0.1539
     30 O4         -5.6435    4.5762    3.5459 O.3       1 <0>        -0.1598
     31 H1         -7.3827   -4.4126    2.9474 H         1 <0>         0.1343
     32 H2         -5.2670   -3.1602    2.8404 H         1 <0>         0.1334
     33 H3         -6.2206   -1.2482    6.5453 H         1 <0>         0.1362
     34 H4         -8.9187   -4.0792    4.8406 H         1 <0>         0.1341
     35 H5         -4.1751   -1.4084    2.5437 H         1 <0>         0.0563
     36 H6         -3.5305   -2.8502    3.3658 H         1 <0>         0.1014
     37 H7         -1.7345   -1.2717    2.5478 H         1 <0>         0.1051
     38 H8         -1.6841   -1.5452    4.3076 H         1 <0>         0.0828
     39 H9         -2.8188    0.5000    5.7809 H         1 <0>         0.0867
     40 H10        -3.4528    1.8345    4.7821 H         1 <0>         0.0925
     41 H11        -5.1594    0.3625    3.8140 H         1 <0>         0.0564
     42 H12        -5.2526    0.2483    5.5883 H         1 <0>         0.1005
     43 H13        -4.0927    2.6781    3.1886 H         1 <0>         0.1597
     44 H14        -2.2558    6.4372    4.0068 H         1 <0>         0.1619
     45 H15        -0.0302    5.4123    3.8451 H         1 <0>         0.1596
     46 H16         1.5040    4.4577    4.2409 H         1 <0>         0.0657
     47 H17         1.3522    4.5745    2.4705 H         1 <0>         0.1010
     48 H18         3.6731    3.9683    3.1851 H         1 <0>         0.1095
     49 H19         2.9222    2.7004    2.1860 H         1 <0>         0.0668
     50 H20         2.0754    0.6862    3.3278 H         1 <0>         0.0682
     51 H21         2.2568    0.5952    5.0965 H         1 <0>         0.1082
     52 H22        -0.0849    1.1547    4.4108 H         1 <0>         0.0917
     53 H23         0.6607    2.4485    5.3810 H         1 <0>         0.0627
@<TRIPOS>BOND
     1    1    6 ar
     2    1    2 ar
     3    1   31 1
     4    2    3 ar
     5    2   32 1
     6    3    4 ar
     7    3    8 1
     8    4    5 ar
     9    4   33 1
    10    5    6 ar
    11    5    7 1
    12    6   34 1
    13    8   13 1
    14    8    9 1
    15    9   10 1
    16    9   35 1
    17    9   36 1
    18   10   11 1
    19   10   37 1
    20   10   38 1
    21   11   12 1
    22   11   14 am
    23   12   13 1
    24   12   39 1
    25   12   40 1
    26   13   41 1
    27   13   42 1
    28   14   15 2
    29   14   16 1
    30   16   21 ar
    31   16   17 ar
    32   17   18 ar
    33   17   43 1
    34   18   19 ar
    35   18   28 1
    36   19   20 ar
    37   19   44 1
    38   20   21 ar
    39   20   45 1
    40   21   22 1
    41   22   27 1
    42   22   23 1
    43   23   24 1
    44   23   46 1
    45   23   47 1
    46   24   25 1
    47   24   48 1
    48   24   49 1
    49   25   26 1
    50   26   27 1
    51   26   50 1
    52   26   51 1
    53   27   52 1
    54   27   53 1
    55   28   29 2
    56   28   30 1
@<TRIPOS>MOLECULE
ZINC16263494
   50    52     0     0     0
SMALL
USER_CHARGES
1-[3-fluoro-4-[4-(2-methylamino-5-nitro-benzoyl)piperazin-1-yl]phenyl]ethanone
@<TRIPOS>ATOM
      1 C1          8.9915    8.7399   -4.8765 C.3       1 <0>        -0.1940
      2 C2          7.7269    8.0134   -5.2561 C.2       1 <0>         0.3950
      3 O1          7.3961    7.9397   -6.4210 O.2       1 <0>        -0.4495
      4 C3          6.8955    7.3953   -4.2167 C.ar      1 <0>        -0.1430
      5 C4          5.6626    6.8216   -4.5526 C.ar      1 <0>        -0.0613
      6 C5          4.8897    6.2462   -3.5852 C.ar      1 <0>        -0.1318
      7 C6          5.3215    6.2268   -2.2618 C.ar      1 <0>         0.0833
      8 C7          6.5449    6.8001   -1.9149 C.ar      1 <0>         0.1183
      9 C8          7.3333    7.3770   -2.8856 C.ar      1 <0>        -0.1043
     10 F1          6.9586    6.7845   -0.6289 F         1 <0>        -0.1196
     11 N1          4.5286    5.6394   -1.2824 N.pl3     1 <0>        -0.5008
     12 C9          3.2212    6.3036   -1.1952 C.3       1 <0>         0.0462
     13 C10         2.4505    5.7510    0.0085 C.3       1 <0>         0.1163
     14 N2          2.3973    4.2854   -0.1036 N.am      1 <0>        -0.6055
     15 C11         3.6565    3.5583   -0.3244 C.3       1 <0>         0.1052
     16 C12         4.3790    4.1977   -1.5209 C.3       1 <0>         0.0471
     17 C13         1.2264    3.6259   -0.0011 C.2       1 <0>         0.5756
     18 O2          0.1841    4.2467    0.0818 O.2       1 <0>        -0.5329
     19 C14         1.2093    2.1517    0.0104 C.ar      1 <0>        -0.2189
     20 C15         2.0778    1.4450    0.8464 C.ar      1 <0>         0.0287
     21 C16         2.0575    0.0677    0.8518 C.ar      1 <0>        -0.1122
     22 C17         1.1790   -0.6231    0.0320 C.ar      1 <0>         0.0152
     23 C18         0.3150    0.0599   -0.7987 C.ar      1 <0>        -0.1990
     24 C19         0.3209    1.4494   -0.8186 C.ar      1 <0>         0.3090
     25 N3         -0.5436    2.1392   -1.6584 N.pl3     1 <0>        -0.7150
     26 C20        -1.3836    1.4051   -2.6080 C.3       1 <0>         0.0760
     27 N4          2.9792   -0.6786    1.7376 N.pl3     1 <0>         0.0393
     28 O3          2.9643   -1.8965    1.7447 O.2       1 <0>        -0.1669
     29 O4          3.7526   -0.0748    2.4593 O.3       1 <0>        -0.1705
     30 H1          9.1549    8.6344   -3.8956 H         1 <0>         0.0753
     31 H2          9.8312    8.3220   -5.4318 H         1 <0>         0.0976
     32 H3          8.8883    9.7983   -5.1159 H         1 <0>         0.0998
     33 H4          5.3228    6.8347   -5.5777 H         1 <0>         0.1413
     34 H5          3.9396    5.8048   -3.8476 H         1 <0>         0.1343
     35 H6          8.2830    7.8179   -2.6212 H         1 <0>         0.1532
     36 H7          2.6554    6.1142   -2.1074 H         1 <0>         0.0487
     37 H8          3.3660    7.3770   -1.0728 H         1 <0>         0.0957
     38 H9          1.4381    6.1550    0.0119 H         1 <0>         0.1046
     39 H10         2.9620    6.0294    0.9299 H         1 <0>         0.0856
     40 H11         4.2817    3.6300    0.5656 H         1 <0>         0.0908
     41 H12         3.4419    2.5118   -0.5412 H         1 <0>         0.0941
     42 H13         3.7971    4.0376   -2.4286 H         1 <0>         0.0490
     43 H14         5.3634    3.7437   -1.6346 H         1 <0>         0.0957
     44 H15         2.7647    1.9781    1.4870 H         1 <0>         0.1572
     45 H16         1.1711   -1.7030    0.0433 H         1 <0>         0.1584
     46 H17        -0.3665   -0.4857   -1.4345 H         1 <0>         0.1531
     47 H18        -0.5912    3.1071   -1.6163 H         1 <0>         0.4169
     48 H19        -1.9904    2.1098   -3.1765 H         1 <0>         0.0858
     49 H20        -0.7503    0.8380   -3.2903 H         1 <0>         0.0662
     50 H21        -2.0349    0.7213   -2.0637 H         1 <0>         0.0672
@<TRIPOS>BOND
     1    1    2 1
     2    1   30 1
     3    1   31 1
     4    1   32 1
     5    2    3 2
     6    2    4 1
     7    4    9 ar
     8    4    5 ar
     9    5    6 ar
    10    5   33 1
    11    6    7 ar
    12    6   34 1
    13    7    8 ar
    14    7   11 1
    15    8    9 ar
    16    8   10 1
    17    9   35 1
    18   11   16 1
    19   11   12 1
    20   12   13 1
    21   12   36 1
    22   12   37 1
    23   13   14 1
    24   13   38 1
    25   13   39 1
    26   14   15 1
    27   14   17 am
    28   15   16 1
    29   15   40 1
    30   15   41 1
    31   16   42 1
    32   16   43 1
    33   17   18 2
    34   17   19 1
    35   19   24 ar
    36   19   20 ar
    37   20   21 ar
    38   20   44 1
    39   21   22 ar
    40   21   27 1
    41   22   23 ar
    42   22   45 1
    43   23   24 ar
    44   23   46 1
    45   24   25 1
    46   25   26 1
    47   25   47 1
    48   26   48 1
    49   26   49 1
    50   26   50 1
    51   27   28 2
    52   27   29 1
@<TRIPOS>MOLECULE
ZINC22146623
   58    61     0     0     0
SMALL
USER_CHARGES
1-[3-fluoro-4-[4-(2-morpholino-5-nitro-benzoyl)piperazin-1-yl]phenyl]ethanone
@<TRIPOS>ATOM
      1 C1         -9.4898   -5.2745    5.9420 C.3       1 <0>        -0.2065
      2 C2         -9.2508   -4.2679    4.8462 C.2       1 <0>         0.3959
      3 O1        -10.1048   -4.0698    4.0077 O.2       1 <0>        -0.4495
      4 C3         -7.9850   -3.5273    4.7936 C.ar      1 <0>        -0.1423
      5 C4         -7.7155   -2.6729    3.7168 C.ar      1 <0>        -0.0605
      6 C5         -6.5378   -1.9837    3.6685 C.ar      1 <0>        -0.1305
      7 C6         -5.5995   -2.1262    4.6871 C.ar      1 <0>         0.0830
      8 C7         -5.8548   -2.9786    5.7614 C.ar      1 <0>         0.1170
      9 C8         -7.0427   -3.6725    5.8207 C.ar      1 <0>        -0.1056
     10 F1         -4.9398   -3.1189    6.7455 F         1 <0>        -0.1214
     11 N1         -4.4025   -1.4213    4.6305 N.pl3     1 <0>        -0.4998
     12 C9         -3.6402   -1.7742    3.4254 C.3       1 <0>         0.0429
     13 C10        -2.2565   -1.1190    3.4901 C.3       1 <0>         0.1166
     14 N2         -2.4328    0.3239    3.7141 N.am      1 <0>        -0.6118
     15 C11        -3.2923    0.7554    4.8270 C.3       1 <0>         0.1010
     16 C12        -4.6399    0.0264    4.7060 C.3       1 <0>         0.0439
     17 C13        -1.8187    1.2268    2.9241 C.2       1 <0>         0.5704
     18 O2         -1.1676    0.8541    1.9671 O.2       1 <0>        -0.5002
     19 C14        -1.9365    2.6663    3.2201 C.ar      1 <0>        -0.1453
     20 C15        -3.1961    3.2637    3.3160 C.ar      1 <0>        -0.0060
     21 C16        -3.2991    4.6102    3.5872 C.ar      1 <0>        -0.0721
     22 C17        -2.1591    5.3771    3.7706 C.ar      1 <0>        -0.0077
     23 C18        -0.9085    4.8013    3.6839 C.ar      1 <0>        -0.1720
     24 C19        -0.7842    3.4444    3.4111 C.ar      1 <0>         0.2077
     25 N3          0.4736    2.8626    3.3224 N.pl3     1 <0>        -0.4788
     26 C20         1.5275    3.8874    3.2967 C.3       1 <0>         0.0050
     27 C21         2.8898    3.2068    3.1396 C.3       1 <0>         0.0602
     28 O3          3.0736    2.2665    4.2013 O.3       1 <0>        -0.3780
     29 C22         2.0651    1.2538    4.2545 C.3       1 <0>         0.0617
     30 C23         0.6945    1.9145    4.4240 C.3       1 <0>         0.0211
     31 N4         -4.6344    5.2418    3.6827 N.pl3     1 <0>         0.0316
     32 O4         -4.7293    6.4323    3.9220 O.2       1 <0>        -0.1540
     33 O5         -5.6383    4.5710    3.5221 O.3       1 <0>        -0.1606
     34 H1         -8.6099   -5.3150    6.6009 H         1 <0>         0.0848
     35 H2         -9.6613   -6.2662    5.4979 H         1 <0>         0.0999
     36 H3        -10.3726   -4.9770    6.5269 H         1 <0>         0.0999
     37 H4         -8.4399   -2.5594    2.9238 H         1 <0>         0.1420
     38 H5         -6.3333   -1.3258    2.8368 H         1 <0>         0.1360
     39 H6         -7.2454   -4.3300    6.6532 H         1 <0>         0.1531
     40 H7         -3.5275   -2.8670    3.3698 H         1 <0>         0.0967
     41 H8         -4.1760   -1.4150    2.5343 H         1 <0>         0.0511
     42 H9         -1.6806   -1.5595    4.3173 H         1 <0>         0.0840
     43 H10        -1.7254   -1.2894    2.5420 H         1 <0>         0.1056
     44 H11        -2.8102    0.5012    5.7825 H         1 <0>         0.0873
     45 H12        -3.4454    1.8433    4.7716 H         1 <0>         0.0925
     46 H13        -5.1594    0.3607    3.7959 H         1 <0>         0.0529
     47 H14        -5.2607    0.2508    5.5859 H         1 <0>         0.0977
     48 H15        -4.0877    2.6711    3.1736 H         1 <0>         0.1595
     49 H16        -2.2506    6.4321    3.9825 H         1 <0>         0.1617
     50 H17        -0.0251    5.4058    3.8278 H         1 <0>         0.1596
     51 H18         1.3560    4.5686    2.4502 H         1 <0>         0.1018
     52 H19         1.5069    4.4583    4.2367 H         1 <0>         0.0661
     53 H20         2.9287    2.6831    2.1730 H         1 <0>         0.0674
     54 H21         3.6853    3.9655    3.1778 H         1 <0>         0.1106
     55 H22         2.0807    0.6714    3.3214 H         1 <0>         0.0689
     56 H23         2.2604    0.5862    5.1067 H         1 <0>         0.1095
     57 H24         0.6607    2.4523    5.3830 H         1 <0>         0.0631
     58 H25        -0.0905    1.1442    4.4078 H         1 <0>         0.0929
@<TRIPOS>BOND
     1    1    2 1
     2    1   34 1
     3    1   35 1
     4    1   36 1
     5    2    3 2
     6    2    4 1
     7    4    9 ar
     8    4    5 ar
     9    5    6 ar
    10    5   37 1
    11    6    7 ar
    12    6   38 1
    13    7    8 ar
    14    7   11 1
    15    8    9 ar
    16    8   10 1
    17    9   39 1
    18   11   16 1
    19   11   12 1
    20   12   13 1
    21   12   40 1
    22   12   41 1
    23   13   14 1
    24   13   42 1
    25   13   43 1
    26   14   15 1
    27   14   17 am
    28   15   16 1
    29   15   44 1
    30   15   45 1
    31   16   46 1
    32   16   47 1
    33   17   18 2
    34   17   19 1
    35   19   24 ar
    36   19   20 ar
    37   20   21 ar
    38   20   48 1
    39   21   22 ar
    40   21   31 1
    41   22   23 ar
    42   22   49 1
    43   23   24 ar
    44   23   50 1
    45   24   25 1
    46   25   30 1
    47   25   26 1
    48   26   27 1
    49   26   51 1
    50   26   52 1
    51   27   28 1
    52   27   53 1
    53   27   54 1
    54   28   29 1
    55   29   30 1
    56   29   55 1
    57   29   56 1
    58   30   57 1
    59   30   58 1
    60   31   32 2
    61   31   33 1
