@<TRIPOS>MOLECULE
ZINC05328341
   40    41     0     0     0
SMALL
USER_CHARGES
2-[2-(dimethylaminomethyl)phenyl]sulfanyl-5-(trifluoromethyl)aniline
@<TRIPOS>ATOM
      1 C1          6.2989    5.3211    0.9501 C.3       1 <0>        -0.0456
      2 C2          5.0266    7.1147    1.9637 C.3       1 <0>        -0.0455
      3 C3          4.5627    6.4387   -0.3146 C.3       1 <0>         0.0437
      4 C4          3.0903    6.7580   -0.2851 C.ar      1 <0>        -0.1405
      5 C5          2.6677    8.0728   -0.2894 C.ar      1 <0>        -0.0726
      6 C6          1.3167    8.3667   -0.2619 C.ar      1 <0>        -0.1117
      7 C7          0.3838    7.3458   -0.2300 C.ar      1 <0>        -0.0689
      8 C8          0.7987    6.0290   -0.2308 C.ar      1 <0>        -0.1111
      9 C9          2.1560    5.7298   -0.2531 C.ar      1 <0>        -0.0986
     10 S1          2.6904    4.0508   -0.2481 S.3       1 <0>        -0.0166
     11 C10         1.1925    3.1265   -0.3287 C.ar      1 <0>        -0.2017
     12 C11         0.7991    2.5417   -1.5237 C.ar      1 <0>        -0.0098
     13 C12        -0.3767    1.8174   -1.5845 C.ar      1 <0>        -0.1339
     14 C13        -1.1610    1.6683   -0.4554 C.ar      1 <0>        -0.0896
     15 C14        -0.7797    2.2524    0.7386 C.ar      1 <0>        -0.1530
     16 C15         0.3981    2.9808    0.8091 C.ar      1 <0>         0.2662
     17 N1          0.7887    3.5684    2.0178 N.pl3     1 <0>        -0.8605
     18 C16        -2.4384    0.8720   -0.5278 C.3       1 <0>         0.5044
     19 F1         -3.4969    1.7190   -0.8733 F         1 <0>        -0.1699
     20 F2         -2.3087   -0.1306   -1.4948 F         1 <0>        -0.1690
     21 F3         -2.6954    0.2885    0.7174 F         1 <0>        -0.1717
     22 H1          7.0432    6.0129    0.5556 H         1 <0>         0.1266
     23 H2          6.5941    5.0006    1.9492 H         1 <0>         0.1246
     24 H3          6.2277    4.4522    0.2960 H         1 <0>         0.1232
     25 H4          4.0153    7.4920    2.1152 H         1 <0>         0.1189
     26 H5          5.4342    6.7751    2.9159 H         1 <0>         0.1237
     27 H6          5.6549    7.9100    1.5625 H         1 <0>         0.1259
     28 H7          4.7485    5.6476   -1.0410 H         1 <0>         0.1390
     29 H8          5.1223    7.3304   -0.5974 H         1 <0>         0.1436
     30 H9          3.3932    8.8724   -0.3146 H         1 <0>         0.1390
     31 H10         0.9891    9.3958   -0.2656 H         1 <0>         0.1400
     32 H11        -0.6705    7.5790   -0.2085 H         1 <0>         0.1383
     33 H12         0.0698    5.2324   -0.2101 H         1 <0>         0.1336
     34 H13         1.4117    2.6521   -2.4063 H         1 <0>         0.1484
     35 H14        -0.6813    1.3625   -2.5154 H         1 <0>         0.1479
     36 H15        -1.3970    2.1376    1.6173 H         1 <0>         0.1475
     37 H16         0.2352    3.4665    2.8079 H         1 <0>         0.4105
     38 H17         1.6129    4.0776    2.0656 H         1 <0>         0.3994
     39 N2          4.9745    5.9730    1.0264 N.4       1 <0>        -0.3991
     40 H18         4.2867    5.2917    1.3685 H         1 <0>         0.4251
@<TRIPOS>BOND
     1    1   22 1
     2    1   23 1
     3    1   24 1
     4    1   39 1
     5    2   25 1
     6    2   26 1
     7    2   27 1
     8    2   39 1
     9    3    4 1
    10    3   28 1
    11    3   29 1
    12    3   39 1
    13    4    9 ar
    14    4    5 ar
    15    5    6 ar
    16    5   30 1
    17    6    7 ar
    18    6   31 1
    19    7    8 ar
    20    7   32 1
    21    8    9 ar
    22    8   33 1
    23    9   10 1
    24   10   11 1
    25   11   16 ar
    26   11   12 ar
    27   12   13 ar
    28   12   34 1
    29   13   14 ar
    30   13   35 1
    31   14   15 ar
    32   14   18 1
    33   15   16 ar
    34   15   36 1
    35   16   17 1
    36   17   37 1
    37   17   38 1
    38   18   19 1
    39   18   20 1
    40   18   21 1
    41   39   40 1
@<TRIPOS>MOLECULE
ZINC49013636
   35    36     0     0     0
SMALL
USER_CHARGES

@<TRIPOS>ATOM
      1 C1          0.9035   -1.5323   -0.7120 C.3       1 <0>        -0.1768
      2 C2         -0.0713   -2.0010    0.3701 C.3       1 <0>         0.0724
      3 N1         -1.3678   -1.3472    0.1759 N.am      1 <0>        -0.5992
      4 C3         -2.0958   -1.5235   -1.0831 C.3       1 <0>         0.1303
      5 H1         -1.4812   -2.0651   -1.8022 H         1 <0>         0.1362
      6 C4         -3.4220   -2.2782   -0.8349 C.3       1 <0>        -0.1565
      7 C5         -4.4595   -1.1318   -0.7351 C.3       1 <0>        -0.0192
      8 N2         -3.9882   -0.1574   -1.7522 N.4       1 <0>        -0.5067
      9 C6         -2.5100   -0.1559   -1.6571 C.3       1 <0>        -0.0124
     10 C7         -1.8908   -0.5834    1.1555 C.2       1 <0>         0.5795
     11 O1         -2.9802   -0.0651    1.0060 O.2       1 <0>        -0.5302
     12 C8         -1.1399   -0.3760    2.4112 C.ar      1 <0>        -0.1321
     13 C9          0.2403   -0.1673    2.3768 C.ar      1 <0>        -0.0818
     14 C10         0.9357    0.0257    3.5518 C.ar      1 <0>        -0.1043
     15 C11         0.2696    0.0130    4.7650 C.ar      1 <0>        -0.0640
     16 C12        -1.0979   -0.1935    4.8086 C.ar      1 <0>        -0.0392
     17 C13        -1.8085   -0.3821    3.6375 C.ar      1 <0>         0.0159
     18 Cl1        -3.5254   -0.6335    3.6918 Cl        1 <0>        -0.0196
     19 Cl2        -1.9239   -0.2087    6.3355 Cl        1 <0>        -0.0246
     20 H2          1.8682   -2.0188   -0.5675 H         1 <0>         0.0845
     21 H3          0.5088   -1.7926   -1.6941 H         1 <0>         0.0633
     22 H4          1.0281   -0.4515   -0.6453 H         1 <0>         0.0639
     23 H5         -0.1958   -3.0818    0.3035 H         1 <0>         0.0851
     24 H6          0.3235   -1.7407    1.3522 H         1 <0>         0.1125
     25 H7         -3.6538   -2.9364   -1.6722 H         1 <0>         0.1074
     26 H8         -3.3772   -2.8402    0.0980 H         1 <0>         0.1168
     27 H9         -5.4575   -1.4936   -0.9825 H         1 <0>         0.1295
     28 H10        -4.4462   -0.6864    0.2596 H         1 <0>         0.1716
     29 H11        -4.2764   -0.4496   -2.6739 H         1 <0>         0.4268
     30 H12        -2.1811    0.6415   -0.9907 H         1 <0>         0.1365
     31 H13        -2.0730   -0.0206   -2.6464 H         1 <0>         0.1398
     32 H14         0.7624   -0.1573    1.4314 H         1 <0>         0.1510
     33 H15         2.0033    0.1867    3.5254 H         1 <0>         0.1529
     34 H16         0.8198    0.1647    5.6819 H         1 <0>         0.1550
     35 H17        -4.3510    0.7617   -1.5479 H         1 <0>         0.4356
@<TRIPOS>BOND
     1    1    2 1
     2    1   20 1
     3    1   21 1
     4    1   22 1
     5    2    3 1
     6    2   23 1
     7    2   24 1
     8    3    4 1
     9    3   10 am
    10    4    5 1
    11    4    9 1
    12    4    6 1
    13    6    7 1
    14    6   25 1
    15    6   26 1
    16    7    8 1
    17    7   27 1
    18    7   28 1
    19    8    9 1
    20    8   29 1
    21    8   35 1
    22    9   30 1
    23    9   31 1
    24   10   11 2
    25   10   12 1
    26   12   17 ar
    27   12   13 ar
    28   13   14 ar
    29   13   32 1
    30   14   15 ar
    31   14   33 1
    32   15   16 ar
    33   15   34 1
    34   16   17 ar
    35   16   19 1
    36   17   18 1
@<TRIPOS>MOLECULE
ZINC49018566
   35    36     0     0     0
SMALL
USER_CHARGES

@<TRIPOS>ATOM
      1 C1         -0.0179    1.5226   -0.0169 C.3       1 <0>        -0.1846
      2 C2          0.0048   -0.0072   -0.0226 C.3       1 <0>         0.0321
      3 H1          0.5253   -0.3596   -0.9131 H         1 <0>         0.1429
      4 C3          0.7317   -0.5111    1.2259 C.3       1 <0>        -0.0974
      5 C4          0.8622   -2.0110    1.1602 C.ar      1 <0>        -0.1399
      6 C5         -0.1316   -2.8138    1.6900 C.ar      1 <0>        -0.1198
      7 C6         -0.0154   -4.1885    1.6315 C.ar      1 <0>        -0.1179
      8 C7          1.1018   -4.7651    1.0395 C.ar      1 <0>        -0.0832
      9 C8          2.0984   -3.9553    0.5082 C.ar      1 <0>        -0.0906
     10 C9          1.9728   -2.5814    0.5651 C.ar      1 <0>        -0.0832
     11 S1          1.2547   -6.5188    0.9631 S.3       1 <0>         0.0167
     12 C10        -0.1257   -7.1076    1.8864 C.ar      1 <0>        -0.1566
     13 C11        -1.3027   -7.4552    1.2342 C.ar      1 <0>        -0.0653
     14 C12        -2.3823   -7.9167    1.9609 C.ar      1 <0>        -0.1278
     15 C13        -2.2935   -8.0328    3.3362 C.ar      1 <0>        -0.0817
     16 C14        -1.1238   -7.6878    3.9886 C.ar      1 <0>        -0.1260
     17 C15        -0.0382   -7.2310    3.2678 C.ar      1 <0>        -0.0643
     18 N1         -1.3728   -0.5174   -0.0265 N.4       1 <0>        -0.6387
     19 H2          1.0042    1.9011   -0.0140 H         1 <0>         0.1080
     20 H3         -0.5358    1.8816   -0.9064 H         1 <0>         0.0841
     21 H4         -0.5384    1.8750    0.8736 H         1 <0>         0.0830
     22 H5          1.7236   -0.0619    1.2749 H         1 <0>         0.1207
     23 H6          0.1632   -0.2344    2.1138 H         1 <0>         0.0973
     24 H7         -0.9994   -2.3650    2.1503 H         1 <0>         0.1227
     25 H8         -0.7916   -4.8148    2.0458 H         1 <0>         0.1302
     26 H9          2.9682   -4.4001    0.0476 H         1 <0>         0.1373
     27 H10         2.7448   -1.9515    0.1485 H         1 <0>         0.1350
     28 H11        -1.3729   -7.3641    0.1604 H         1 <0>         0.1332
     29 H12        -3.2972   -8.1870    1.4548 H         1 <0>         0.1334
     30 H13        -3.1397   -8.3934    3.9021 H         1 <0>         0.1329
     31 H14        -1.0581   -7.7794    5.0627 H         1 <0>         0.1340
     32 H15         0.8762   -6.9657    3.7775 H         1 <0>         0.1329
     33 H16        -1.8546   -0.1912    0.7978 H         1 <0>         0.4315
     34 H17        -1.8522   -0.1851   -0.8498 H         1 <0>         0.4360
     35 H18        -1.3578   -1.5263   -0.0302 H         1 <0>         0.4333
@<TRIPOS>BOND
     1    1    2 1
     2    1   19 1
     3    1   20 1
     4    1   21 1
     5    2    3 1
     6    2    4 1
     7    2   18 1
     8    4    5 1
     9    4   22 1
    10    4   23 1
    11    5   10 ar
    12    5    6 ar
    13    6    7 ar
    14    6   24 1
    15    7    8 ar
    16    7   25 1
    17    8    9 ar
    18    8   11 1
    19    9   10 ar
    20    9   26 1
    21   10   27 1
    22   11   12 1
    23   12   17 ar
    24   12   13 ar
    25   13   14 ar
    26   13   28 1
    27   14   15 ar
    28   14   29 1
    29   15   16 ar
    30   15   30 1
    31   16   17 ar
    32   16   31 1
    33   17   32 1
    34   18   33 1
    35   18   34 1
    36   18   35 1
@<TRIPOS>MOLECULE
ZINC49018570
   35    36     0     0     0
SMALL
USER_CHARGES

@<TRIPOS>ATOM
      1 C1         -0.0216    1.5203   -0.0189 C.3       1 <0>        -0.1847
      2 C2          0.0027   -0.0095   -0.0223 C.3       1 <0>         0.0323
      3 H1         -1.0190   -0.3891   -0.0242 H         1 <0>         0.1418
      4 C3          0.7308   -0.5109    1.2265 C.3       1 <0>        -0.0974
      5 C4          0.6482   -2.0144    1.2865 C.ar      1 <0>        -0.1404
      6 C5         -0.4114   -2.6218    1.9355 C.ar      1 <0>        -0.0830
      7 C6         -0.4902   -3.9992    1.9924 C.ar      1 <0>        -0.1157
      8 C7          0.4967   -4.7752    1.3966 C.ar      1 <0>        -0.0833
      9 C8          1.5599   -4.1614    0.7454 C.ar      1 <0>        -0.0928
     10 C9          1.6293   -2.7836    0.6875 C.ar      1 <0>        -0.1200
     11 S1          0.4005   -6.5332    1.4672 S.3       1 <0>         0.0151
     12 C10        -0.9867   -6.8427    2.5087 C.ar      1 <0>        -0.1573
     13 C11        -2.2394   -7.0692    1.9513 C.ar      1 <0>        -0.0644
     14 C12        -3.3241   -7.3119    2.7705 C.ar      1 <0>        -0.1271
     15 C13        -3.1651   -7.3292    4.1442 C.ar      1 <0>        -0.0807
     16 C14        -1.9199   -7.1042    4.7025 C.ar      1 <0>        -0.1260
     17 C15        -0.8296   -6.8665    3.8893 C.ar      1 <0>        -0.0644
     18 N1          0.7041   -0.4854   -1.2221 N.4       1 <0>        -0.6384
     19 H2          1.0002    1.8999   -0.0170 H         1 <0>         0.0834
     20 H3         -0.5402    1.8774   -0.9085 H         1 <0>         0.0841
     21 H4         -0.5420    1.8734    0.8714 H         1 <0>         0.1075
     22 H5          1.7763   -0.2057    1.1846 H         1 <0>         0.0983
     23 H6          0.2635   -0.0856    2.1147 H         1 <0>         0.1195
     24 H7         -1.1778   -2.0181    2.3986 H         1 <0>         0.1308
     25 H8         -1.3177   -4.4728    2.4997 H         1 <0>         0.1306
     26 H9          2.3288   -4.7615    0.2815 H         1 <0>         0.1365
     27 H10         2.4529   -2.3059    0.1778 H         1 <0>         0.1267
     28 H11        -2.3644   -7.0551    0.8786 H         1 <0>         0.1331
     29 H12        -4.2979   -7.4881    2.3379 H         1 <0>         0.1339
     30 H13        -4.0154   -7.5186    4.7826 H         1 <0>         0.1333
     31 H14        -1.7995   -7.1181    5.7757 H         1 <0>         0.1341
     32 H15         0.1433   -6.6949    4.3257 H         1 <0>         0.1327
     33 H16         1.6500   -0.1340   -1.2204 H         1 <0>         0.4319
     34 H17         0.7202   -1.4943   -1.2244 H         1 <0>         0.4337
     35 H18         0.2240   -0.1548   -2.0457 H         1 <0>         0.4360
@<TRIPOS>BOND
     1    1    2 1
     2    1   19 1
     3    1   20 1
     4    1   21 1
     5    2    3 1
     6    2    4 1
     7    2   18 1
     8    4    5 1
     9    4   22 1
    10    4   23 1
    11    5   10 ar
    12    5    6 ar
    13    6    7 ar
    14    6   24 1
    15    7    8 ar
    16    7   25 1
    17    8    9 ar
    18    8   11 1
    19    9   10 ar
    20    9   26 1
    21   10   27 1
    22   11   12 1
    23   12   17 ar
    24   12   13 ar
    25   13   14 ar
    26   13   28 1
    27   14   15 ar
    28   14   29 1
    29   15   16 ar
    30   15   30 1
    31   16   17 ar
    32   16   31 1
    33   17   32 1
    34   18   33 1
    35   18   34 1
    36   18   35 1
@<TRIPOS>MOLECULE
ZINC49019845
   38    39     0     0     0
SMALL
USER_CHARGES

@<TRIPOS>ATOM
      1 C1         -0.0187    1.5258    0.0104 C.3       1 <0>        -0.1848
      2 C2          0.0021   -0.0041    0.0020 C.3       1 <0>         0.0323
      3 H1         -1.0205   -0.3814    0.0098 H         1 <0>         0.1420
      4 C3          0.7182   -0.4975   -1.2568 C.3       1 <0>        -0.0975
      5 C4          0.6316   -2.0003   -1.3275 C.ar      1 <0>        -0.1417
      6 C5          1.6130   -2.7763   -0.7380 C.ar      1 <0>        -0.1181
      7 C6          1.5372   -4.1536   -0.8012 C.ar      1 <0>        -0.0934
      8 C7          0.4729   -4.7599   -1.4578 C.ar      1 <0>        -0.0714
      9 C8         -0.5116   -3.9769   -2.0486 C.ar      1 <0>        -0.1272
     10 C9         -0.4319   -2.6002   -1.9769 C.ar      1 <0>        -0.0799
     11 S1          0.3723   -6.5170   -1.5414 S.3       1 <0>        -0.0825
     12 C10        -1.1522   -6.8254   -2.4749 C.3       1 <0>        -0.0658
     13 C11        -1.3603   -8.3108   -2.6206 C.ar      1 <0>        -0.0906
     14 C12        -0.8277   -8.9800   -3.7066 C.ar      1 <0>        -0.0984
     15 C13        -1.0186  -10.3426   -3.8403 C.ar      1 <0>        -0.1173
     16 C14        -1.7416  -11.0360   -2.8878 C.ar      1 <0>        -0.1046
     17 C15        -2.2733  -10.3669   -1.8013 C.ar      1 <0>        -0.1182
     18 C16        -2.0788   -9.0051   -1.6654 C.ar      1 <0>        -0.0991
     19 N1          0.7126   -0.4907    1.1921 N.4       1 <0>        -0.6386
     20 H2          1.0039    1.9031    0.0027 H         1 <0>         0.0834
     21 H3         -0.5459    1.8868   -0.8726 H         1 <0>         0.1076
     22 H4         -0.5289    1.8773    0.9072 H         1 <0>         0.0842
     23 H5          0.2444   -0.0644   -2.1377 H         1 <0>         0.1199
     24 H6          1.7648   -0.1951   -1.2215 H         1 <0>         0.0984
     25 H7          2.4398   -2.3045   -0.2279 H         1 <0>         0.1267
     26 H8          2.3043   -4.7590   -0.3412 H         1 <0>         0.1362
     27 H9         -1.3401   -4.4447   -2.5597 H         1 <0>         0.1311
     28 H10        -1.1987   -1.9912   -2.4323 H         1 <0>         0.1323
     29 H11        -1.9983   -6.3904   -1.9428 H         1 <0>         0.0988
     30 H12        -1.0717   -6.3711   -3.4624 H         1 <0>         0.0997
     31 H13        -0.2629   -8.4383   -4.4508 H         1 <0>         0.1251
     32 H14        -0.6031  -10.8653   -4.6892 H         1 <0>         0.1289
     33 H15        -1.8913  -12.1004   -2.9926 H         1 <0>         0.1283
     34 H16        -2.8385  -10.9086   -1.0573 H         1 <0>         0.1284
     35 H17        -2.4911   -8.4830   -0.8146 H         1 <0>         0.1240
     36 H18         0.2403   -0.1653    2.0223 H         1 <0>         0.4361
     37 H19         0.7263   -1.4996    1.1866 H         1 <0>         0.4336
     38 H20         1.6592   -0.1414    1.1850 H         1 <0>         0.4320
@<TRIPOS>BOND
     1    1    2 1
     2    1   20 1
     3    1   21 1
     4    1   22 1
     5    2    3 1
     6    2    4 1
     7    2   19 1
     8    4    5 1
     9    4   23 1
    10    4   24 1
    11    5   10 ar
    12    5    6 ar
    13    6    7 ar
    14    6   25 1
    15    7    8 ar
    16    7   26 1
    17    8    9 ar
    18    8   11 1
    19    9   10 ar
    20    9   27 1
    21   10   28 1
    22   11   12 1
    23   12   13 1
    24   12   29 1
    25   12   30 1
    26   13   18 ar
    27   13   14 ar
    28   14   15 ar
    29   14   31 1
    30   15   16 ar
    31   15   32 1
    32   16   17 ar
    33   16   33 1
    34   17   18 ar
    35   17   34 1
    36   18   35 1
    37   19   36 1
    38   19   37 1
    39   19   38 1
@<TRIPOS>MOLECULE
ZINC49019848
   38    39     0     0     0
SMALL
USER_CHARGES

@<TRIPOS>ATOM
      1 C1         -0.0187    1.5258    0.0104 C.3       1 <0>        -0.1847
      2 C2          0.0021   -0.0041    0.0020 C.3       1 <0>         0.0320
      3 H1         -1.0205   -0.3814    0.0098 H         1 <0>         0.1429
      4 C3          0.7421   -0.5109    1.2415 C.3       1 <0>        -0.0975
      5 C4          0.6567   -2.0144    1.2978 C.ar      1 <0>        -0.1414
      6 C5         -0.3973   -2.6214    1.9560 C.ar      1 <0>        -0.0812
      7 C6         -0.4786   -3.9988    2.0100 C.ar      1 <0>        -0.0912
      8 C7          0.5002   -4.7752    1.4014 C.ar      1 <0>        -0.0715
      9 C8          1.5577   -4.1618    0.7404 C.ar      1 <0>        -0.1295
     10 C9          1.6296   -2.7839    0.6861 C.ar      1 <0>        -0.1168
     11 S1          0.4010   -6.5332    1.4681 S.3       1 <0>        -0.0806
     12 C10         1.8663   -7.0904    0.5554 C.3       1 <0>        -0.0657
     13 C11         1.9035   -8.5968    0.5363 C.ar      1 <0>        -0.0911
     14 C12         2.5494   -9.2850    1.5463 C.ar      1 <0>        -0.0985
     15 C13         2.5836  -10.6669    1.5288 C.ar      1 <0>        -0.1171
     16 C14         1.9714  -11.3604    0.5016 C.ar      1 <0>        -0.1044
     17 C15         1.3246  -10.6722   -0.5078 C.ar      1 <0>        -0.1181
     18 C16         1.2869   -9.2905   -0.4881 C.ar      1 <0>        -0.0993
     19 N1          0.6897   -0.4778   -1.2066 N.4       1 <0>        -0.6385
     20 H2          1.0039    1.9031    0.0027 H         1 <0>         0.0831
     21 H3         -0.5459    1.8868   -0.8726 H         1 <0>         0.0842
     22 H4         -0.5289    1.8773    0.9072 H         1 <0>         0.1080
     23 H5          1.7879   -0.2080    1.1895 H         1 <0>         0.0976
     24 H6          0.2852   -0.0874    2.1360 H         1 <0>         0.1208
     25 H7         -1.1576   -2.0173    2.4288 H         1 <0>         0.1350
     26 H8         -1.3016   -4.4721    2.5248 H         1 <0>         0.1370
     27 H9          2.3201   -4.7621    0.2663 H         1 <0>         0.1304
     28 H10         2.4489   -2.3066    0.1692 H         1 <0>         0.1242
     29 H11         1.8220   -6.7151   -0.4670 H         1 <0>         0.0974
     30 H12         2.7642   -6.7109    1.0431 H         1 <0>         0.0988
     31 H13         3.0278   -8.7432    2.3488 H         1 <0>         0.1250
     32 H14         3.0888  -11.2046    2.3175 H         1 <0>         0.1290
     33 H15         1.9986  -12.4400    0.4876 H         1 <0>         0.1284
     34 H16         0.8466  -11.2141   -1.3105 H         1 <0>         0.1285
     35 H17         0.7784   -8.7529   -1.2747 H         1 <0>         0.1238
     36 H18         1.6363   -0.1286   -1.2138 H         1 <0>         0.4316
     37 H19         0.7033   -1.4867   -1.2121 H         1 <0>         0.4331
     38 H20         0.2017   -0.1436   -2.0240 H         1 <0>         0.4361
@<TRIPOS>BOND
     1    1    2 1
     2    1   20 1
     3    1   21 1
     4    1   22 1
     5    2    3 1
     6    2    4 1
     7    2   19 1
     8    4    5 1
     9    4   23 1
    10    4   24 1
    11    5   10 ar
    12    5    6 ar
    13    6    7 ar
    14    6   25 1
    15    7    8 ar
    16    7   26 1
    17    8    9 ar
    18    8   11 1
    19    9   10 ar
    20    9   27 1
    21   10   28 1
    22   11   12 1
    23   12   13 1
    24   12   29 1
    25   12   30 1
    26   13   18 ar
    27   13   14 ar
    28   14   15 ar
    29   14   31 1
    30   15   16 ar
    31   15   32 1
    32   16   17 ar
    33   16   33 1
    34   17   18 ar
    35   17   34 1
    36   18   35 1
    37   19   36 1
    38   19   37 1
    39   19   38 1
@<TRIPOS>MOLECULE
ZINC49033518
   38    39     0     0     0
SMALL
USER_CHARGES

@<TRIPOS>ATOM
      1 C1          1.6735    0.8834   -3.9630 C.3       1 <0>        -0.1574
      2 C2          0.9633   -0.1794   -3.1222 C.3       1 <0>        -0.1415
      3 C3          1.9737   -1.2408   -2.6824 C.3       1 <0>         0.0749
      4 N1          1.2937   -2.2585   -1.8773 N.am      1 <0>        -0.5988
      5 C4          0.1864   -3.0270   -2.4512 C.3       1 <0>         0.1302
      6 H1         -0.0659   -2.6449   -3.4404 H         1 <0>         0.1362
      7 C5          0.5590   -4.5251   -2.5337 C.3       1 <0>        -0.1564
      8 C6         -0.0834   -5.1129   -1.2521 C.3       1 <0>        -0.0196
      9 N2         -1.3582   -4.3597   -1.1347 N.4       1 <0>        -0.5066
     10 C7         -1.0427   -2.9663   -1.5254 C.3       1 <0>        -0.0126
     11 C8          1.6869   -2.4877   -0.6087 C.2       1 <0>         0.5799
     12 O1          1.1245   -3.3340    0.0584 O.2       1 <0>        -0.5299
     13 C9          2.8016   -1.7101   -0.0288 C.ar      1 <0>        -0.1314
     14 C10         2.8929   -0.3360   -0.2596 C.ar      1 <0>        -0.0814
     15 C11         3.9354    0.3845    0.2842 C.ar      1 <0>        -0.1039
     16 C12         4.8914   -0.2504    1.0580 C.ar      1 <0>        -0.0642
     17 C13         4.8090   -1.6118    1.2915 C.ar      1 <0>        -0.0388
     18 C14         3.7655   -2.3453    0.7575 C.ar      1 <0>         0.0155
     19 Cl1         3.6581   -4.0518    1.0570 Cl        1 <0>        -0.0203
     20 Cl2         6.0138   -2.3989    2.2625 Cl        1 <0>        -0.0246
     21 H2          2.4578    1.3525   -3.3689 H         1 <0>         0.0618
     22 H3          2.1150    0.4154   -4.8429 H         1 <0>         0.0625
     23 H4          0.9537    1.6396   -4.2763 H         1 <0>         0.0670
     24 H5          0.5218    0.2886   -2.2424 H         1 <0>         0.0697
     25 H6          0.1791   -0.6484   -3.7164 H         1 <0>         0.0689
     26 H7          2.4152   -1.7088   -3.5623 H         1 <0>         0.0855
     27 H8          2.7580   -0.7718   -2.0883 H         1 <0>         0.1126
     28 H9          0.1282   -4.9812   -3.4250 H         1 <0>         0.1076
     29 H10         1.6411   -4.6549   -2.5172 H         1 <0>         0.1168
     30 H11        -0.2760   -6.1790   -1.3725 H         1 <0>         0.1295
     31 H12         0.5520   -4.9313   -0.3852 H         1 <0>         0.1720
     32 H13        -2.0499   -4.7471   -1.7589 H         1 <0>         0.4268
     33 H14        -0.8113   -2.3750   -0.6394 H         1 <0>         0.1367
     34 H15        -1.8871   -2.5280   -2.0574 H         1 <0>         0.1398
     35 H16         2.1484    0.1617   -0.8633 H         1 <0>         0.1503
     36 H17         4.0064    1.4472    0.1055 H         1 <0>         0.1528
     37 H18         5.7055    0.3193    1.4811 H         1 <0>         0.1550
     38 H19        -1.6922   -4.3873   -0.1830 H         1 <0>         0.4356
@<TRIPOS>BOND
     1    1    2 1
     2    1   21 1
     3    1   22 1
     4    1   23 1
     5    2    3 1
     6    2   24 1
     7    2   25 1
     8    3    4 1
     9    3   26 1
    10    3   27 1
    11    4    5 1
    12    4   11 am
    13    5    6 1
    14    5   10 1
    15    5    7 1
    16    7    8 1
    17    7   28 1
    18    7   29 1
    19    8    9 1
    20    8   30 1
    21    8   31 1
    22    9   10 1
    23    9   32 1
    24    9   38 1
    25   10   33 1
    26   10   34 1
    27   11   12 2
    28   11   13 1
    29   13   18 ar
    30   13   14 ar
    31   14   15 ar
    32   14   35 1
    33   15   16 ar
    34   15   36 1
    35   16   17 ar
    36   16   37 1
    37   17   18 ar
    38   17   20 1
    39   18   19 1
@<TRIPOS>MOLECULE
ZINC03809198
   37    39     0     0     0
SMALL
USER_CHARGES
2-[(7-fluoroindan-4-yl)oxymethyl]morpholine
@<TRIPOS>ATOM
      1 C1         -2.4031    2.6436   -3.2488 C.ar      1 <0>        -0.1814
      2 C2         -3.2180    3.0233   -4.2980 C.ar      1 <0>        -0.1138
      3 C3         -4.5558    2.6717   -4.2961 C.ar      1 <0>         0.0853
      4 C4         -5.0848    1.9384   -3.2440 C.ar      1 <0>        -0.0901
      5 C5         -4.2710    1.5528   -2.1966 C.ar      1 <0>        -0.0928
      6 C6         -2.9284    1.9110   -2.1963 C.ar      1 <0>         0.1237
      7 O1         -2.1270    1.5370   -1.1638 O.3       1 <0>        -0.2996
      8 C7         -0.7558    1.9337   -1.2302 C.3       1 <0>         0.0647
      9 C8         -0.0173    1.4259    0.0099 C.3       1 <0>         0.0695
     10 H1         -0.5264    1.7781    0.9071 H         1 <0>         0.1002
     11 C9          1.4209    1.9505   -0.0010 C.3       1 <0>        -0.0353
     12 C10         2.1467   -0.0722    1.1108 C.3       1 <0>        -0.0424
     13 C11         0.7012   -0.5765    1.1106 C.3       1 <0>         0.0336
     14 O2          0.0021   -0.0041    0.0020 O.3       1 <0>        -0.3446
     15 C12        -5.0757    0.7632   -1.1866 C.3       1 <0>        -0.0728
     16 C13        -6.3525    0.3297   -1.9376 C.3       1 <0>        -0.1209
     17 C14        -6.4937    1.4370   -3.0091 C.3       1 <0>        -0.0833
     18 F1         -5.3505    3.0437   -5.3234 F         1 <0>        -0.1342
     19 H2         -1.3583    2.9170   -3.2491 H         1 <0>         0.1371
     20 H3         -2.8106    3.5940   -5.1193 H         1 <0>         0.1445
     21 H4         -0.6936    3.0212   -1.2702 H         1 <0>         0.0908
     22 H5         -0.2980    1.5105   -2.1243 H         1 <0>         0.0833
     23 H6          1.9134    1.6432   -0.9236 H         1 <0>         0.1448
     24 H7          1.4120    3.0386    0.0625 H         1 <0>         0.1496
     25 H8          2.6676   -0.4606    1.9860 H         1 <0>         0.1476
     26 H9          2.6508   -0.4118    0.2060 H         1 <0>         0.1414
     27 H10         0.2130   -0.2825    2.0398 H         1 <0>         0.0835
     28 H11         0.6941   -1.6630    1.0236 H         1 <0>         0.1445
     29 H12        -4.5152   -0.1117   -0.8572 H         1 <0>         0.0799
     30 H13        -5.3318    1.3909   -0.3331 H         1 <0>         0.0838
     31 H14        -6.2186   -0.6500   -2.3963 H         1 <0>         0.0780
     32 H15        -7.2136    0.3283   -1.2693 H         1 <0>         0.0844
     33 H16        -7.1285    2.2470   -2.6500 H         1 <0>         0.0915
     34 H17        -6.9023    1.0134   -3.9265 H         1 <0>         0.0843
     35 N1          2.1515    1.4023    1.1575 N.4       1 <0>        -0.5137
     36 H18         1.6981    1.7158    2.0238 H         1 <0>         0.4352
     37 H19         3.1212    1.7392    1.1374 H         1 <0>         0.4438
@<TRIPOS>BOND
     1    1    6 ar
     2    1    2 ar
     3    1   19 1
     4    2    3 ar
     5    2   20 1
     6    3    4 ar
     7    3   18 1
     8    4   17 1
     9    4    5 ar
    10    5    6 ar
    11    5   15 1
    12    6    7 1
    13    7    8 1
    14    8    9 1
    15    8   21 1
    16    8   22 1
    17    9   10 1
    18    9   14 1
    19    9   11 1
    20   11   23 1
    21   11   24 1
    22   11   35 1
    23   12   13 1
    24   12   25 1
    25   12   26 1
    26   12   35 1
    27   13   14 1
    28   13   27 1
    29   13   28 1
    30   15   16 1
    31   15   29 1
    32   15   30 1
    33   16   17 1
    34   16   31 1
    35   16   32 1
    36   17   33 1
    37   17   34 1
    38   35   36 1
    39   35   37 1
@<TRIPOS>MOLECULE
ZINC49034914
   46    48     0     0     0
SMALL
USER_CHARGES

@<TRIPOS>ATOM
      1 C1         -0.0178    1.4648    0.0101 C.3       1 <0>        -0.0480
      2 N1          0.0021   -0.0041    0.0020 N.4       1 <0>        -0.5061
      3 C2          0.6897   -0.4778   -1.2066 C.3       1 <0>        -0.0468
      4 C3          0.7104   -2.0077   -1.2150 C.3       1 <0>         0.0851
      5 H1          1.1585   -2.3700   -0.2898 H         1 <0>         0.1291
      6 C4          1.5333   -2.5000   -2.4072 C.3       1 <0>        -0.1823
      7 C5          1.6587   -4.0236   -2.3460 C.3       1 <0>         0.1534
      8 N2          2.4466   -4.4950   -3.4875 N.pl3     1 <0>        -0.9318
      9 C6          1.9886   -4.7750   -4.7921 C.ar      1 <0>         0.0894
     10 C7          0.6695   -4.6515   -5.2419 C.ar      1 <0>        -0.1010
     11 C8          0.3374   -4.9552   -6.5442 C.ar      1 <0>        -0.1029
     12 C9          1.3145   -5.3875   -7.4217 C.ar      1 <0>        -0.1012
     13 C10         2.6172   -5.5133   -6.9911 C.ar      1 <0>        -0.0886
     14 C11         2.9675   -5.2080   -5.6711 C.ar      1 <0>         0.0923
     15 N3          4.2621   -5.2980   -5.1172 N.pl3     1 <0>        -0.8779
     16 S1          4.0833   -4.8116   -3.5322 S.o2      1 <0>         2.7603
     17 O1          4.7649   -3.5740   -3.3807 O.2       1 <0>        -0.9504
     18 O2          4.3249   -5.9433   -2.7075 O.2       1 <0>        -0.9379
     19 C12         5.4377   -5.7014   -5.7580 C.ar      1 <0>         0.0970
     20 C13         6.1878   -4.7821   -6.4795 C.ar      1 <0>        -0.0717
     21 C14         7.3486   -5.1837   -7.1115 C.ar      1 <0>        -0.1221
     22 C15         7.7651   -6.4996   -7.0269 C.ar      1 <0>        -0.0671
     23 C16         7.0217   -7.4191   -6.3097 C.ar      1 <0>        -0.1477
     24 C17         5.8616   -7.0234   -5.6697 C.ar      1 <0>         0.1174
     25 F1          5.1382   -7.9203   -4.9643 F         1 <0>        -0.1208
     26 O3         -0.6262   -2.5016   -1.3223 O.3       1 <0>        -0.5517
     27 H2          1.0047    1.8421    0.0024 H         1 <0>         0.1242
     28 H3         -0.5450    1.8259   -0.8730 H         1 <0>         0.1235
     29 H4         -0.5280    1.8163    0.9069 H         1 <0>         0.1285
     30 H5          0.4901   -0.3383    0.8195 H         1 <0>         0.4318
     31 H6          0.1625   -0.1167   -2.0897 H         1 <0>         0.1378
     32 H7          1.7123   -0.1005   -1.2143 H         1 <0>         0.1445
     33 H8          1.0371   -2.2132   -3.3344 H         1 <0>         0.0929
     34 H9          2.5264   -2.0520   -2.3730 H         1 <0>         0.0968
     35 H10         2.1549   -4.3104   -1.4188 H         1 <0>         0.0925
     36 H11         0.6656   -4.4716   -2.3802 H         1 <0>         0.1047
     37 H12        -0.0974   -4.3146   -4.5602 H         1 <0>         0.1321
     38 H13        -0.6846   -4.8561   -6.8790 H         1 <0>         0.1386
     39 H14         1.0570   -5.6266   -8.4429 H         1 <0>         0.1401
     40 H15         3.3769   -5.8514   -7.6803 H         1 <0>         0.1359
     41 H16         5.8637   -3.7541   -6.5467 H         1 <0>         0.1423
     42 H17         7.9318   -4.4687   -7.6728 H         1 <0>         0.1440
     43 H18         8.6730   -6.8102   -7.5226 H         1 <0>         0.1458
     44 H19         7.3498   -8.4460   -6.2458 H         1 <0>         0.1498
     45 H20        -1.0871   -2.2181   -2.1237 H         1 <0>         0.3914
     46 H21        -0.9445   -0.3533    0.0092 H         1 <0>         0.4345
@<TRIPOS>BOND
     1    1    2 1
     2    1   27 1
     3    1   28 1
     4    1   29 1
     5    2    3 1
     6    2   30 1
     7    2   46 1
     8    3    4 1
     9    3   31 1
    10    3   32 1
    11    4    5 1
    12    4    6 1
    13    4   26 1
    14    6    7 1
    15    6   33 1
    16    6   34 1
    17    7    8 1
    18    7   35 1
    19    7   36 1
    20    8   16 1
    21    8    9 1
    22    9   14 ar
    23    9   10 ar
    24   10   11 ar
    25   10   37 1
    26   11   12 ar
    27   11   38 1
    28   12   13 ar
    29   12   39 1
    30   13   14 ar
    31   13   40 1
    32   14   15 1
    33   15   16 1
    34   15   19 1
    35   16   17 2
    36   16   18 2
    37   19   24 ar
    38   19   20 ar
    39   20   21 ar
    40   20   41 1
    41   21   22 ar
    42   21   42 1
    43   22   23 ar
    44   22   43 1
    45   23   24 ar
    46   23   44 1
    47   24   25 1
    48   26   45 1
@<TRIPOS>MOLECULE
ZINC00020245
   46    48     0     0     0
SMALL
USER_CHARGES

@<TRIPOS>ATOM
      1 C1         -5.6836    1.3838    0.0162 C.3       1 <0>        -0.0473
      2 N1         -5.6620   -0.0833   -0.0564 N.4       1 <0>        -0.3868
      3 C2         -6.3713   -0.5242   -1.2649 C.3       1 <0>        -0.0522
      4 C3         -4.2702   -0.5505   -0.1076 C.3       1 <0>        -0.0086
      5 C4         -4.2434   -2.0795   -0.0575 C.3       1 <0>        -0.1781
      6 C5         -2.7938   -2.5661   -0.1108 C.3       1 <0>         0.1490
      7 N2         -2.7704   -4.0309   -0.1190 N.pl3     1 <0>        -0.6108
      8 C6         -2.7295   -4.7451   -1.3212 C.ar      1 <0>         0.1758
      9 C7         -1.6865   -4.4783   -2.2022 C.ar      1 <0>        -0.1411
     10 C8         -1.5734   -5.1772   -3.3856 C.ar      1 <0>        -0.1022
     11 C9         -2.5089   -6.1508   -3.6854 C.ar      1 <0>        -0.1266
     12 C10        -3.5489   -6.4041   -2.8209 C.ar      1 <0>        -0.1101
     13 C11        -3.6933   -5.6947   -1.6266 C.ar      1 <0>        -0.0998
     14 C12        -4.9357   -6.0340   -0.8354 C.3       1 <0>        -0.0687
     15 C13        -5.1005   -5.1892    0.4158 C.3       1 <0>        -0.0773
     16 C14        -3.9592   -5.4030    1.3779 C.ar      1 <0>        -0.0996
     17 C15        -2.7824   -4.7590    1.0748 C.ar      1 <0>         0.1523
     18 C16        -1.6837   -4.8488    1.9126 C.ar      1 <0>        -0.1184
     19 C17        -1.7825   -5.6251    3.0560 C.ar      1 <0>        -0.1094
     20 C18        -2.9565   -6.2950    3.3488 C.ar      1 <0>        -0.1165
     21 C19        -4.0679   -6.1865    2.5030 C.ar      1 <0>        -0.1028
     22 H1         -6.7163    1.7305    0.0542 H         1 <0>         0.1245
     23 H2         -5.1573    1.7109    0.9129 H         1 <0>         0.1235
     24 H3         -5.1933    1.7984   -0.8646 H         1 <0>         0.1221
     25 H4         -6.3552   -1.6128   -1.3188 H         1 <0>         0.1231
     26 H5         -7.4040   -0.1775   -1.2269 H         1 <0>         0.1246
     27 H6         -5.8810   -0.1096   -2.1457 H         1 <0>         0.1227
     28 H7         -3.8061   -0.2091   -1.0329 H         1 <0>         0.1308
     29 H8         -3.7207   -0.1494    0.7440 H         1 <0>         0.1320
     30 H9         -4.7075   -2.4209    0.8678 H         1 <0>         0.0908
     31 H10        -4.7929   -2.4806   -0.9091 H         1 <0>         0.0915
     32 H11        -2.3174   -2.1901   -1.0161 H         1 <0>         0.0824
     33 H12        -2.2550   -2.1990    0.7627 H         1 <0>         0.0801
     34 H13        -0.9599   -3.7176   -1.9576 H         1 <0>         0.1215
     35 H14        -0.7646   -4.9667   -4.0697 H         1 <0>         0.1276
     36 H15        -2.4229   -6.7145   -4.6025 H         1 <0>         0.1250
     37 H16        -4.2693   -7.1687   -3.0712 H         1 <0>         0.1222
     38 H17        -5.8074   -5.8880   -1.4734 H         1 <0>         0.0793
     39 H18        -4.8898   -7.0837   -0.5452 H         1 <0>         0.0765
     40 H19        -5.1365   -4.1371    0.1334 H         1 <0>         0.0724
     41 H20        -6.0358   -5.4578    0.9068 H         1 <0>         0.0709
     42 H21        -0.7686   -4.3248    1.6795 H         1 <0>         0.1257
     43 H22        -0.9372   -5.7074    3.7231 H         1 <0>         0.1275
     44 H23        -3.0178   -6.9071    4.2365 H         1 <0>         0.1269
     45 H24        -4.9880   -6.7067    2.7249 H         1 <0>         0.1290
     46 H25        -6.1159   -0.4671    0.7589 H         1 <0>         0.4268
@<TRIPOS>BOND
     1    1    2 1
     2    1   22 1
     3    1   23 1
     4    1   24 1
     5    2    3 1
     6    2    4 1
     7    2   46 1
     8    3   25 1
     9    3   26 1
    10    3   27 1
    11    4    5 1
    12    4   28 1
    13    4   29 1
    14    5    6 1
    15    5   30 1
    16    5   31 1
    17    6    7 1
    18    6   32 1
    19    6   33 1
    20    7   17 1
    21    7    8 1
    22    8   13 ar
    23    8    9 ar
    24    9   10 ar
    25    9   34 1
    26   10   11 ar
    27   10   35 1
    28   11   12 ar
    29   11   36 1
    30   12   13 ar
    31   12   37 1
    32   13   14 1
    33   14   15 1
    34   14   38 1
    35   14   39 1
    36   15   16 1
    37   15   40 1
    38   15   41 1
    39   16   21 ar
    40   16   17 ar
    41   17   18 ar
    42   18   19 ar
    43   18   42 1
    44   19   20 ar
    45   19   43 1
    46   20   21 ar
    47   20   44 1
    48   21   45 1
@<TRIPOS>MOLECULE
ZINC01851149
   58    61     0     0     0
SMALL
USER_CHARGES

@<TRIPOS>ATOM
      1 C1         -0.0167    1.3781    0.0096 C.ar      1 <0>        -0.0896
      2 C2          1.1690    2.0873    0.0021 C.ar      1 <0>        -0.1006
      3 C3          2.3816    1.4109   -0.0131 C.ar      1 <0>         0.1668
      4 C4          2.3986    0.0211   -0.0208 C.ar      1 <0>        -0.0379
      5 C5          1.2084   -0.6828   -0.0132 C.ar      1 <0>        -0.0271
      6 C6          0.0021   -0.0041    0.0020 C.ar      1 <0>        -0.0892
      7 Cl1         1.2271   -2.4187   -0.0233 Cl        1 <0>        -0.0322
      8 Cl2         3.9117   -0.8297   -0.0404 Cl        1 <0>        -0.0503
      9 N1          3.5822    2.1260   -0.0212 N.pl3     1 <0>        -0.6733
     10 C7          4.2166    2.5248   -1.2872 C.3       1 <0>         0.1212
     11 C8          5.6874    2.0967   -1.2494 C.3       1 <0>        -0.0255
     12 N2          6.3270    2.6517   -0.0498 N.4       1 <0>        -0.3792
     13 C9          5.7166    2.0749    1.1547 C.3       1 <0>        -0.0318
     14 C10         4.2444    2.5067    1.2361 C.3       1 <0>         0.1223
     15 C11         7.7610    2.3338   -0.0701 C.3       1 <0>        -0.0093
     16 C12         8.4515    3.0158    1.1127 C.3       1 <0>        -0.1453
     17 C13         9.9450    2.6847    1.0915 C.3       1 <0>        -0.1184
     18 C14        10.6355    3.3667    2.2743 C.3       1 <0>         0.0595
     19 O1         12.0305    3.0574    2.2545 O.3       1 <0>        -0.3124
     20 C15        12.7944    3.5890    3.2448 C.ar      1 <0>         0.1559
     21 C16        12.2111    4.3876    4.2189 C.ar      1 <0>        -0.2294
     22 C17        12.9865    4.9295    5.2261 C.ar      1 <0>        -0.0411
     23 C18        14.3441    4.6777    5.2669 C.ar      1 <0>        -0.1551
     24 C19        14.9331    3.8788    4.2952 C.ar      1 <0>         0.2059
     25 C20        14.1552    3.3295    3.2858 C.ar      1 <0>        -0.1852
     26 N3         16.3074    3.6248    4.3397 N.am      1 <0>        -0.6651
     27 C21        17.0003    3.8176    5.4770 C.2       1 <0>         0.5216
     28 O2         18.1945    3.6066    5.4945 O.2       1 <0>        -0.5157
     29 C22        16.3105    4.2925    6.7275 C.3       1 <0>        -0.1402
     30 C23        15.1900    5.2680    6.3653 C.3       1 <0>        -0.0752
     31 H1         -0.9596    1.9044    0.0260 H         1 <0>         0.1477
     32 H2          1.1527    3.1672    0.0077 H         1 <0>         0.1420
     33 H3         -0.9265   -0.5556    0.0083 H         1 <0>         0.1502
     34 H4          3.7134    2.0333   -2.1198 H         1 <0>         0.1171
     35 H5          4.1529    3.6066   -1.4040 H         1 <0>         0.0851
     36 H6          5.7487    1.0088   -1.2236 H         1 <0>         0.1293
     37 H7          6.1971    2.4687   -2.1381 H         1 <0>         0.1401
     38 H8          5.7771    0.9876    1.1077 H         1 <0>         0.1300
     39 H9          6.2479    2.4307    2.0374 H         1 <0>         0.1398
     40 H10         4.1834    3.5868    1.3697 H         1 <0>         0.0853
     41 H11         3.7595    2.0032    2.0724 H         1 <0>         0.1165
     42 H12         7.8950    1.2546    0.0040 H         1 <0>         0.1305
     43 H13         8.1993    2.6912   -1.0020 H         1 <0>         0.1352
     44 H14         8.3175    4.0950    1.0386 H         1 <0>         0.0923
     45 H15         8.0132    2.6584    2.0445 H         1 <0>         0.0907
     46 H16        10.0790    1.6055    1.1656 H         1 <0>         0.0866
     47 H17        10.3833    3.0420    0.1597 H         1 <0>         0.0875
     48 H18        10.5015    4.4459    2.2002 H         1 <0>         0.0675
     49 H19        10.1972    3.0093    3.2062 H         1 <0>         0.0669
     50 H20        11.1499    4.5859    4.1893 H         1 <0>         0.1286
     51 H21        12.5305    5.5511    5.9824 H         1 <0>         0.1354
     52 H22        14.6099    2.7045    2.5314 H         1 <0>         0.1380
     53 H23        16.7645    3.3072    3.5453 H         1 <0>         0.4136
     54 H24        15.8894    3.4371    7.2558 H         1 <0>         0.1060
     55 H25        17.0331    4.7940    7.3713 H         1 <0>         0.1134
     56 H26        15.6229    6.2086    6.0246 H         1 <0>         0.0845
     57 H27        14.5699    5.4506    7.2429 H         1 <0>         0.0936
     58 H28         6.2073    3.6535   -0.0392 H         1 <0>         0.4226
@<TRIPOS>BOND
     1    1    6 ar
     2    1    2 ar
     3    1   31 1
     4    2    3 ar
     5    2   32 1
     6    3    4 ar
     7    3    9 1
     8    4    5 ar
     9    4    8 1
    10    5    6 ar
    11    5    7 1
    12    6   33 1
    13    9   14 1
    14    9   10 1
    15   10   11 1
    16   10   34 1
    17   10   35 1
    18   11   12 1
    19   11   36 1
    20   11   37 1
    21   12   13 1
    22   12   15 1
    23   12   58 1
    24   13   14 1
    25   13   38 1
    26   13   39 1
    27   14   40 1
    28   14   41 1
    29   15   16 1
    30   15   42 1
    31   15   43 1
    32   16   17 1
    33   16   44 1
    34   16   45 1
    35   17   18 1
    36   17   46 1
    37   17   47 1
    38   18   19 1
    39   18   48 1
    40   18   49 1
    41   19   20 1
    42   20   25 ar
    43   20   21 ar
    44   21   22 ar
    45   21   50 1
    46   22   23 ar
    47   22   51 1
    48   23   30 1
    49   23   24 ar
    50   24   25 ar
    51   24   26 1
    52   25   52 1
    53   26   27 am
    54   26   53 1
    55   27   28 2
    56   27   29 1
    57   29   30 1
    58   29   54 1
    59   29   55 1
    60   30   56 1
    61   30   57 1
@<TRIPOS>MOLECULE
ZINC01851149
   57    60     0     0     0
SMALL
USER_CHARGES

@<TRIPOS>ATOM
      1 C1         -0.0167    1.3781    0.0096 C.ar      1 <0>        -0.0962
      2 C2          1.1690    2.0873    0.0021 C.ar      1 <0>        -0.1094
      3 C3          2.3816    1.4109   -0.0131 C.ar      1 <0>         0.1932
      4 C4          2.3986    0.0211   -0.0208 C.ar      1 <0>        -0.0428
      5 C5          1.2084   -0.6828   -0.0132 C.ar      1 <0>        -0.0286
      6 C6          0.0021   -0.0041    0.0020 C.ar      1 <0>        -0.1045
      7 Cl1         1.2271   -2.4187   -0.0233 Cl        1 <0>        -0.0488
      8 Cl2         3.9117   -0.8297   -0.0404 Cl        1 <0>        -0.0433
      9 N1          3.5822    2.1260   -0.0212 N.pl3     1 <0>        -0.6753
     10 C7          4.2154    2.5239   -1.2877 C.3       1 <0>         0.1522
     11 C8          5.6814    2.0786   -1.2601 C.3       1 <0>         0.0390
     12 N2          6.3271    2.6054   -0.0504 N.3       1 <0>        -0.5335
     13 C9          5.7110    2.0562    1.1648 C.3       1 <0>         0.0352
     14 C10         4.2431    2.5059    1.2366 C.3       1 <0>         0.1520
     15 C11         7.7731    2.3471   -0.0705 C.3       1 <0>         0.0570
     16 C12         8.4448    3.1181    1.0676 C.3       1 <0>        -0.1122
     17 C13         9.9508    2.8491    1.0467 C.3       1 <0>        -0.1185
     18 C14        10.6225    3.6201    2.1847 C.3       1 <0>         0.0609
     19 O1         12.0291    3.3688    2.1652 O.3       1 <0>        -0.3131
     20 C15        12.7788    3.9828    3.1179 C.ar      1 <0>         0.1632
     21 C16        12.1712    4.8060    4.0560 C.ar      1 <0>        -0.2281
     22 C17        12.9321    5.4316    5.0250 C.ar      1 <0>        -0.0412
     23 C18        14.2995    5.2392    5.0634 C.ar      1 <0>        -0.1625
     24 C19        14.9129    4.4161    4.1277 C.ar      1 <0>         0.2001
     25 C20        14.1497    3.7829    3.1569 C.ar      1 <0>        -0.1880
     26 N3         16.2971    4.2225    4.1697 N.am      1 <0>        -0.6633
     27 C21        16.9915    4.5031    5.2876 C.2       1 <0>         0.5225
     28 O2         18.1937    4.3433    5.3024 O.2       1 <0>        -0.5237
     29 C22        16.2937    5.0132    6.5196 C.3       1 <0>        -0.1395
     30 C23        15.1296    5.9209    6.1201 C.3       1 <0>        -0.0723
     31 H1         -0.9596    1.9044    0.0260 H         1 <0>         0.1404
     32 H2          1.1527    3.1672    0.0077 H         1 <0>         0.1387
     33 H3         -0.9265   -0.5556    0.0083 H         1 <0>         0.1426
     34 H4          3.7022    2.0431   -2.1205 H         1 <0>         0.0715
     35 H5          4.1638    3.6071   -1.3984 H         1 <0>         0.0629
     36 H6          5.7306    0.9897   -1.2538 H         1 <0>         0.0403
     37 H7          6.1944    2.4613   -2.1423 H         1 <0>         0.0804
     38 H8          5.7599    0.9676    1.1373 H         1 <0>         0.0406
     39 H9          6.2457    2.4226    2.0412 H         1 <0>         0.0819
     40 H10         4.1941    3.5874    1.3639 H         1 <0>         0.0629
     41 H11         3.7483    2.0131    2.0736 H         1 <0>         0.0709
     42 H12         7.9533    1.2798    0.0578 H         1 <0>         0.0339
     43 H13         8.1873    2.6734   -1.0245 H         1 <0>         0.0769
     44 H14         8.2646    4.1855    0.9393 H         1 <0>         0.0762
     45 H15         8.0306    2.7918    2.0216 H         1 <0>         0.0660
     46 H16        10.1310    1.7817    1.1750 H         1 <0>         0.0732
     47 H17        10.3650    3.1754    0.0927 H         1 <0>         0.0761
     48 H18        10.4423    4.6874    2.0565 H         1 <0>         0.0659
     49 H19        10.2083    3.2938    3.1387 H         1 <0>         0.0641
     50 H20        11.1023    4.9580    4.0282 H         1 <0>         0.1320
     51 H21        12.4571    6.0722    5.7533 H         1 <0>         0.1337
     52 H22        14.6236    3.1389    2.4308 H         1 <0>         0.1367
     53 H23        16.7599    3.8832    3.3877 H         1 <0>         0.4126
     54 H24        15.9140    4.1697    7.0961 H         1 <0>         0.1050
     55 H25        17.0002    5.5774    7.1284 H         1 <0>         0.1106
     56 H26        15.5192    6.8597    5.7264 H         1 <0>         0.0818
     57 H27        14.5104    6.1229    6.9941 H         1 <0>         0.0917
@<TRIPOS>BOND
     1    1    6 ar
     2    1    2 ar
     3    1   31 1
     4    2    3 ar
     5    2   32 1
     6    3    4 ar
     7    3    9 1
     8    4    5 ar
     9    4    8 1
    10    5    6 ar
    11    5    7 1
    12    6   33 1
    13    9   14 1
    14    9   10 1
    15   10   11 1
    16   10   34 1
    17   10   35 1
    18   11   12 1
    19   11   36 1
    20   11   37 1
    21   12   13 1
    22   12   15 1
    23   13   14 1
    24   13   38 1
    25   13   39 1
    26   14   40 1
    27   14   41 1
    28   15   16 1
    29   15   42 1
    30   15   43 1
    31   16   17 1
    32   16   44 1
    33   16   45 1
    34   17   18 1
    35   17   46 1
    36   17   47 1
    37   18   19 1
    38   18   48 1
    39   18   49 1
    40   19   20 1
    41   20   25 ar
    42   20   21 ar
    43   21   22 ar
    44   21   50 1
    45   22   23 ar
    46   22   51 1
    47   23   30 1
    48   23   24 ar
    49   24   25 ar
    50   24   26 1
    51   25   52 1
    52   26   27 am
    53   26   53 1
    54   27   28 2
    55   27   29 1
    56   29   30 1
    57   29   54 1
    58   29   55 1
    59   30   56 1
    60   30   57 1
@<TRIPOS>MOLECULE
ZINC06019879
   43    46     0     0     0
SMALL
USER_CHARGES
(4-methylsulfanylphenyl)BLAH
@<TRIPOS>ATOM
      1 C1          0.0021   -0.0041    0.0020 C.3       1 <0>        -0.1514
      2 H1          0.5293   -0.3651    0.8851 H         1 <0>         0.0868
      3 H2         -1.0205   -0.3814    0.0098 H         1 <0>         0.1179
      4 H3          0.5123   -0.3556   -0.8948 H         1 <0>         0.0862
      5 S1         -0.0225    1.8097    0.0120 S.3       1 <0>        -0.0886
      6 C2          1.6811    2.2592   -0.0019 C.ar      1 <0>        -0.0705
      7 C3          2.6614    1.2741   -0.0108 C.ar      1 <0>        -0.1215
      8 C4          3.9954    1.6302   -0.0274 C.ar      1 <0>        -0.1067
      9 C5          4.3567    2.9652   -0.0232 C.ar      1 <0>        -0.1112
     10 C6          3.3840    3.9482   -0.0091 C.ar      1 <0>        -0.0775
     11 C7          2.0479    3.5997    0.0018 C.ar      1 <0>        -0.0840
     12 C8          5.8138    3.3496   -0.0346 C.3       1 <0>        -0.0262
     13 H4          5.8936    4.4366   -0.0503 H         1 <0>         0.1343
     14 C9          6.4700    2.7824   -1.2999 C.3       1 <0>         0.0149
     15 C10         7.1618    0.5464   -2.1909 C.3       1 <0>        -0.0051
     16 C11         7.7796   -0.7062   -1.5101 C.3       1 <0>        -0.1519
     17 C12         8.2096   -0.2222   -0.0999 C.3       1 <0>        -0.1449
     18 C13         7.8811    1.2718   -0.1069 C.3       1 <0>         0.0789
     19 H5          8.7316    1.8358   -0.4899 H         1 <0>         0.1481
     20 C14         7.4373    1.8390    1.2019 C.ar      1 <0>        -0.1312
     21 C15         6.4681    2.8294    1.2189 C.ar      1 <0>        -0.0827
     22 C16         6.0747    3.3670    2.4359 C.ar      1 <0>        -0.0946
     23 C17         6.6311    2.9168    3.6155 C.ar      1 <0>        -0.0909
     24 C18         7.5886    1.9202    3.5931 C.ar      1 <0>        -0.1033
     25 C19         7.9897    1.3843    2.3843 C.ar      1 <0>        -0.0865
     26 H6          2.3800    0.2314   -0.0092 H         1 <0>         0.1316
     27 H7          4.7577    0.8652   -0.0388 H         1 <0>         0.1008
     28 H8          3.6697    4.9897   -0.0062 H         1 <0>         0.1388
     29 H9          1.2888    4.3679    0.0129 H         1 <0>         0.1401
     30 H10         5.7932    2.8881   -2.1478 H         1 <0>         0.1434
     31 H11         7.4031    3.3086   -1.5014 H         1 <0>         0.1357
     32 H12         6.3043    0.2676   -2.8033 H         1 <0>         0.1393
     33 H13         7.9096    1.0673   -2.7888 H         1 <0>         0.1372
     34 H14         7.0360   -1.4990   -1.4286 H         1 <0>         0.1006
     35 H15         8.6463   -1.0545   -2.0720 H         1 <0>         0.1145
     36 H16         7.6365   -0.7360    0.6718 H         1 <0>         0.1008
     37 H17         9.2781   -0.3780    0.0485 H         1 <0>         0.1172
     38 H18         5.3260    4.1451    2.4601 H         1 <0>         0.1334
     39 H19         6.3180    3.3431    4.5571 H         1 <0>         0.1369
     40 H20         8.0214    1.5625    4.5156 H         1 <0>         0.1385
     41 H21         8.7382    0.6060    2.3635 H         1 <0>         0.1355
     42 N1          6.7673    1.3448   -1.0033 N.4       1 <0>        -0.4042
     43 H22         5.9360    0.9222   -0.5736 H         1 <0>         0.4214
@<TRIPOS>BOND
     1    1    2 1
     2    1    3 1
     3    1    4 1
     4    1    5 1
     5    5    6 1
     6    6   11 ar
     7    6    7 ar
     8    7    8 ar
     9    7   26 1
    10    8    9 ar
    11    8   27 1
    12    9   10 ar
    13    9   12 1
    14   10   11 ar
    15   10   28 1
    16   11   29 1
    17   12   13 1
    18   12   21 1
    19   12   14 1
    20   14   30 1
    21   14   31 1
    22   14   42 1
    23   15   16 1
    24   15   32 1
    25   15   33 1
    26   15   42 1
    27   16   17 1
    28   16   34 1
    29   16   35 1
    30   17   18 1
    31   17   36 1
    32   17   37 1
    33   18   19 1
    34   18   20 1
    35   18   42 1
    36   20   25 ar
    37   20   21 ar
    38   21   22 ar
    39   22   23 ar
    40   22   38 1
    41   23   24 ar
    42   23   39 1
    43   24   25 ar
    44   24   40 1
    45   25   41 1
    46   42   43 1
@<TRIPOS>MOLECULE
ZINC05370091
   36    37     0     0     0
SMALL
USER_CHARGES
2-(3-chlorophenyl)-3,5,5-trimethyl-morpholin-2-ol
@<TRIPOS>ATOM
      1 C1          2.5454    2.0833    1.1652 C.3       1 <0>        -0.1738
      2 C2          1.8006    2.1760   -0.1621 C.3       1 <0>         0.0225
      3 H1          1.6811    3.2541   -0.3950 H         1 <0>         0.1477
      4 C3          0.3941    1.5901   -0.0312 C.3       1 <0>         0.3337
      5 O1          0.4750    0.1623   -0.0143 O.3       1 <0>        -0.3597
      6 C4          1.0263   -0.3784   -1.2174 C.3       1 <0>         0.0535
      7 C5          2.4670    0.1153   -1.3801 C.3       1 <0>         0.0241
      8 C6          3.3742   -0.5838   -0.3692 C.3       1 <0>        -0.1685
      9 C7          2.9420   -0.2773   -2.7939 C.3       1 <0>        -0.1820
     10 C8         -0.2307    2.0691    1.2538 C.ar      1 <0>        -0.1280
     11 C9         -0.9665    3.2396    1.2704 C.ar      1 <0>        -0.0880
     12 C10        -1.5439    3.6770    2.4475 C.ar      1 <0>        -0.1024
     13 C11        -1.3772    2.9499    3.6113 C.ar      1 <0>        -0.0837
     14 C12        -0.6368    1.7815    3.5965 C.ar      1 <0>        -0.0396
     15 C13        -0.0634    1.3413    2.4166 C.ar      1 <0>        -0.0737
     16 Cl1        -0.4266    0.8681    5.0578 Cl        1 <0>        -0.0476
     17 O2         -0.4082    2.0149   -1.1344 O.3       1 <0>        -0.5644
     18 H2          2.5207    1.0545    1.5246 H         1 <0>         0.0906
     19 H3          3.5806    2.3938    1.0233 H         1 <0>         0.0900
     20 H4          2.0675    2.7352    1.8963 H         1 <0>         0.1109
     21 H5          1.0228   -1.4681   -1.1594 H         1 <0>         0.1408
     22 H6          0.4325   -0.0612   -2.0732 H         1 <0>         0.0909
     23 H7          3.4335   -1.6458   -0.6078 H         1 <0>         0.1078
     24 H8          4.3713   -0.1456   -0.4120 H         1 <0>         0.0817
     25 H9          2.9651   -0.4589    0.6333 H         1 <0>         0.0873
     26 H10         2.2957    0.1896   -3.5370 H         1 <0>         0.0838
     27 H11         3.9676    0.0619   -2.9398 H         1 <0>         0.0872
     28 H12         2.8985   -1.3608   -2.9039 H         1 <0>         0.1090
     29 H13        -1.0932    3.8104    0.3623 H         1 <0>         0.1405
     30 H14        -2.1222    4.5890    2.4589 H         1 <0>         0.1445
     31 H15        -1.8247    3.2941    4.5320 H         1 <0>         0.1441
     32 H16         0.5145    0.4290    2.4044 H         1 <0>         0.1425
     33 H17        -1.3152    1.6803   -1.1130 H         1 <0>         0.4126
     34 N1          2.5610    1.5978   -1.2986 N.4       1 <0>        -0.5072
     35 H18         3.5492    1.8559   -1.1935 H         1 <0>         0.4340
     36 H19         2.1943    1.9956   -2.1712 H         1 <0>         0.4385
@<TRIPOS>BOND
     1    1    2 1
     2    1   18 1
     3    1   19 1
     4    1   20 1
     5    2    3 1
     6    2    4 1
     7    2   34 1
     8    4    5 1
     9    4   10 1
    10    4   17 1
    11    5    6 1
    12    6    7 1
    13    6   21 1
    14    6   22 1
    15    7    8 1
    16    7    9 1
    17    7   34 1
    18    8   23 1
    19    8   24 1
    20    8   25 1
    21    9   26 1
    22    9   27 1
    23    9   28 1
    24   10   15 ar
    25   10   11 ar
    26   11   12 ar
    27   11   29 1
    28   12   13 ar
    29   12   30 1
    30   13   14 ar
    31   13   31 1
    32   14   15 ar
    33   14   16 1
    34   15   32 1
    35   17   33 1
    36   34   35 1
    37   34   36 1
@<TRIPOS>MOLECULE
ZINC01536779
   41    43     0     0     0
SMALL
USER_CHARGES

@<TRIPOS>ATOM
      1 C1         -0.7400    0.9331    0.2776 C.3       1 <0>        -0.0476
      2 N1         -0.4844   -0.5066    0.1362 N.4       1 <0>        -0.5085
      3 C2          0.3213   -0.7448   -1.0688 C.3       1 <0>        -0.0132
      4 C3          0.5875   -2.2442   -1.2161 C.3       1 <0>        -0.1420
      5 C4          1.4267   -2.4924   -2.4711 C.3       1 <0>         0.1856
      6 H1          2.3354   -1.8921   -2.4252 H         1 <0>         0.1031
      7 C5          1.7925   -3.9522   -2.5503 C.2       1 <0>        -0.2178
      8 C6          2.9174   -4.5748   -2.1210 C.2       1 <0>        -0.1229
      9 C7          3.0378   -5.9401   -2.3002 C.2       1 <0>        -0.1690
     10 C8          2.0274   -6.6160   -2.8999 C.2       1 <0>        -0.1537
     11 S1          0.8534   -5.3114   -3.2268 S.3       1 <0>         0.0860
     12 O1          0.6724   -2.1269   -3.6285 O.3       1 <0>        -0.3033
     13 C9          1.3745   -1.7982   -4.7435 C.ar      1 <0>         0.1312
     14 C10         2.7346   -1.9306   -4.7642 C.ar      1 <0>        -0.2054
     15 C11         3.4685   -1.5981   -5.8992 C.ar      1 <0>        -0.0827
     16 C12         2.8540   -1.1319   -7.0215 C.ar      1 <0>        -0.1285
     17 C13         1.4570   -0.9818   -7.0408 C.ar      1 <0>        -0.0223
     18 C14         0.7049   -1.3236   -5.8896 C.ar      1 <0>        -0.0635
     19 C15        -0.6915   -1.1779   -5.9104 C.ar      1 <0>        -0.0959
     20 C16        -1.3040   -0.7161   -7.0351 C.ar      1 <0>        -0.1186
     21 C17        -0.5654   -0.3847   -8.1695 C.ar      1 <0>        -0.1028
     22 C18         0.7904   -0.5031   -8.1819 C.ar      1 <0>        -0.1090
     23 H2          0.2082    1.4637    0.3638 H         1 <0>         0.1241
     24 H3         -1.2800    1.2940   -0.5978 H         1 <0>         0.1247
     25 H4         -1.3378    1.1099    1.1717 H         1 <0>         0.1281
     26 H5          0.0155   -0.8406    0.9465 H         1 <0>         0.4304
     27 H6         -0.2187   -0.3839   -1.9442 H         1 <0>         0.1408
     28 H7          1.2696   -0.2142   -0.9826 H         1 <0>         0.1345
     29 H8          1.1275   -2.6051   -0.3407 H         1 <0>         0.1121
     30 H9         -0.3607   -2.7749   -1.3023 H         1 <0>         0.1048
     31 H10         3.7079   -4.0125   -1.6464 H         1 <0>         0.1341
     32 H11         3.9238   -6.4605   -1.9677 H         1 <0>         0.1404
     33 H12         1.9508   -7.6707   -3.1194 H         1 <0>         0.1916
     34 H13         3.2471   -2.2981   -3.8875 H         1 <0>         0.1267
     35 H14         4.5425   -1.7112   -5.8895 H         1 <0>         0.1280
     36 H15         3.4384   -0.8782   -7.8935 H         1 <0>         0.1327
     37 H16        -1.2767   -1.4311   -5.0388 H         1 <0>         0.1266
     38 H17        -2.3782   -0.6052   -7.0486 H         1 <0>         0.1262
     39 H18        -1.0757   -0.0208   -9.0490 H         1 <0>         0.1287
     40 H19         1.3500   -0.2422   -9.0680 H         1 <0>         0.1339
     41 H20        -1.3622   -0.9977    0.0564 H         1 <0>         0.4321
@<TRIPOS>BOND
     1    1    2 1
     2    1   23 1
     3    1   24 1
     4    1   25 1
     5    2    3 1
     6    2   26 1
     7    2   41 1
     8    3    4 1
     9    3   27 1
    10    3   28 1
    11    4    5 1
    12    4   29 1
    13    4   30 1
    14    5    6 1
    15    5    7 1
    16    5   12 1
    17    7   11 1
    18    7    8 2
    19    8    9 1
    20    8   31 1
    21    9   10 2
    22    9   32 1
    23   10   11 1
    24   10   33 1
    25   12   13 1
    26   13   18 ar
    27   13   14 ar
    28   14   15 ar
    29   14   34 1
    30   15   16 ar
    31   15   35 1
    32   16   17 ar
    33   16   36 1
    34   17   22 ar
    35   17   18 ar
    36   18   19 ar
    37   19   20 ar
    38   19   37 1
    39   20   21 ar
    40   20   38 1
    41   21   22 ar
    42   21   39 1
    43   22   40 1
@<TRIPOS>MOLECULE
ZINC03800706
   46    48     0     0     0
SMALL
USER_CHARGES

@<TRIPOS>ATOM
      1 C1         -0.0178    1.4648    0.0101 C.3       1 <0>        -0.0477
      2 N1          0.0021   -0.0041    0.0020 N.4       1 <0>        -0.3873
      3 C2          0.7126   -0.4907    1.1921 C.3       1 <0>        -0.0533
      4 C3         -1.3761   -0.5125    0.0124 C.3       1 <0>        -0.0115
      5 C4         -1.3584   -2.0365   -0.1216 C.3       1 <0>        -0.1541
      6 C5         -2.7938   -2.5661   -0.1108 C.3       1 <0>        -0.1232
      7 C6         -2.7762   -4.0901   -0.2449 C.3       1 <0>         0.1992
      8 C7         -4.1888   -4.6236   -0.3096 C.ar      1 <0>        -0.0991
      9 C8         -5.1200   -4.6778   -1.3285 C.ar      1 <0>        -0.0822
     10 C9         -6.3628   -5.2329   -1.1018 C.ar      1 <0>        -0.0623
     11 C10        -6.6783   -5.7409    0.1602 C.ar      1 <0>        -0.0038
     12 C11        -5.7322   -5.6836    1.1861 C.ar      1 <0>        -0.0451
     13 C12        -4.4959   -5.1266    0.9466 C.ar      1 <0>        -0.1272
     14 C13        -3.2820   -4.9180    1.8221 C.3       1 <0>         0.0885
     15 O1         -2.1820   -4.6839    0.9239 O.3       1 <0>        -0.3402
     16 C14        -7.9666   -6.3178    0.4015 C.1       1 <0>         0.2390
     17 N2         -8.9886   -6.7754    0.5930 N.1       1 <0>        -0.3890
     18 C15        -2.0103   -4.4934   -1.4785 C.ar      1 <0>        -0.1013
     19 C16        -1.9792   -3.6548   -2.5771 C.ar      1 <0>        -0.0911
     20 C17        -1.2768   -4.0233   -3.7088 C.ar      1 <0>        -0.1554
     21 C18        -0.6042   -5.2331   -3.7421 C.ar      1 <0>         0.1115
     22 C19        -0.6360   -6.0722   -2.6412 C.ar      1 <0>        -0.1493
     23 C20        -1.3347   -5.6992   -1.5087 C.ar      1 <0>        -0.0583
     24 F1          0.0824   -5.5946   -4.8480 F         1 <0>        -0.1325
     25 H1          1.0047    1.8421    0.0024 H         1 <0>         0.1245
     26 H2         -0.5450    1.8259   -0.8730 H         1 <0>         0.1233
     27 H3         -0.5280    1.8163    0.9069 H         1 <0>         0.1220
     28 H4          0.2024   -0.1392    2.0889 H         1 <0>         0.1225
     29 H5          0.7273   -1.5806    1.1861 H         1 <0>         0.1260
     30 H6          1.7352   -0.1134    1.1844 H         1 <0>         0.1243
     31 H7         -1.8584   -0.2358    0.9500 H         1 <0>         0.1302
     32 H8         -1.9290   -0.0808   -0.8218 H         1 <0>         0.1307
     33 H9         -0.8762   -2.3132   -1.0592 H         1 <0>         0.0947
     34 H10        -0.8055   -2.4683    0.7126 H         1 <0>         0.0979
     35 H11        -3.2761   -2.2894    0.8267 H         1 <0>         0.0874
     36 H12        -3.3467   -2.1344   -0.9450 H         1 <0>         0.0914
     37 H13        -4.8751   -4.2847   -2.3041 H         1 <0>         0.1371
     38 H14        -7.0904   -5.2740   -1.8989 H         1 <0>         0.1444
     39 H15        -5.9698   -6.0744    2.1645 H         1 <0>         0.1413
     40 H16        -3.4295   -4.0531    2.4687 H         1 <0>         0.0856
     41 H17        -3.0941   -5.8085    2.4219 H         1 <0>         0.1096
     42 H18        -2.5043   -2.7113   -2.5510 H         1 <0>         0.1338
     43 H19        -1.2530   -3.3681   -4.5670 H         1 <0>         0.1401
     44 H20        -0.1120   -7.0162   -2.6661 H         1 <0>         0.1417
     45 H21        -1.3560   -6.3515   -0.6482 H         1 <0>         0.1404
     46 H22         0.4744   -0.3295   -0.8281 H         1 <0>         0.4271
@<TRIPOS>BOND
     1    1    2 1
     2    1   25 1
     3    1   26 1
     4    1   27 1
     5    2    3 1
     6    2    4 1
     7    2   46 1
     8    3   28 1
     9    3   29 1
    10    3   30 1
    11    4    5 1
    12    4   31 1
    13    4   32 1
    14    5    6 1
    15    5   33 1
    16    5   34 1
    17    6    7 1
    18    6   35 1
    19    6   36 1
    20    7   15 1
    21    7    8 1
    22    7   18 1
    23    8   13 ar
    24    8    9 ar
    25    9   10 ar
    26    9   37 1
    27   10   11 ar
    28   10   38 1
    29   11   12 ar
    30   11   16 1
    31   12   13 ar
    32   12   39 1
    33   13   14 1
    34   14   15 1
    35   14   40 1
    36   14   41 1
    37   16   17 3
    38   18   23 ar
    39   18   19 ar
    40   19   20 ar
    41   19   42 1
    42   20   21 ar
    43   20   43 1
    44   21   22 ar
    45   21   24 1
    46   22   23 ar
    47   22   44 1
    48   23   45 1
@<TRIPOS>MOLECULE
ZINC45315721
   70    72     0     0     0
SMALL
USER_CHARGES

@<TRIPOS>ATOM
      1 C1         -0.0187    1.5258    0.0104 C.3       1 <0>        -0.1539
      2 C2          0.0021   -0.0041    0.0020 C.3       1 <0>         0.0597
      3 O1          0.6932   -0.4774    1.1597 O.3       1 <0>        -0.3538
      4 C3          0.8006   -1.8076    1.3039 C.2       1 <0>         0.4586
      5 O2          0.3237   -2.5457    0.4746 O.2       1 <0>        -0.5045
      6 C4          1.5162   -2.3806    2.5000 C.3       1 <0>        -0.1103
      7 C5          1.4962   -3.9085    2.4227 C.3       1 <0>        -0.0706
      8 C6          2.2117   -4.4814    3.6188 C.ar      1 <0>        -0.1103
      9 C7          3.5746   -4.7208    3.5575 C.ar      1 <0>        -0.0414
     10 C8          4.2416   -5.2456    4.6471 C.ar      1 <0>        -0.2057
     11 C9          3.5486   -5.5368    5.8121 C.ar      1 <0>         0.1651
     12 C10         2.1694   -5.2956    5.8786 C.ar      1 <0>        -0.0460
     13 C11         1.5081   -4.7596    4.7708 C.ar      1 <0>        -0.0251
     14 C12         1.4433   -5.5928    7.0766 C.1       1 <0>         0.2514
     15 N1          0.8673   -5.8286    8.0269 N.1       1 <0>        -0.4010
     16 O3          4.2026   -6.0533    6.8832 O.3       1 <0>        -0.2955
     17 C13         5.6076   -6.2725    6.7415 C.3       1 <0>         0.0274
     18 C14         6.1666   -6.8542    8.0415 C.3       1 <0>         0.0864
     19 H1          5.6108   -7.7539    8.3056 H         1 <0>         0.1346
     20 C15         7.6435   -7.2050    7.8497 C.3       1 <0>        -0.0501
     21 N2          8.1489   -7.8727    9.0566 N.4       1 <0>        -0.4982
     22 C16         9.5669   -8.2095    8.8725 C.3       1 <0>         0.0599
     23 C17         9.7170   -9.1451    7.6713 C.3       1 <0>        -0.1809
     24 C18        10.3672   -6.9292    8.6249 C.3       1 <0>        -0.1815
     25 C19        10.0933   -8.9049   10.1295 C.3       1 <0>        -0.0916
     26 C20        11.5480   -9.2504    9.9406 C.ar      1 <0>        -0.0974
     27 C21        11.8948  -10.4813    9.3864 C.ar      1 <0>        -0.1203
     28 C22        13.1988  -10.8245    9.2026 C.ar      1 <0>        -0.0903
     29 C23        14.2135   -9.9266    9.5758 C.ar      1 <0>        -0.0469
     30 C24        15.5710  -10.2454    9.4009 C.ar      1 <0>        -0.1081
     31 C25        16.5263   -9.3507    9.7737 C.ar      1 <0>        -0.1044
     32 C26        16.1794   -8.1197   10.3276 C.ar      1 <0>        -0.1051
     33 C27        14.8754   -7.7766   10.5118 C.ar      1 <0>        -0.1105
     34 C28        13.8608   -8.6748   10.1390 C.ar      1 <0>        -0.0531
     35 C29        12.5032   -8.3536   10.3087 C.ar      1 <0>        -0.0885
     36 O4          6.0381   -5.8904    9.0887 O.3       1 <0>        -0.5412
     37 H2          1.0039    1.9031    0.0027 H         1 <0>         0.0671
     38 H3         -0.5459    1.8868   -0.8726 H         1 <0>         0.0820
     39 H4         -0.5289    1.8773    0.9072 H         1 <0>         0.0675
     40 H5         -1.0205   -0.3814    0.0098 H         1 <0>         0.0693
     41 H6          0.5123   -0.3556   -0.8948 H         1 <0>         0.0690
     42 H7          2.5484   -2.0306    2.5079 H         1 <0>         0.1089
     43 H8          1.0156   -2.0564    3.4125 H         1 <0>         0.1097
     44 H9          0.4639   -4.2584    2.4148 H         1 <0>         0.0898
     45 H10         1.9967   -4.2327    1.5103 H         1 <0>         0.0898
     46 H11         4.1189   -4.4961    2.6522 H         1 <0>         0.1392
     47 H12         5.3043   -5.4298    4.5914 H         1 <0>         0.1369
     48 H13         0.4462   -4.5675    4.8156 H         1 <0>         0.1463
     49 H14         5.7857   -6.9717    5.9245 H         1 <0>         0.0871
     50 H15         6.1029   -5.3261    6.5244 H         1 <0>         0.0828
     51 H16         7.7504   -7.8716    6.9939 H         1 <0>         0.1490
     52 H17         8.2136   -6.2929    7.6733 H         1 <0>         0.1432
     53 H18         8.0499   -7.2556    9.8488 H         1 <0>         0.4323
     54 H19         9.3420   -8.6497    6.7757 H         1 <0>         0.0811
     55 H20        10.7691   -9.3950    7.5346 H         1 <0>         0.1119
     56 H21         9.1469  -10.0572    7.8477 H         1 <0>         0.0839
     57 H22        10.2602   -6.2626    9.4806 H         1 <0>         0.0834
     58 H23        11.4193   -7.1791    8.4882 H         1 <0>         0.1112
     59 H24         9.9921   -6.4338    7.7293 H         1 <0>         0.0812
     60 H25         9.9864   -8.2383   10.9853 H         1 <0>         0.0969
     61 H26         9.5232   -9.8170   10.3060 H         1 <0>         0.0980
     62 H27        11.1170  -11.1732    9.0987 H         1 <0>         0.1244
     63 H28        13.4526  -11.7822    8.7726 H         1 <0>         0.1328
     64 H29        15.8546  -11.1957    8.9733 H         1 <0>         0.1321
     65 H30        17.5688   -9.5983    9.6385 H         1 <0>         0.1300
     66 H31        16.9572   -7.4278   10.6153 H         1 <0>         0.1294
     67 H32        14.6215   -6.8194   10.9426 H         1 <0>         0.1294
     68 H33        12.2195   -7.4016   10.7325 H         1 <0>         0.1281
     69 H34         6.5086   -5.0624    8.9211 H         1 <0>         0.3901
     70 H35         7.6211   -8.7170    9.2200 H         1 <0>         0.4290
@<TRIPOS>BOND
     1    1    2 1
     2    1   37 1
     3    1   38 1
     4    1   39 1
     5    2    3 1
     6    2   40 1
     7    2   41 1
     8    3    4 1
     9    4    5 2
    10    4    6 1
    11    6    7 1
    12    6   42 1
    13    6   43 1
    14    7    8 1
    15    7   44 1
    16    7   45 1
    17    8   13 ar
    18    8    9 ar
    19    9   10 ar
    20    9   46 1
    21   10   11 ar
    22   10   47 1
    23   11   12 ar
    24   11   16 1
    25   12   13 ar
    26   12   14 1
    27   13   48 1
    28   14   15 3
    29   16   17 1
    30   17   18 1
    31   17   49 1
    32   17   50 1
    33   18   19 1
    34   18   20 1
    35   18   36 1
    36   20   21 1
    37   20   51 1
    38   20   52 1
    39   21   22 1
    40   21   53 1
    41   21   70 1
    42   22   23 1
    43   22   24 1
    44   22   25 1
    45   23   54 1
    46   23   55 1
    47   23   56 1
    48   24   57 1
    49   24   58 1
    50   24   59 1
    51   25   26 1
    52   25   60 1
    53   25   61 1
    54   26   35 ar
    55   26   27 ar
    56   27   28 ar
    57   27   62 1
    58   28   29 ar
    59   28   63 1
    60   29   34 ar
    61   29   30 ar
    62   30   31 ar
    63   30   64 1
    64   31   32 ar
    65   31   65 1
    66   32   33 ar
    67   32   66 1
    68   33   34 ar
    69   33   67 1
    70   34   35 ar
    71   35   68 1
    72   36   69 1
@<TRIPOS>MOLECULE
ZINC00000853
   45    46     0     0     0
SMALL
USER_CHARGES

@<TRIPOS>ATOM
      1 C1         -0.0178    1.4648    0.0101 C.3       1 <0>        -0.0563
      2 N1          0.0021   -0.0041    0.0020 N.4       1 <0>        -0.3878
      3 C2          0.7126   -0.4907    1.1921 C.3       1 <0>        -0.0471
      4 C3         -1.3761   -0.5125    0.0124 C.3       1 <0>        -0.0103
      5 C4         -2.0780   -0.1101   -1.2861 C.3       1 <0>        -0.0949
      6 H1         -2.0144    0.9705   -1.4137 H         1 <0>         0.1057
      7 C5         -1.3995   -0.8041   -2.4688 C.3       1 <0>        -0.1251
      8 C6         -2.1014   -0.4017   -3.7674 C.3       1 <0>        -0.1201
      9 C7         -3.5711   -0.8221   -3.7042 C.3       1 <0>        -0.1213
     10 C8         -4.2497   -0.1281   -2.5214 C.3       1 <0>        -0.1420
     11 C9         -3.5477   -0.5306   -1.2229 C.3       1 <0>         0.1949
     12 C10        -4.2161    0.1530   -0.0579 C.ar      1 <0>        -0.0843
     13 C11        -3.7786    1.3977    0.3564 C.ar      1 <0>        -0.1707
     14 C12        -4.3896    2.0274    1.4247 C.ar      1 <0>        -0.0707
     15 C13        -5.4390    1.4140    2.0816 C.ar      1 <0>        -0.2039
     16 C14        -5.8796    0.1655    1.6680 C.ar      1 <0>         0.1450
     17 C15        -5.2687   -0.4618    0.5916 C.ar      1 <0>        -0.1429
     18 O1         -6.9117   -0.4400    2.3124 O.3       1 <0>        -0.3132
     19 C16        -7.4965    0.2669    3.4080 C.3       1 <0>         0.0238
     20 O2         -3.6311   -1.9473   -1.0556 O.3       1 <0>        -0.5509
     21 H2          1.0047    1.8421    0.0024 H         1 <0>         0.1265
     22 H3         -0.5450    1.8259   -0.8730 H         1 <0>         0.1223
     23 H4         -0.5280    1.8163    0.9069 H         1 <0>         0.1237
     24 H5          0.2024   -0.1392    2.0889 H         1 <0>         0.1216
     25 H6          0.7273   -1.5806    1.1861 H         1 <0>         0.1240
     26 H7          1.7352   -0.1134    1.1844 H         1 <0>         0.1249
     27 H8         -1.3618   -1.5992    0.0961 H         1 <0>         0.1405
     28 H9         -1.9129   -0.0898    0.8617 H         1 <0>         0.1336
     29 H10        -0.3524   -0.5046   -2.5139 H         1 <0>         0.0574
     30 H11        -1.4631   -1.8847   -2.3413 H         1 <0>         0.0907
     31 H12        -2.0378    0.6790   -3.8950 H         1 <0>         0.0659
     32 H13        -1.6180   -0.8961   -4.6100 H         1 <0>         0.0759
     33 H14        -4.0712   -0.5354   -4.6293 H         1 <0>         0.0732
     34 H15        -3.6347   -1.9028   -3.5766 H         1 <0>         0.0755
     35 H16        -4.1861    0.9525   -2.6490 H         1 <0>         0.0782
     36 H17        -5.2967   -0.4277   -2.4764 H         1 <0>         0.0788
     37 H18        -2.9581    1.8786   -0.1553 H         1 <0>         0.1199
     38 H19        -4.0462    2.9995    1.7463 H         1 <0>         0.1301
     39 H20        -5.9155    1.9060    2.9166 H         1 <0>         0.1343
     40 H21        -5.6131   -1.4318    0.2646 H         1 <0>         0.1327
     41 H22        -7.8899    1.2207    3.0566 H         1 <0>         0.0603
     42 H23        -8.3067   -0.3263    3.8321 H         1 <0>         0.1081
     43 H24        -6.7389    0.4453    4.1712 H         1 <0>         0.0591
     44 H25        -4.5359   -2.2851   -1.0074 H         1 <0>         0.3908
     45 H26         0.4743   -0.3295   -0.8281 H         1 <0>         0.4241
@<TRIPOS>BOND
     1    1    2 1
     2    1   21 1
     3    1   22 1
     4    1   23 1
     5    2    3 1
     6    2    4 1
     7    2   45 1
     8    3   24 1
     9    3   25 1
    10    3   26 1
    11    4    5 1
    12    4   27 1
    13    4   28 1
    14    5    6 1
    15    5   11 1
    16    5    7 1
    17    7    8 1
    18    7   29 1
    19    7   30 1
    20    8    9 1
    21    8   31 1
    22    8   32 1
    23    9   10 1
    24    9   33 1
    25    9   34 1
    26   10   11 1
    27   10   35 1
    28   10   36 1
    29   11   12 1
    30   11   20 1
    31   12   17 ar
    32   12   13 ar
    33   13   14 ar
    34   13   37 1
    35   14   15 ar
    36   14   38 1
    37   15   16 ar
    38   15   39 1
    39   16   17 ar
    40   16   18 1
    41   17   40 1
    42   18   19 1
    43   19   41 1
    44   19   42 1
    45   19   43 1
    46   20   44 1
@<TRIPOS>MOLECULE
ZINC00002200
   45    46     0     0     0
SMALL
USER_CHARGES
2-(dimethylaminomethyl)-1-(3-methoxyphenyl)-cyclohexan-1-ol
@<TRIPOS>ATOM
      1 C1         -4.3360    0.0060   -2.3149 C.3       1 <0>        -0.0424
      2 C2         -3.4265   -2.0815   -1.4917 C.3       1 <0>        -0.0505
      3 H1         -2.8695   -2.5368   -0.6728 H         1 <0>         0.1199
      4 H2         -4.4311   -2.5031   -1.5264 H         1 <0>         0.1245
      5 H3         -2.9159   -2.2814   -2.4337 H         1 <0>         0.1245
      6 C3         -2.1733   -0.0268   -1.2266 C.3       1 <0>        -0.0051
      7 C4         -1.4333   -0.5336    0.0129 C.3       1 <0>        -0.0960
      8 H4         -1.4185   -1.6235    0.0069 H         1 <0>         0.1055
      9 C5         -2.1494   -0.0402    1.2717 C.3       1 <0>        -0.1250
     10 C6         -1.4095   -0.5471    2.5112 C.3       1 <0>        -0.1199
     11 C7          0.0259   -0.0175    2.5003 C.3       1 <0>        -0.1213
     12 C8          0.7421   -0.5109    1.2415 C.3       1 <0>        -0.1421
     13 C9          0.0021   -0.0041    0.0020 C.3       1 <0>         0.1949
     14 C10         0.7074   -0.4901   -1.2379 C.ar      1 <0>        -0.0845
     15 C11         0.3564   -1.7029   -1.8018 C.ar      1 <0>        -0.1701
     16 C12         0.9977   -2.1489   -2.9425 C.ar      1 <0>        -0.0708
     17 C13         1.9991   -1.3887   -3.5154 C.ar      1 <0>        -0.2038
     18 C14         2.3570   -0.1744   -2.9483 C.ar      1 <0>         0.1449
     19 C15         1.7079    0.2736   -1.8068 C.ar      1 <0>        -0.1430
     20 O1          3.3419    0.5750   -3.5097 O.3       1 <0>        -0.3132
     21 C16         3.9663    0.0515   -4.6837 C.3       1 <0>         0.0239
     22 O2         -0.0173    1.4248    0.0099 O.3       1 <0>        -0.5510
     23 H5         -3.8583   -0.1182   -3.2867 H         1 <0>         0.1227
     24 H6         -5.3213   -0.4598   -2.3321 H         1 <0>         0.1229
     25 H7         -4.4402    1.0684   -2.0944 H         1 <0>         0.1221
     26 H8         -2.2658    1.0581   -1.1763 H         1 <0>         0.1388
     27 H9         -1.6150   -0.3027   -2.1212 H         1 <0>         0.1348
     28 H10        -2.1642    1.0497    1.2777 H         1 <0>         0.0911
     29 H11        -3.1720   -0.4175    1.2794 H         1 <0>         0.0569
     30 H12        -1.9196   -0.1955    3.4080 H         1 <0>         0.0760
     31 H13        -1.3947   -1.6369    2.5052 H         1 <0>         0.0661
     32 H14         0.0111    1.0724    2.5063 H         1 <0>         0.0755
     33 H15         0.5531   -0.3786    3.3834 H         1 <0>         0.0733
     34 H16         0.7568   -1.6008    1.2356 H         1 <0>         0.0782
     35 H17         1.7647   -0.1336    1.2338 H         1 <0>         0.0788
     36 H18        -0.4228   -2.3009   -1.3528 H         1 <0>         0.1201
     37 H19         0.7185   -3.0942   -3.3838 H         1 <0>         0.1301
     38 H20         2.5031   -1.7397   -4.4037 H         1 <0>         0.1342
     39 H21         1.9845    1.2189   -1.3636 H         1 <0>         0.1326
     40 H22         4.7322    0.7462   -5.0284 H         1 <0>         0.1081
     41 H23         4.4251   -0.9100   -4.4531 H         1 <0>         0.0603
     42 H24         3.2178   -0.0811   -5.4649 H         1 <0>         0.0591
     43 H25         0.8606    1.8301    0.0037 H         1 <0>         0.3908
     44 N1         -3.5242   -0.6260   -1.2536 N.4       1 <0>        -0.3993
     45 H26        -3.9782   -0.4662   -0.3467 H         1 <0>         0.4275
@<TRIPOS>BOND
     1    1   23 1
     2    1   24 1
     3    1   25 1
     4    1   44 1
     5    2    3 1
     6    2    4 1
     7    2    5 1
     8    2   44 1
     9    6    7 1
    10    6   26 1
    11    6   27 1
    12    6   44 1
    13    7    8 1
    14    7   13 1
    15    7    9 1
    16    9   10 1
    17    9   28 1
    18    9   29 1
    19   10   11 1
    20   10   30 1
    21   10   31 1
    22   11   12 1
    23   11   32 1
    24   11   33 1
    25   12   13 1
    26   12   34 1
    27   12   35 1
    28   13   14 1
    29   13   22 1
    30   14   19 ar
    31   14   15 ar
    32   15   16 ar
    33   15   36 1
    34   16   17 ar
    35   16   37 1
    36   17   18 ar
    37   17   38 1
    38   18   19 ar
    39   18   20 1
    40   19   39 1
    41   20   21 1
    42   21   40 1
    43   21   41 1
    44   21   42 1
    45   22   43 1
    46   44   45 1
@<TRIPOS>MOLECULE
ZINC01849532
   45    46     0     0     0
SMALL
USER_CHARGES
2-(dimethylaminomethyl)-1-(3-methoxyphenyl)-cyclohexan-1-ol
@<TRIPOS>ATOM
      1 C1         -3.8545    4.1975    2.4202 C.3       1 <0>        -0.0487
      2 C2         -5.0373    5.1687    0.5440 C.3       1 <0>        -0.0439
      3 C3         -3.7850    3.1167    0.2547 C.3       1 <0>        -0.0176
      4 C4         -3.5513    1.7292    0.8556 C.3       1 <0>        -0.0934
      5 H1         -3.0656    1.8307    1.8261 H         1 <0>         0.1035
      6 C5         -4.8937    1.0160    1.0293 C.3       1 <0>        -0.1270
      7 C6         -5.5755    0.8735   -0.3329 C.3       1 <0>        -0.1281
      8 C7         -4.6813    0.0568   -1.2679 C.3       1 <0>        -0.1218
      9 C8         -3.3389    0.7700   -1.4416 C.3       1 <0>        -0.1522
     10 C9         -2.6571    0.9125   -0.0793 C.3       1 <0>         0.1978
     11 C10        -1.3348    1.6150   -0.2504 C.ar      1 <0>        -0.0976
     12 C11        -0.2551    1.2563    0.5357 C.ar      1 <0>        -0.1395
     13 C12         0.9577    1.9025    0.3848 C.ar      1 <0>        -0.0702
     14 C13         1.0951    2.9054   -0.5555 C.ar      1 <0>        -0.1995
     15 C14         0.0151    3.2634   -1.3489 C.ar      1 <0>         0.1329
     16 C15        -1.2009    2.6130   -1.1958 C.ar      1 <0>        -0.1616
     17 O1          0.1480    4.2492   -2.2748 O.3       1 <0>        -0.3174
     18 C16         1.4286    4.8749   -2.3771 C.3       1 <0>         0.0239
     19 O2         -2.4388   -0.3834    0.4819 O.3       1 <0>        -0.5426
     20 H2         -2.9421    4.7457    2.1854 H         1 <0>         0.1239
     21 H3         -4.4756    4.7948    3.0878 H         1 <0>         0.1246
     22 H4         -3.5980    3.2568    2.9074 H         1 <0>         0.1221
     23 H5         -5.6407    4.9340   -0.3329 H         1 <0>         0.1217
     24 H6         -5.6333    5.7454    1.2513 H         1 <0>         0.1248
     25 H7         -4.1678    5.7520    0.2411 H         1 <0>         0.1241
     26 H8         -2.8257    3.6071    0.0889 H         1 <0>         0.1395
     27 H9         -4.3112    3.0175   -0.6947 H         1 <0>         0.1358
     28 H10        -5.5308    1.5978    1.6954 H         1 <0>         0.0579
     29 H11        -4.7272    0.0275    1.4574 H         1 <0>         0.1029
     30 H12        -5.7420    1.8620   -0.7611 H         1 <0>         0.0553
     31 H13        -6.5319    0.3654   -0.2092 H         1 <0>         0.0800
     32 H14        -5.1670   -0.0447   -2.2384 H         1 <0>         0.0735
     33 H15        -4.5148   -0.9317   -0.8398 H         1 <0>         0.0797
     34 H16        -3.5053    1.7585   -1.8697 H         1 <0>         0.0739
     35 H17        -2.7018    0.1882   -2.1077 H         1 <0>         0.0819
     36 H18        -0.3606    0.4726    1.2713 H         1 <0>         0.1350
     37 H19         1.7983    1.6233    1.0028 H         1 <0>         0.1321
     38 H20         2.0426    3.4104   -0.6725 H         1 <0>         0.1336
     39 H21        -2.0433    2.8899   -1.8124 H         1 <0>         0.1307
     40 H22         1.6864    5.3332   -1.4223 H         1 <0>         0.0586
     41 H23         2.1786    4.1274   -2.6356 H         1 <0>         0.0608
     42 H24         1.3977    5.6414   -3.1515 H         1 <0>         0.1069
     43 H25        -1.8788   -0.9570   -0.0588 H         1 <0>         0.3925
     44 N1         -4.6162    3.9064    1.1875 N.4       1 <0>        -0.3966
     45 H26        -5.4517    3.3620    1.4324 H         1 <0>         0.4276
@<TRIPOS>BOND
     1    1   20 1
     2    1   21 1
     3    1   22 1
     4    1   44 1
     5    2   23 1
     6    2   24 1
     7    2   25 1
     8    2   44 1
     9    3    4 1
    10    3   26 1
    11    3   27 1
    12    3   44 1
    13    4    5 1
    14    4   10 1
    15    4    6 1
    16    6    7 1
    17    6   28 1
    18    6   29 1
    19    7    8 1
    20    7   30 1
    21    7   31 1
    22    8    9 1
    23    8   32 1
    24    8   33 1
    25    9   10 1
    26    9   34 1
    27    9   35 1
    28   10   11 1
    29   10   19 1
    30   11   16 ar
    31   11   12 ar
    32   12   13 ar
    33   12   36 1
    34   13   14 ar
    35   13   37 1
    36   14   15 ar
    37   14   38 1
    38   15   16 ar
    39   15   17 1
    40   16   39 1
    41   17   18 1
    42   18   40 1
    43   18   41 1
    44   18   42 1
    45   19   43 1
    46   44   45 1
@<TRIPOS>MOLECULE
ZINC02015652
   45    46     0     0     0
SMALL
USER_CHARGES

@<TRIPOS>ATOM
      1 C1         -0.0525   -2.0814   -0.7853 C.3       1 <0>        -0.0566
      2 N1         -1.1008   -1.9115    0.2297 N.4       1 <0>        -0.3982
      3 C2         -0.6157   -2.4114    1.5230 C.3       1 <0>        -0.0511
      4 C3         -1.4389   -0.4871    0.3509 C.3       1 <0>        -0.0131
      5 C4         -2.0436    0.0072   -0.9648 C.3       1 <0>        -0.0949
      6 H1         -1.4830   -0.4095   -1.8015 H         1 <0>         0.1020
      7 C5         -1.9752    1.5349   -1.0153 C.3       1 <0>        -0.1098
      8 C6         -2.7620    2.1198    0.1593 C.3       1 <0>        -0.1278
      9 C7         -4.2221    1.6714    0.0688 C.3       1 <0>        -0.1224
     10 C8         -4.2905    0.1438    0.1193 C.3       1 <0>        -0.1519
     11 C9         -3.5036   -0.4411   -1.0552 C.3       1 <0>         0.1809
     12 C10        -3.5711   -1.9458   -1.0054 C.ar      1 <0>        -0.1268
     13 C11        -4.0597   -2.5785    0.1230 C.ar      1 <0>        -0.1791
     14 C12        -4.1228   -3.9586    0.1718 C.ar      1 <0>        -0.0733
     15 C13        -3.6972   -4.7094   -0.9072 C.ar      1 <0>        -0.1994
     16 C14        -3.2067   -4.0772   -2.0402 C.ar      1 <0>         0.1380
     17 C15        -3.1500   -2.6916   -2.0891 C.ar      1 <0>        -0.1464
     18 O1         -2.7875   -4.8134   -3.1028 O.3       1 <0>        -0.3079
     19 C16        -2.8803   -6.2345   -2.9846 C.3       1 <0>         0.0205
     20 O2         -4.0684    0.0206   -2.2840 O.3       1 <0>        -0.5352
     21 H2          0.2849   -3.1178   -0.7893 H         1 <0>         0.1230
     22 H3         -0.4521   -1.8256   -1.7667 H         1 <0>         0.1225
     23 H4          0.7875   -1.4267   -0.5532 H         1 <0>         0.1268
     24 H5          0.2712   -1.8514    1.8195 H         1 <0>         0.1254
     25 H6         -1.3935   -2.2854    2.2762 H         1 <0>         0.1219
     26 H7         -0.3648   -3.4683    1.4331 H         1 <0>         0.1225
     27 H8         -2.1612   -0.3523    1.1560 H         1 <0>         0.1354
     28 H9         -0.5367    0.0828    0.5729 H         1 <0>         0.1394
     29 H10        -0.9350    1.8543   -0.9508 H         1 <0>         0.0760
     30 H11        -2.4060    1.8871   -1.9526 H         1 <0>         0.0943
     31 H12        -2.3312    1.7676    1.0965 H         1 <0>         0.0602
     32 H13        -2.7133    3.2081    0.1233 H         1 <0>         0.0785
     33 H14        -4.7826    2.0881    0.9056 H         1 <0>         0.0733
     34 H15        -4.6529    2.0236   -0.8685 H         1 <0>         0.0791
     35 H16        -3.8597   -0.2084    1.0566 H         1 <0>         0.0721
     36 H17        -5.3307   -0.1756    0.0549 H         1 <0>         0.0827
     37 H18        -4.3922   -1.9934    0.9677 H         1 <0>         0.1418
     38 H19        -4.5048   -4.4504    1.0542 H         1 <0>         0.1412
     39 H20        -3.7461   -5.7876   -0.8683 H         1 <0>         0.1424
     40 H21        -2.7729   -2.1969   -2.9719 H         1 <0>         0.1470
     41 H22        -3.9202   -6.5185   -2.8235 H         1 <0>         0.0639
     42 H23        -2.5141   -6.6999   -3.8997 H         1 <0>         0.1121
     43 H24        -2.2774   -6.5690   -2.1404 H         1 <0>         0.0606
     44 H25        -4.9946   -0.2278   -2.4091 H         1 <0>         0.3912
     45 H26        -1.9218   -2.4299   -0.0447 H         1 <0>         0.4189
@<TRIPOS>BOND
     1    1    2 1
     2    1   21 1
     3    1   22 1
     4    1   23 1
     5    2    3 1
     6    2    4 1
     7    2   45 1
     8    3   24 1
     9    3   25 1
    10    3   26 1
    11    4    5 1
    12    4   27 1
    13    4   28 1
    14    5    6 1
    15    5   11 1
    16    5    7 1
    17    7    8 1
    18    7   29 1
    19    7   30 1
    20    8    9 1
    21    8   31 1
    22    8   32 1
    23    9   10 1
    24    9   33 1
    25    9   34 1
    26   10   11 1
    27   10   35 1
    28   10   36 1
    29   11   12 1
    30   11   20 1
    31   12   17 ar
    32   12   13 ar
    33   13   14 ar
    34   13   37 1
    35   14   15 ar
    36   14   38 1
    37   15   16 ar
    38   15   39 1
    39   16   17 ar
    40   16   18 1
    41   17   40 1
    42   18   19 1
    43   19   41 1
    44   19   42 1
    45   19   43 1
    46   20   44 1
@<TRIPOS>MOLECULE
ZINC02022527
   54    55     0     0     0
SMALL
USER_CHARGES

@<TRIPOS>ATOM
      1 C1         -3.0730    2.2881   -4.2693 C.3       1 <0>        -0.1569
      2 C2         -2.3049    1.5870   -3.1471 C.3       1 <0>        -0.1270
      3 C3         -2.8110    2.0874   -1.7927 C.3       1 <0>        -0.1231
      4 C4         -2.0429    1.3862   -0.6705 C.3       1 <0>        -0.1174
      5 C5         -2.5490    1.8867    0.6839 C.3       1 <0>        -0.1006
      6 C6         -2.2117    3.3722    0.8391 C.3       1 <0>        -0.1451
      7 C7         -2.6658    3.8518    2.2196 C.3       1 <0>        -0.0114
      8 C8         -2.3347    1.6429    3.1595 C.3       1 <0>        -0.0001
      9 C9         -1.8707    1.0973    1.8070 C.3       1 <0>        -0.1442
     10 C10        -2.2939    3.5901    4.5974 C.3       1 <0>        -0.0052
     11 C11        -2.1583    5.1140    4.5919 C.3       1 <0>        -0.1459
     12 C12        -2.4764    5.6593    5.9856 C.3       1 <0>        -0.1543
     13 C13        -2.3428    7.1604    5.9803 C.2       1 <0>         0.3987
     14 O1         -2.0245    7.7371    4.9623 O.2       1 <0>        -0.4456
     15 C14        -2.5986    7.9263    7.2106 C.ar      1 <0>        -0.1885
     16 C15        -3.0878    7.2813    8.3513 C.ar      1 <0>        -0.0705
     17 C16        -3.3195    8.0047    9.5018 C.ar      1 <0>        -0.1389
     18 C17        -3.0801    9.3679    9.5265 C.ar      1 <0>        -0.0729
     19 C18        -2.6016   10.0143    8.4004 C.ar      1 <0>        -0.1345
     20 C19        -2.3594    9.3036    7.2436 C.ar      1 <0>        -0.0178
     21 C20        -1.8387   10.0095    6.0182 C.3       1 <0>        -0.1264
     22 H1         -4.1363    2.0676   -4.1746 H         1 <0>         0.0549
     23 H2         -2.9175    3.3647   -4.1985 H         1 <0>         0.0540
     24 H3         -2.7125    1.9316   -5.2342 H         1 <0>         0.0581
     25 H4         -1.2417    1.8075   -3.2417 H         1 <0>         0.0621
     26 H5         -2.4605    0.5104   -3.2179 H         1 <0>         0.0631
     27 H6         -3.8743    1.8669   -1.6981 H         1 <0>         0.0644
     28 H7         -2.6555    3.1639   -1.7219 H         1 <0>         0.0632
     29 H8         -2.1984    0.3097   -0.7413 H         1 <0>         0.0733
     30 H9         -0.9796    1.6067   -0.7651 H         1 <0>         0.0688
     31 H10        -3.6287    1.7492    0.7427 H         1 <0>         0.0884
     32 H11        -1.1354    3.5132    0.7407 H         1 <0>         0.0881
     33 H12        -2.7264    3.9447    0.0675 H         1 <0>         0.1133
     34 H13        -3.7442    3.7233    2.3122 H         1 <0>         0.1295
     35 H14        -2.4142    4.9057    2.3388 H         1 <0>         0.1342
     36 H15        -3.4146    1.5248    3.2476 H         1 <0>         0.1293
     37 H16        -1.8426    1.0924    3.9613 H         1 <0>         0.1282
     38 H17        -2.1418    0.0446    1.7270 H         1 <0>         0.1118
     39 H18        -0.7890    1.2025    1.7239 H         1 <0>         0.0880
     40 H19        -3.3133    3.3170    4.8704 H         1 <0>         0.1315
     41 H20        -1.5979    3.1659    5.3211 H         1 <0>         0.1302
     42 H21        -1.1389    5.3871    4.3190 H         1 <0>         0.0944
     43 H22        -2.8542    5.5382    3.8682 H         1 <0>         0.0968
     44 H23        -3.4115    5.4088    6.2361 H         1 <0>         0.0981
     45 H24        -1.7805    5.2352    6.7093 H         1 <0>         0.1100
     46 H25        -3.2793    6.2186    8.3321 H         1 <0>         0.1290
     47 H26        -3.6933    7.5074   10.3846 H         1 <0>         0.1322
     48 H27        -3.2682    9.9300   10.4293 H         1 <0>         0.1326
     49 H28        -2.4176   11.0782    8.4274 H         1 <0>         0.1332
     50 H29        -2.6709   10.2515    5.3572 H         1 <0>         0.0784
     51 H30        -1.3321   10.9277    6.3156 H         1 <0>         0.0652
     52 H31        -1.1365    9.3600    5.4956 H         1 <0>         0.0893
     53 N1         -1.9588    3.0696    3.2558 N.4       1 <0>        -0.3931
     54 H32        -0.9467    3.1581    3.1071 H         1 <0>         0.4272
@<TRIPOS>BOND
     1    1    2 1
     2    1   22 1
     3    1   23 1
     4    1   24 1
     5    2    3 1
     6    2   25 1
     7    2   26 1
     8    3    4 1
     9    3   27 1
    10    3   28 1
    11    4    5 1
    12    4   29 1
    13    4   30 1
    14    5    9 1
    15    5    6 1
    16    5   31 1
    17    6    7 1
    18    6   32 1
    19    6   33 1
    20    7   34 1
    21    7   35 1
    22    7   53 1
    23    8    9 1
    24    8   36 1
    25    8   37 1
    26    8   53 1
    27    9   38 1
    28    9   39 1
    29   10   11 1
    30   10   40 1
    31   10   41 1
    32   10   53 1
    33   11   12 1
    34   11   42 1
    35   11   43 1
    36   12   13 1
    37   12   44 1
    38   12   45 1
    39   13   14 2
    40   13   15 1
    41   15   20 ar
    42   15   16 ar
    43   16   17 ar
    44   16   46 1
    45   17   18 ar
    46   17   47 1
    47   18   19 ar
    48   18   48 1
    49   19   20 ar
    50   19   49 1
    51   20   21 1
    52   21   50 1
    53   21   51 1
    54   21   52 1
    55   53   54 1
@<TRIPOS>MOLECULE
ZINC03632416
   34    37     0     0     0
SMALL
USER_CHARGES
(5R)-5-phenyl-2,3-dihydroimidazo[1,2-b]isoindol-5-ol
@<TRIPOS>ATOM
      1 C1          1.7613   -3.8125   -3.5365 C.ar      1 <0>        -0.0929
      2 C2          2.2172   -4.4070   -2.3748 C.ar      1 <0>        -0.1055
      3 C3          2.4153   -3.6436   -1.2395 C.ar      1 <0>        -0.0935
      4 C4          2.1579   -2.2857   -1.2661 C.ar      1 <0>        -0.1434
      5 C5          1.6970   -1.6921   -2.4263 C.ar      1 <0>        -0.0977
      6 C6          1.5030   -2.4547   -3.5628 C.ar      1 <0>        -0.1106
      7 C7          2.3739   -1.4535   -0.0284 C.3       1 <0>         0.4605
      8 C8          3.7598   -0.8617   -0.0385 C.ar      1 <0>        -0.0794
      9 C9          5.0184   -1.4228   -0.0536 C.ar      1 <0>        -0.0777
     10 C10         6.1372   -0.6079   -0.0608 C.ar      1 <0>        -0.0488
     11 C11         5.9968    0.7686   -0.0525 C.ar      1 <0>        -0.1049
     12 C12         4.7402    1.3391   -0.0367 C.ar      1 <0>        -0.0347
     13 C13         3.6098    0.5222   -0.0296 C.ar      1 <0>        -0.1227
     14 C14         2.1566    0.8485   -0.0140 C.cat     1 <0>         0.5332
     15 C15        -0.0188    1.5358    0.0105 C.3       1 <0>         0.0688
     16 C16         0.0021   -0.0041    0.0020 C.3       1 <0>         0.0991
     17 N1          1.4399   -0.3211   -0.0134 N.pl3     1 <0>        -0.5534
     18 O1          2.1906   -2.2559    1.1397 O.3       1 <0>        -0.5361
     19 H1          1.6072   -4.4088   -4.4237 H         1 <0>         0.1357
     20 H2          2.4190   -5.4677   -2.3543 H         1 <0>         0.1380
     21 H3          2.7715   -4.1080   -0.3319 H         1 <0>         0.1291
     22 H4          1.4917   -0.6320   -2.4458 H         1 <0>         0.1139
     23 H5          1.1471   -1.9902   -4.4706 H         1 <0>         0.1333
     24 H6          5.1316   -2.4968   -0.0604 H         1 <0>         0.1490
     25 H7          7.1234   -1.0480   -0.0728 H         1 <0>         0.1551
     26 H8          6.8737    1.3989   -0.0580 H         1 <0>         0.1547
     27 H9          4.6327    2.4137   -0.0296 H         1 <0>         0.1469
     28 H10        -0.5220    1.9158   -0.8786 H         1 <0>         0.1319
     29 H11        -0.5049    1.9061    0.9131 H         1 <0>         0.1318
     30 H12        -0.4696   -0.4002    0.9013 H         1 <0>         0.1247
     31 H13        -0.4868   -0.3906   -0.8923 H         1 <0>         0.1226
     32 H14         2.7800   -3.0210    1.1878 H         1 <0>         0.4117
     33 N2          1.4006    1.9190   -0.0010 N.pl3     1 <0>        -0.6125
     34 H15         1.7490    2.8849    0.0009 H         1 <0>         0.4737
@<TRIPOS>BOND
     1    1    6 ar
     2    1    2 ar
     3    1   19 1
     4    2    3 ar
     5    2   20 1
     6    3    4 ar
     7    3   21 1
     8    4    5 ar
     9    4    7 1
    10    5    6 ar
    11    5   22 1
    12    6   23 1
    13    7   17 1
    14    7    8 1
    15    7   18 1
    16    8   13 ar
    17    8    9 ar
    18    9   10 ar
    19    9   24 1
    20   10   11 ar
    21   10   25 1
    22   11   12 ar
    23   11   26 1
    24   12   13 ar
    25   12   27 1
    26   13   14 1
    27   14   17 1
    28   14   33 2
    29   15   16 1
    30   15   28 1
    31   15   29 1
    32   15   33 1
    33   16   17 1
    34   16   30 1
    35   16   31 1
    36   18   32 1
    37   33   34 1
@<TRIPOS>MOLECULE
ZINC03632418
   34    37     0     0     0
SMALL
USER_CHARGES
(5S)-5-phenyl-2,3-dihydroimidazo[1,2-b]isoindol-5-ol
@<TRIPOS>ATOM
      1 C1         -3.5567    5.9003   -3.4323 C.ar      1 <0>        -0.0935
      2 C2         -3.0410    6.5130   -2.3055 C.ar      1 <0>        -0.1050
      3 C3         -2.7575    5.7630   -1.1795 C.ar      1 <0>        -0.0942
      4 C4         -2.9892    4.4002   -1.1803 C.ar      1 <0>        -0.1415
      5 C5         -3.4995    3.7866   -2.3090 C.ar      1 <0>        -0.0995
      6 C6         -3.7880    4.5374   -3.4333 C.ar      1 <0>        -0.1102
      7 C7         -2.6797    3.5825    0.0471 C.3       1 <0>         0.4609
      8 C8         -1.2357    3.1516    0.0309 C.ar      1 <0>        -0.0803
      9 C9         -0.0487    3.8515    0.0228 C.ar      1 <0>        -0.0783
     10 C10         1.1552    3.1685    0.0076 C.ar      1 <0>        -0.0486
     11 C11         1.1714    1.7850    0.0005 C.ar      1 <0>        -0.1049
     12 C12        -0.0126    1.0758    0.0080 C.ar      1 <0>        -0.0345
     13 C13        -1.2281    1.7597    0.0174 C.ar      1 <0>        -0.1224
     14 C14        -2.6350    1.2707    0.0350 C.cat     1 <0>         0.5337
     15 C15        -4.7184    0.3412    0.0499 C.3       1 <0>         0.0685
     16 C16        -4.8721    1.8735    0.0602 C.3       1 <0>         0.0987
     17 N1         -3.4795    2.3516    0.0487 N.pl3     1 <0>        -0.5538
     18 O1         -2.9507    4.3449    1.2249 O.3       1 <0>        -0.5360
     19 H1         -3.7786    6.4863   -4.3119 H         1 <0>         0.1357
     20 H2         -2.8600    7.5777   -2.3049 H         1 <0>         0.1380
     21 H3         -2.3546    6.2417   -0.2992 H         1 <0>         0.1285
     22 H4         -3.6765    2.7212   -2.3112 H         1 <0>         0.1144
     23 H5         -4.1905    4.0586   -4.3137 H         1 <0>         0.1333
     24 H6         -0.0577    4.9315    0.0280 H         1 <0>         0.1490
     25 H7          2.0852    3.7175    0.0017 H         1 <0>         0.1552
     26 H8          2.1140    1.2581   -0.0114 H         1 <0>         0.1548
     27 H9          0.0021   -0.0041    0.0020 H         1 <0>         0.1470
     28 H10        -5.1759   -0.0830   -0.8440 H         1 <0>         0.1320
     29 H11        -5.1592   -0.0945    0.9466 H         1 <0>         0.1320
     30 H12        -5.3847    2.2034    0.9638 H         1 <0>         0.1251
     31 H13        -5.4026    2.2122   -0.8297 H         1 <0>         0.1227
     32 H14        -2.4340    5.1594    1.2939 H         1 <0>         0.4117
     33 N2         -3.2648    0.1214    0.0349 N.pl3     1 <0>        -0.6124
     34 H15        -2.8093   -0.7988    0.0258 H         1 <0>         0.4738
@<TRIPOS>BOND
     1    1    6 ar
     2    1    2 ar
     3    1   19 1
     4    2    3 ar
     5    2   20 1
     6    3    4 ar
     7    3   21 1
     8    4    5 ar
     9    4    7 1
    10    5    6 ar
    11    5   22 1
    12    6   23 1
    13    7   17 1
    14    7    8 1
    15    7   18 1
    16    8   13 ar
    17    8    9 ar
    18    9   10 ar
    19    9   24 1
    20   10   11 ar
    21   10   25 1
    22   11   12 ar
    23   11   26 1
    24   12   13 ar
    25   12   27 1
    26   13   14 1
    27   14   17 1
    28   14   33 2
    29   15   16 1
    30   15   28 1
    31   15   29 1
    32   15   33 1
    33   16   17 1
    34   16   30 1
    35   16   31 1
    36   18   32 1
    37   33   34 1
@<TRIPOS>MOLECULE
ZINC13588053
   37    38     0     0     0
SMALL
USER_CHARGES
N-methyl-4-(1-naphthyloxy)butan-1-amine
@<TRIPOS>ATOM
      1 C1         -9.8207    3.8066    0.1159 C.3       1 <0>        -0.0434
      2 C2         -7.3997    3.8278    0.0930 C.3       1 <0>        -0.0056
      3 C3         -6.1545    2.9388    0.0770 C.3       1 <0>        -0.1482
      4 C4         -4.9013    3.8164    0.0692 C.3       1 <0>        -0.1185
      5 C5         -3.6562    2.9274    0.0532 C.3       1 <0>         0.0579
      6 O1         -2.4857    3.7471    0.0459 O.3       1 <0>        -0.3102
      7 C6         -1.2867    3.1096    0.0315 C.ar      1 <0>         0.1408
      8 C7         -1.2335    1.7440    0.0174 C.ar      1 <0>        -0.2189
      9 C8         -0.0126    1.0758    0.0080 C.ar      1 <0>        -0.0814
     10 C9          1.1637    1.7618    0.0004 C.ar      1 <0>        -0.1353
     11 C10         1.1521    3.1670    0.0080 C.ar      1 <0>        -0.0203
     12 C11        -0.0883    3.8519    0.0236 C.ar      1 <0>        -0.0695
     13 C12        -0.1002    5.2560    0.0304 C.ar      1 <0>        -0.0905
     14 C13         1.0769    5.9397    0.0224 C.ar      1 <0>        -0.1223
     15 C14         2.2972    5.2668    0.0074 C.ar      1 <0>        -0.1008
     16 C15         2.3471    3.9067    0.0001 C.ar      1 <0>        -0.1133
     17 H1         -9.8431    4.4399   -0.7709 H         1 <0>         0.1230
     18 H2        -10.6966    3.1577    0.1212 H         1 <0>         0.1260
     19 H3         -9.8262    4.4315    1.0090 H         1 <0>         0.1230
     20 H4         -7.3883    4.4529    0.9859 H         1 <0>         0.1334
     21 H5         -7.4052    4.4613   -0.7940 H         1 <0>         0.1334
     22 H6         -6.1659    2.3137   -0.8159 H         1 <0>         0.0915
     23 H7         -6.1490    2.3053    0.9640 H         1 <0>         0.0915
     24 H8         -4.8900    4.4415    0.9621 H         1 <0>         0.0870
     25 H9         -4.9069    4.4499   -0.8178 H         1 <0>         0.0871
     26 H10        -3.6676    2.3023   -0.8397 H         1 <0>         0.0668
     27 H11        -3.6506    2.2939    0.9402 H         1 <0>         0.0668
     28 H12        -2.1517    1.1754    0.0187 H         1 <0>         0.1242
     29 H13         0.0021   -0.0041    0.0020 H         1 <0>         0.1270
     30 H14         2.1024    1.2278   -0.0118 H         1 <0>         0.1318
     31 H15        -1.0385    5.7907    0.0417 H         1 <0>         0.1293
     32 H16         1.0649    7.0197    0.0273 H         1 <0>         0.1267
     33 H17         3.2169    5.8329    0.0013 H         1 <0>         0.1283
     34 H18         3.3000    3.3985   -0.0122 H         1 <0>         0.1333
     35 N1         -8.6028    2.9745    0.1004 N.4       1 <0>        -0.5203
     36 H19        -8.6056    2.3856   -0.7407 H         1 <0>         0.4351
     37 H20        -8.5897    2.3778    0.9359 H         1 <0>         0.4351
@<TRIPOS>BOND
     1    1   17 1
     2    1   18 1
     3    1   19 1
     4    1   35 1
     5    2    3 1
     6    2   20 1
     7    2   21 1
     8    2   35 1
     9    3    4 1
    10    3   22 1
    11    3   23 1
    12    4    5 1
    13    4   24 1
    14    4   25 1
    15    5    6 1
    16    5   26 1
    17    5   27 1
    18    6    7 1
    19    7   12 ar
    20    7    8 ar
    21    8    9 ar
    22    8   28 1
    23    9   10 ar
    24    9   29 1
    25   10   11 ar
    26   10   30 1
    27   11   16 ar
    28   11   12 ar
    29   12   13 ar
    30   13   14 ar
    31   13   31 1
    32   14   15 ar
    33   14   32 1
    34   15   16 ar
    35   15   33 1
    36   16   34 1
    37   35   36 1
    38   35   37 1
@<TRIPOS>MOLECULE
ZINC02509756
   42    43     0     0     0
SMALL
USER_CHARGES

@<TRIPOS>ATOM
      1 C1         -0.0178    1.4648    0.0101 C.3       1 <0>        -0.0567
      2 N1          0.0021   -0.0041    0.0020 N.4       1 <0>        -0.3878
      3 C2          0.7126   -0.4907    1.1921 C.3       1 <0>        -0.0474
      4 C3         -1.3761   -0.5125    0.0124 C.3       1 <0>        -0.0103
      5 C4         -2.0780   -0.1101   -1.2861 C.3       1 <0>        -0.0956
      6 H1         -2.0144    0.9705   -1.4137 H         1 <0>         0.1055
      7 C5         -1.3995   -0.8041   -2.4688 C.3       1 <0>        -0.1252
      8 C6         -2.1014   -0.4017   -3.7674 C.3       1 <0>        -0.1201
      9 C7         -3.5711   -0.8221   -3.7042 C.3       1 <0>        -0.1216
     10 C8         -4.2497   -0.1281   -2.5214 C.3       1 <0>        -0.1416
     11 C9         -3.5477   -0.5306   -1.2229 C.3       1 <0>         0.1939
     12 C10        -4.2161    0.1530   -0.0579 C.ar      1 <0>        -0.1071
     13 C11        -3.7786    1.3977    0.3564 C.ar      1 <0>        -0.1410
     14 C12        -4.3896    2.0274    1.4247 C.ar      1 <0>        -0.0946
     15 C13        -5.4390    1.4140    2.0816 C.ar      1 <0>        -0.1394
     16 C14        -5.8796    0.1655    1.6680 C.ar      1 <0>         0.1244
     17 C15        -5.2687   -0.4618    0.5916 C.ar      1 <0>        -0.1358
     18 O1         -6.9117   -0.4400    2.3124 O.3       1 <0>        -0.4972
     19 O2         -3.6311   -1.9473   -1.0556 O.3       1 <0>        -0.5505
     20 H2          1.0047    1.8421    0.0024 H         1 <0>         0.1271
     21 H3         -0.5450    1.8259   -0.8730 H         1 <0>         0.1221
     22 H4         -0.5280    1.8163    0.9069 H         1 <0>         0.1238
     23 H5          0.2024   -0.1392    2.0889 H         1 <0>         0.1220
     24 H6          0.7273   -1.5806    1.1861 H         1 <0>         0.1241
     25 H7          1.7352   -0.1134    1.1844 H         1 <0>         0.1253
     26 H8         -1.3618   -1.5992    0.0961 H         1 <0>         0.1406
     27 H9         -1.9129   -0.0898    0.8617 H         1 <0>         0.1329
     28 H10        -0.3524   -0.5046   -2.5139 H         1 <0>         0.0578
     29 H11        -1.4631   -1.8847   -2.3413 H         1 <0>         0.0907
     30 H12        -2.0378    0.6790   -3.8950 H         1 <0>         0.0660
     31 H13        -1.6180   -0.8961   -4.6100 H         1 <0>         0.0763
     32 H14        -4.0712   -0.5354   -4.6293 H         1 <0>         0.0734
     33 H15        -3.6347   -1.9028   -3.5766 H         1 <0>         0.0754
     34 H16        -4.1861    0.9525   -2.6490 H         1 <0>         0.0781
     35 H17        -5.2967   -0.4277   -2.4764 H         1 <0>         0.0777
     36 H18        -2.9581    1.8786   -0.1553 H         1 <0>         0.1212
     37 H19        -4.0462    2.9995    1.7463 H         1 <0>         0.1326
     38 H20        -5.9155    1.9060    2.9166 H         1 <0>         0.1356
     39 H21        -5.6131   -1.4318    0.2646 H         1 <0>         0.1311
     40 H22        -7.7815   -0.2304    1.9457 H         1 <0>         0.4003
     41 H23        -4.5359   -2.2851   -1.0074 H         1 <0>         0.3898
     42 H24         0.4743   -0.3295   -0.8281 H         1 <0>         0.4241
@<TRIPOS>BOND
     1    1    2 1
     2    1   20 1
     3    1   21 1
     4    1   22 1
     5    2    3 1
     6    2    4 1
     7    2   42 1
     8    3   23 1
     9    3   24 1
    10    3   25 1
    11    4    5 1
    12    4   26 1
    13    4   27 1
    14    5    6 1
    15    5   11 1
    16    5    7 1
    17    7    8 1
    18    7   28 1
    19    7   29 1
    20    8    9 1
    21    8   30 1
    22    8   31 1
    23    9   10 1
    24    9   32 1
    25    9   33 1
    26   10   11 1
    27   10   34 1
    28   10   35 1
    29   11   12 1
    30   11   19 1
    31   12   17 ar
    32   12   13 ar
    33   13   14 ar
    34   13   36 1
    35   14   15 ar
    36   14   37 1
    37   15   16 ar
    38   15   38 1
    39   16   17 ar
    40   16   18 1
    41   17   39 1
    42   18   40 1
    43   19   41 1
@<TRIPOS>MOLECULE
ZINC00002275
   47    49     0     0     0
SMALL
USER_CHARGES
2-[(2-ethoxyphenoxy)-phenyl-methyl]morpholine
@<TRIPOS>ATOM
      1 C1          3.7658   -0.8597   -0.0076 C.3       1 <0>        -0.1535
      2 C2          2.3425   -0.3045   -0.0892 C.3       1 <0>         0.0523
      3 O1          2.3855    1.1235   -0.0552 O.3       1 <0>        -0.3045
      4 C3          1.1955    1.7787   -0.1193 C.ar      1 <0>         0.1159
      5 C4          0.0128    1.0628   -0.2128 C.ar      1 <0>        -0.1686
      6 C5         -1.1955    1.7306   -0.2836 C.ar      1 <0>        -0.1015
      7 C6         -1.2282    3.1124   -0.2507 C.ar      1 <0>        -0.1167
      8 C7         -0.0519    3.8326   -0.1575 C.ar      1 <0>        -0.1897
      9 C8          1.1630    3.1696   -0.0915 C.ar      1 <0>         0.0771
     10 O2          2.3211    3.8766   -0.0002 O.3       1 <0>        -0.2816
     11 C9          2.2230    5.2986   -0.1031 C.3       1 <0>         0.1406
     12 H1          1.2847    5.5637   -0.5904 H         1 <0>         0.1038
     13 C10         3.3775    5.8243   -0.9165 C.ar      1 <0>        -0.1062
     14 C11         4.6184    5.2220   -0.8249 C.ar      1 <0>        -0.0901
     15 C12         5.6763    5.7012   -1.5748 C.ar      1 <0>        -0.1212
     16 C13         5.4957    6.7889   -2.4086 C.ar      1 <0>        -0.1022
     17 C14         4.2562    7.3947   -2.4959 C.ar      1 <0>        -0.1196
     18 C15         3.1971    6.9122   -1.7500 C.ar      1 <0>        -0.0892
     19 C16         2.2627    5.9151    1.2966 C.3       1 <0>         0.0583
     20 H2          3.2001    5.6491    1.7850 H         1 <0>         0.1003
     21 C17         1.0869    5.3857    2.1220 C.3       1 <0>        -0.0472
     22 C18         0.9843    7.4991    3.2957 C.3       1 <0>        -0.0426
     23 C19         2.1611    8.0073    2.4585 C.3       1 <0>         0.0365
     24 O3          2.1645    7.3382    1.1945 O.3       1 <0>        -0.3419
     25 H3          4.3477   -0.4935   -0.8534 H         1 <0>         0.0688
     26 H4          4.2308   -0.5323    0.9223 H         1 <0>         0.0663
     27 H5          3.7330   -1.9489   -0.0335 H         1 <0>         0.0832
     28 H6          1.7605   -0.6707    0.7566 H         1 <0>         0.0639
     29 H7          1.8775   -0.6319   -1.0191 H         1 <0>         0.0657
     30 H8          0.0354   -0.0167   -0.2349 H         1 <0>         0.1409
     31 H9         -2.1164    1.1716   -0.3606 H         1 <0>         0.1340
     32 H10        -2.1745    3.6303   -0.3021 H         1 <0>         0.1318
     33 H11        -0.0799    4.9120   -0.1358 H         1 <0>         0.1335
     34 H12         4.7605    4.3748   -0.1704 H         1 <0>         0.1268
     35 H13         6.6448    5.2282   -1.5063 H         1 <0>         0.1275
     36 H14         6.3231    7.1656   -2.9916 H         1 <0>         0.1277
     37 H15         4.1153    8.2447   -3.1471 H         1 <0>         0.1286
     38 H16         2.2287    7.3855   -1.8182 H         1 <0>         0.1235
     39 H17         0.1521    5.6048    1.6060 H         1 <0>         0.1433
     40 H18         1.1885    4.3081    2.2507 H         1 <0>         0.1473
     41 H19         1.0110    7.9641    4.2811 H         1 <0>         0.1471
     42 H20         0.0479    7.7526    2.7988 H         1 <0>         0.1411
     43 H21         3.0952    7.8021    2.9814 H         1 <0>         0.0832
     44 H22         2.0593    9.0811    2.3017 H         1 <0>         0.1456
     45 N1          1.0862    6.0351    3.4467 N.4       1 <0>        -0.5141
     46 H23         1.9579    5.8045    3.9379 H         1 <0>         0.4340
     47 H24         0.2857    5.6936    3.9915 H         1 <0>         0.4415
@<TRIPOS>BOND
     1    1    2 1
     2    1   25 1
     3    1   26 1
     4    1   27 1
     5    2    3 1
     6    2   28 1
     7    2   29 1
     8    3    4 1
     9    4    9 ar
    10    4    5 ar
    11    5    6 ar
    12    5   30 1
    13    6    7 ar
    14    6   31 1
    15    7    8 ar
    16    7   32 1
    17    8    9 ar
    18    8   33 1
    19    9   10 1
    20   10   11 1
    21   11   12 1
    22   11   13 1
    23   11   19 1
    24   13   18 ar
    25   13   14 ar
    26   14   15 ar
    27   14   34 1
    28   15   16 ar
    29   15   35 1
    30   16   17 ar
    31   16   36 1
    32   17   18 ar
    33   17   37 1
    34   18   38 1
    35   19   20 1
    36   19   24 1
    37   19   21 1
    38   21   39 1
    39   21   40 1
    40   21   45 1
    41   22   23 1
    42   22   41 1
    43   22   42 1
    44   22   45 1
    45   23   24 1
    46   23   43 1
    47   23   44 1
    48   45   46 1
    49   45   47 1
@<TRIPOS>MOLECULE
ZINC00002284
   47    49     0     0     0
SMALL
USER_CHARGES
2-[(2-ethoxyphenoxy)-phenyl-methyl]morpholine
@<TRIPOS>ATOM
      1 C1         -0.2577    1.4416    0.0894 C.3       1 <0>        -0.1513
      2 C2          0.0072   -0.0609   -0.0264 C.3       1 <0>         0.0521
      3 O1          0.6878   -0.5163    1.1447 O.3       1 <0>        -0.3107
      4 C3          1.0003   -1.8386    1.2023 C.ar      1 <0>         0.1096
      5 C4          0.6592   -2.6789    0.1547 C.ar      1 <0>        -0.1731
      6 C5          0.9775   -4.0228    0.2148 C.ar      1 <0>        -0.1022
      7 C6          1.6362   -4.5316    1.3188 C.ar      1 <0>        -0.1164
      8 C7          1.9794   -3.6987    2.3674 C.ar      1 <0>        -0.1622
      9 C8          1.6683   -2.3495    2.3109 C.ar      1 <0>         0.0877
     10 O2          2.0102   -1.5277    3.3391 O.3       1 <0>        -0.2963
     11 C9          2.5815   -2.1403    4.4968 C.3       1 <0>         0.1428
     12 H1          2.1155   -3.1119    4.6611 H         1 <0>         0.0968
     13 C10         4.0630   -2.3224    4.2895 C.ar      1 <0>        -0.1274
     14 C11         4.7994   -1.3355    3.6613 C.ar      1 <0>        -0.0926
     15 C12         6.1592   -1.5006    3.4750 C.ar      1 <0>        -0.1196
     16 C13         6.7808   -2.6567    3.9084 C.ar      1 <0>        -0.1023
     17 C14         6.0436   -3.6456    4.5324 C.ar      1 <0>        -0.1182
     18 C15         4.6846   -3.4787    4.7225 C.ar      1 <0>        -0.0929
     19 C16         2.3431   -1.2476    5.7163 C.3       1 <0>         0.0824
     20 H2          2.8088   -0.2758    5.5526 H         1 <0>         0.1000
     21 C17         0.8381   -1.0639    5.9290 C.3       1 <0>        -0.0381
     22 C18         1.2113   -0.9294    8.3158 C.3       1 <0>        -0.0426
     23 C19         2.7125   -1.1145    8.0792 C.3       1 <0>         0.0381
     24 O3          2.9128   -1.8610    6.8759 O.3       1 <0>        -0.3431
     25 H3          0.6900    1.9710    0.1878 H         1 <0>         0.0669
     26 H4         -0.7768    1.7889   -0.8038 H         1 <0>         0.0825
     27 H5         -0.8748    1.6351    0.9668 H         1 <0>         0.0636
     28 H6         -0.9405   -0.5903   -0.1248 H         1 <0>         0.0637
     29 H7          0.6243   -0.2545   -0.9037 H         1 <0>         0.0650
     30 H8          0.1450   -2.2839   -0.7090 H         1 <0>         0.1386
     31 H9          0.7114   -4.6767   -0.6025 H         1 <0>         0.1326
     32 H10         1.8835   -5.5820    1.3619 H         1 <0>         0.1314
     33 H11         2.4939   -4.0986    3.2286 H         1 <0>         0.1347
     34 H12         4.3130   -0.4340    3.3190 H         1 <0>         0.1240
     35 H13         6.7352   -0.7278    2.9878 H         1 <0>         0.1266
     36 H14         7.8426   -2.7871    3.7599 H         1 <0>         0.1273
     37 H15         6.5293   -4.5489    4.8710 H         1 <0>         0.1280
     38 H16         4.1085   -4.2515    5.2097 H         1 <0>         0.1226
     39 H17         0.4100   -0.5448    5.0715 H         1 <0>         0.1536
     40 H18         0.3642   -2.0394    6.0385 H         1 <0>         0.1408
     41 H19         1.0557   -0.3121    9.2006 H         1 <0>         0.1467
     42 H20         0.7434   -1.9027    8.4634 H         1 <0>         0.1410
     43 H21         3.1891   -0.1387    7.9850 H         1 <0>         0.0834
     44 H22         3.1497   -1.6535    8.9197 H         1 <0>         0.1457
     45 N1          0.6093   -0.2620    7.1460 N.4       1 <0>        -0.5152
     46 H23        -0.4007   -0.1567    7.2979 H         1 <0>         0.4418
     47 H24         1.0359    0.6643    7.0270 H         1 <0>         0.4344
@<TRIPOS>BOND
     1    1    2 1
     2    1   25 1
     3    1   26 1
     4    1   27 1
     5    2    3 1
     6    2   28 1
     7    2   29 1
     8    3    4 1
     9    4    9 ar
    10    4    5 ar
    11    5    6 ar
    12    5   30 1
    13    6    7 ar
    14    6   31 1
    15    7    8 ar
    16    7   32 1
    17    8    9 ar
    18    8   33 1
    19    9   10 1
    20   10   11 1
    21   11   12 1
    22   11   13 1
    23   11   19 1
    24   13   18 ar
    25   13   14 ar
    26   14   15 ar
    27   14   34 1
    28   15   16 ar
    29   15   35 1
    30   16   17 ar
    31   16   36 1
    32   17   18 ar
    33   17   37 1
    34   18   38 1
    35   19   20 1
    36   19   24 1
    37   19   21 1
    38   21   39 1
    39   21   40 1
    40   21   45 1
    41   22   23 1
    42   22   41 1
    43   22   42 1
    44   22   45 1
    45   23   24 1
    46   23   43 1
    47   23   44 1
    48   45   46 1
    49   45   47 1
@<TRIPOS>MOLECULE
ZINC00006923
   47    49     0     0     0
SMALL
USER_CHARGES

@<TRIPOS>ATOM
      1 C1         -0.0241    1.4833   -0.0247 C.3       1 <0>        -0.1532
      2 C2          0.1908   -0.0289   -0.1147 C.3       1 <0>         0.0525
      3 O1          0.8097   -0.4943    1.0863 O.3       1 <0>        -0.3036
      4 C3          1.0721   -1.8261    1.1696 C.ar      1 <0>         0.1113
      5 C4          0.7463   -2.6652    0.1162 C.ar      1 <0>        -0.1682
      6 C5          1.0142   -4.0187    0.2023 C.ar      1 <0>        -0.1050
      7 C6          1.6066   -4.5383    1.3382 C.ar      1 <0>        -0.1148
      8 C7          1.9338   -3.7068    2.3930 C.ar      1 <0>        -0.1943
      9 C8          1.6737   -2.3482    2.3106 C.ar      1 <0>         0.0786
     10 O2          2.0003   -1.5279    3.3449 O.3       1 <0>        -0.2770
     11 C9          2.5664   -2.1407    4.5051 C.3       1 <0>         0.1393
     12 H1          3.0287   -3.0878    4.2269 H         1 <0>         0.1108
     13 C10         3.6090   -1.2277    5.0973 C.ar      1 <0>        -0.1106
     14 C11         3.3847    0.1353    5.1497 C.ar      1 <0>        -0.0647
     15 C12         4.3410    0.9727    5.6930 C.ar      1 <0>        -0.1241
     16 C13         5.5214    0.4471    6.1842 C.ar      1 <0>        -0.1007
     17 C14         5.7453   -0.9160    6.1326 C.ar      1 <0>        -0.1215
     18 C15         4.7872   -1.7539    5.5933 C.ar      1 <0>        -0.1060
     19 C16         1.4653   -2.3942    5.5367 C.3       1 <0>         0.0572
     20 H2          1.8791   -2.9409    6.3840 H         1 <0>         0.1027
     21 C17         0.3443   -3.2164    4.8961 C.3       1 <0>        -0.0524
     22 N1         -0.7378   -3.4087    5.8715 N.4       1 <0>        -0.5031
     23 C18        -1.2628   -2.0996    6.2834 C.3       1 <0>        -0.0459
     24 C19        -0.1388   -1.2794    6.9214 C.3       1 <0>         0.0331
     25 O3          0.9360   -1.1442    5.9874 O.3       1 <0>        -0.3322
     26 H3          0.9375    1.9799    0.1045 H         1 <0>         0.0691
     27 H4         -0.4962    1.8383   -0.9408 H         1 <0>         0.0828
     28 H5         -0.6668    1.7089    0.8262 H         1 <0>         0.0658
     29 H6         -0.7708   -0.5255   -0.2438 H         1 <0>         0.0627
     30 H7          0.8335   -0.2545   -0.9656 H         1 <0>         0.0654
     31 H8          0.2828   -2.2619   -0.7720 H         1 <0>         0.1399
     32 H9          0.7598   -4.6716   -0.6195 H         1 <0>         0.1333
     33 H10         1.8140   -5.5963    1.4018 H         1 <0>         0.1319
     34 H11         2.3962   -4.1153    3.2794 H         1 <0>         0.1343
     35 H12         2.4625    0.5460    4.7660 H         1 <0>         0.1304
     36 H13         4.1661    2.0377    5.7333 H         1 <0>         0.1270
     37 H14         6.2688    1.1014    6.6079 H         1 <0>         0.1274
     38 H15         6.6676   -1.3267    6.5160 H         1 <0>         0.1285
     39 H16         4.9605   -2.8193    5.5563 H         1 <0>         0.1222
     40 H17        -0.0417   -2.6880    4.0244 H         1 <0>         0.1463
     41 H18         0.7346   -4.1870    4.5900 H         1 <0>         0.1464
     42 H19        -1.4776   -3.9507    5.4508 H         1 <0>         0.4367
     43 H20        -1.6482   -1.5716    5.4112 H         1 <0>         0.1412
     44 H21        -2.0655   -2.2411    7.0071 H         1 <0>         0.1470
     45 H22        -0.5153   -0.2920    7.1887 H         1 <0>         0.1438
     46 H23         0.2196   -1.7877    7.8166 H         1 <0>         0.0815
     47 H24        -0.3801   -3.8969    6.6789 H         1 <0>         0.4281
@<TRIPOS>BOND
     1    1    2 1
     2    1   26 1
     3    1   27 1
     4    1   28 1
     5    2    3 1
     6    2   29 1
     7    2   30 1
     8    3    4 1
     9    4    9 ar
    10    4    5 ar
    11    5    6 ar
    12    5   31 1
    13    6    7 ar
    14    6   32 1
    15    7    8 ar
    16    7   33 1
    17    8    9 ar
    18    8   34 1
    19    9   10 1
    20   10   11 1
    21   11   12 1
    22   11   13 1
    23   11   19 1
    24   13   18 ar
    25   13   14 ar
    26   14   15 ar
    27   14   35 1
    28   15   16 ar
    29   15   36 1
    30   16   17 ar
    31   16   37 1
    32   17   18 ar
    33   17   38 1
    34   18   39 1
    35   19   20 1
    36   19   25 1
    37   19   21 1
    38   21   22 1
    39   21   40 1
    40   21   41 1
    41   22   23 1
    42   22   42 1
    43   22   47 1
    44   23   24 1
    45   23   43 1
    46   23   44 1
    47   24   25 1
    48   24   45 1
    49   24   46 1
@<TRIPOS>MOLECULE
ZINC03996032
   47    49     0     0     0
SMALL
USER_CHARGES

@<TRIPOS>ATOM
      1 C1         -0.0138    1.5481    0.0281 C.3       1 <0>        -0.1532
      2 C2         -0.0597    0.0189    0.0504 C.3       1 <0>         0.0524
      3 O1          0.6552   -0.4624    1.1903 O.3       1 <0>        -0.3033
      4 C3          0.7112   -1.8106    1.3598 C.ar      1 <0>         0.1140
      5 C4          0.0966   -2.6515    0.4460 C.ar      1 <0>        -0.1684
      6 C5          0.1549   -4.0217    0.6195 C.ar      1 <0>        -0.1038
      7 C6          0.8252   -4.5563    1.7041 C.ar      1 <0>        -0.1160
      8 C7          1.4402   -3.7230    2.6198 C.ar      1 <0>        -0.1938
      9 C8          1.3908   -2.3489    2.4483 C.ar      1 <0>         0.0788
     10 O2          2.0003   -1.5279    3.3449 O.3       1 <0>        -0.2779
     11 C9          2.5664   -2.1407    4.5051 C.3       1 <0>         0.1400
     12 H1          2.1003   -3.1126    4.6668 H         1 <0>         0.1107
     13 C10         2.3254   -1.2620    5.7055 C.ar      1 <0>        -0.1101
     14 C11         2.3352    0.1135    5.5684 C.ar      1 <0>        -0.0659
     15 C12         2.1141    0.9194    6.6695 C.ar      1 <0>        -0.1231
     16 C13         1.8827    0.3499    7.9076 C.ar      1 <0>        -0.1015
     17 C14         1.8719   -1.0256    8.0446 C.ar      1 <0>        -0.1210
     18 C15         2.0888   -1.8316    6.9427 C.ar      1 <0>        -0.1076
     19 C16         4.0717   -2.3245    4.3017 C.3       1 <0>         0.0579
     20 H2          4.4892   -2.8712    5.1473 H         1 <0>         0.1026
     21 C17         4.3210   -3.1101    3.0119 C.3       1 <0>        -0.0532
     22 N1          5.7680   -3.2348    2.7889 N.4       1 <0>        -0.5032
     23 C18         6.3615   -1.8958    2.6708 C.3       1 <0>        -0.0459
     24 C19         6.1084   -1.1125    3.9614 C.3       1 <0>         0.0331
     25 O3          4.7004   -1.0436    4.2037 O.3       1 <0>        -0.3318
     26 H3          1.0230    1.8797   -0.0267 H         1 <0>         0.0662
     27 H4         -0.5592    1.9152   -0.8414 H         1 <0>         0.0829
     28 H5         -0.4727    1.9387    0.9363 H         1 <0>         0.0689
     29 H6         -1.0966   -0.3127    0.1052 H         1 <0>         0.0653
     30 H7          0.3992   -0.3717   -0.8578 H         1 <0>         0.0631
     31 H8         -0.4283   -2.2364   -0.4017 H         1 <0>         0.1401
     32 H9         -0.3246   -4.6760   -0.0935 H         1 <0>         0.1334
     33 H10         0.8682   -5.6273    1.8364 H         1 <0>         0.1316
     34 H11         1.9628   -4.1432    3.4663 H         1 <0>         0.1320
     35 H12         2.5160    0.5584    4.6011 H         1 <0>         0.1303
     36 H13         2.1225    1.9941    6.5625 H         1 <0>         0.1270
     37 H14         1.7106    0.9796    8.7680 H         1 <0>         0.1273
     38 H15         1.6915   -1.4706    9.0120 H         1 <0>         0.1283
     39 H16         2.0767   -2.9063    7.0489 H         1 <0>         0.1218
     40 H17         3.8797   -4.1029    3.0997 H         1 <0>         0.1465
     41 H18         3.8678   -2.5835    2.1720 H         1 <0>         0.1472
     42 H19         6.1876   -3.7214    3.5670 H         1 <0>         0.4280
     43 H20         7.4350   -1.9872    2.5056 H         1 <0>         0.1470
     44 H21         5.9075   -1.3696    1.8311 H         1 <0>         0.1414
     45 H22         6.5963   -1.6173    4.7952 H         1 <0>         0.0815
     46 H23         6.5101   -0.1043    3.8599 H         1 <0>         0.1438
     47 H24         5.9341   -3.7526    1.9390 H         1 <0>         0.4368
@<TRIPOS>BOND
     1    1    2 1
     2    1   26 1
     3    1   27 1
     4    1   28 1
     5    2    3 1
     6    2   29 1
     7    2   30 1
     8    3    4 1
     9    4    9 ar
    10    4    5 ar
    11    5    6 ar
    12    5   31 1
    13    6    7 ar
    14    6   32 1
    15    7    8 ar
    16    7   33 1
    17    8    9 ar
    18    8   34 1
    19    9   10 1
    20   10   11 1
    21   11   12 1
    22   11   13 1
    23   11   19 1
    24   13   18 ar
    25   13   14 ar
    26   14   15 ar
    27   14   35 1
    28   15   16 ar
    29   15   36 1
    30   16   17 ar
    31   16   37 1
    32   17   18 ar
    33   17   38 1
    34   18   39 1
    35   19   20 1
    36   19   25 1
    37   19   21 1
    38   21   22 1
    39   21   40 1
    40   21   41 1
    41   22   23 1
    42   22   42 1
    43   22   47 1
    44   23   24 1
    45   23   43 1
    46   23   44 1
    47   24   25 1
    48   24   45 1
    49   24   46 1
@<TRIPOS>MOLECULE
ZINC00598412
   41    43     0     0     0
SMALL
USER_CHARGES
methyl 3-(4-iodophenyl)-8-methyl-8-azabicyclo[3.2.1]octane-4-carboxylate
@<TRIPOS>ATOM
      1 C1         -2.8162    0.7064    0.2330 C.3       1 <0>        -0.0354
      2 C2         -1.8992    2.8594    0.9108 C.3       1 <0>         0.0308
      3 H1         -2.7484    2.9369    1.5897 H         1 <0>         0.1599
      4 C3         -0.6427    2.2612    1.5901 C.3       1 <0>        -0.2081
      5 C4          0.0690    1.4715    0.4719 C.3       1 <0>        -0.2064
      6 C5         -0.8182    1.6649   -0.7794 C.3       1 <0>         0.0471
      7 H2         -0.8095    0.7905   -1.4300 H         1 <0>         0.1666
      8 C6         -0.3475    2.9402   -1.4968 C.3       1 <0>        -0.1060
      9 H3         -1.0824    3.2286   -2.2484 H         1 <0>         0.1432
     10 C7         -0.2003    4.0632   -0.4662 C.3       1 <0>        -0.0505
     11 H4          0.0312    4.9972   -0.9782 H         1 <0>         0.1354
     12 C8         -1.5071    4.2215    0.3162 C.3       1 <0>        -0.1427
     13 C9          0.9166    3.7240    0.4870 C.ar      1 <0>        -0.0784
     14 C10         0.8760    4.1828    1.7904 C.ar      1 <0>        -0.1008
     15 C11         1.8976    3.8671    2.6665 C.ar      1 <0>        -0.0964
     16 C12         2.9656    3.1013    2.2359 C.ar      1 <0>        -0.0843
     17 C13         3.0087    2.6473    0.9304 C.ar      1 <0>        -0.0914
     18 C14         1.9844    2.9589    0.0562 C.ar      1 <0>        -0.1387
     19 I1          4.5176    2.6286    3.5614 I         1 <0>        -0.0151
     20 C15         0.9820    2.6854   -2.1590 C.2       1 <0>         0.4848
     21 O1          1.3590    1.5519   -2.3406 O.2       1 <0>        -0.4969
     22 O2          1.7472    3.7175   -2.5472 O.3       1 <0>        -0.3510
     23 C16         3.0151    3.3974   -3.1783 C.3       1 <0>         0.0292
     24 H5         -2.2082    0.2491    1.0136 H         1 <0>         0.1188
     25 H6         -3.8040    0.9385    0.6310 H         1 <0>         0.1278
     26 H7         -2.9148    0.0142   -0.6032 H         1 <0>         0.1245
     27 H8         -0.9312    1.5932    2.4016 H         1 <0>         0.0950
     28 H9          0.0032    3.0560    1.9632 H         1 <0>         0.1683
     29 H10         0.1305    0.4152    0.7337 H         1 <0>         0.0979
     30 H11         1.0656    1.8767    0.2966 H         1 <0>         0.1638
     31 H12        -2.2941    4.5675   -0.3539 H         1 <0>         0.1039
     32 H13        -1.3682    4.9444    1.1201 H         1 <0>         0.1251
     33 H14         0.0439    4.7842    2.1255 H         1 <0>         0.1475
     34 H15         1.8634    4.2215    3.6861 H         1 <0>         0.1426
     35 H16         3.8425    2.0489    0.5939 H         1 <0>         0.1386
     36 H17         2.0180    2.6044   -0.9634 H         1 <0>         0.1537
     37 H18         3.5328    4.3197   -3.4421 H         1 <0>         0.1165
     38 H19         3.6297    2.8208   -2.4870 H         1 <0>         0.0707
     39 H20         2.8347    2.8114   -4.0795 H         1 <0>         0.0750
     40 N1         -2.1338    1.9607   -0.2230 N.4       1 <0>        -0.3896
     41 H21        -2.7182    2.4256   -0.9277 H         1 <0>         0.4251
@<TRIPOS>BOND
     1    1   24 1
     2    1   25 1
     3    1   26 1
     4    1   40 1
     5    2    3 1
     6    2   12 1
     7    2    4 1
     8    2   40 1
     9    4    5 1
    10    4   27 1
    11    4   28 1
    12    5    6 1
    13    5   29 1
    14    5   30 1
    15    6    7 1
    16    6    8 1
    17    6   40 1
    18    8    9 1
    19    8   10 1
    20    8   20 1
    21   10   11 1
    22   10   12 1
    23   10   13 1
    24   12   31 1
    25   12   32 1
    26   13   18 ar
    27   13   14 ar
    28   14   15 ar
    29   14   33 1
    30   15   16 ar
    31   15   34 1
    32   16   17 ar
    33   16   19 1
    34   17   18 ar
    35   17   35 1
    36   18   36 1
    37   20   21 2
    38   20   22 1
    39   22   23 1
    40   23   37 1
    41   23   38 1
    42   23   39 1
    43   40   41 1
@<TRIPOS>MOLECULE
ZINC28016618
   38    40     0     0     0
SMALL
USER_CHARGES
methyl (1S,2S,3S,5R)-3-(4-iodophenyl)-8-azabicyclo[3.2.1]octane-2-carboxylate
@<TRIPOS>ATOM
      1 C1          1.8402    3.9910    4.8111 C.3       1 <0>         0.0238
      2 O1          2.0930    4.7913    3.6262 O.3       1 <0>        -0.3646
      3 C2          2.2156    4.1345    2.4620 C.2       1 <0>         0.4740
      4 O2          2.1150    2.9308    2.4340 O.2       1 <0>        -0.4785
      5 C3          2.4786    4.8985    1.1900 C.3       1 <0>        -0.1019
      6 H1          3.5493    4.8123    0.9529 H         1 <0>         0.1456
      7 C4          2.0884    6.3725    1.3846 C.3       1 <0>         0.0447
      8 H2          2.5848    6.7983    2.2691 H         1 <0>         0.1644
      9 C5          0.5449    6.4513    1.4275 C.3       1 <0>        -0.2091
     10 C6          0.1169    6.6213   -0.0450 C.3       1 <0>        -0.2116
     11 C7          1.4405    6.6297   -0.8438 C.3       1 <0>         0.0504
     12 H3          1.4179    7.2615   -1.7440 H         1 <0>         0.1560
     13 N1          2.4567    7.0943    0.1376 N.4       1 <0>        -0.5440
     14 C8          1.7837    5.1744   -1.2005 C.3       1 <0>        -0.1421
     15 C9          1.6375    4.3088    0.0543 C.3       1 <0>        -0.0477
     16 H4          1.9710    3.2829   -0.1610 H         1 <0>         0.1330
     17 C10         0.1897    4.2702    0.4707 C.ar      1 <0>        -0.0773
     18 C11        -0.1421    4.1200    1.8043 C.ar      1 <0>        -0.1343
     19 C12        -1.4699    4.0845    2.1865 C.ar      1 <0>        -0.0934
     20 C13        -2.4666    4.1946    1.2342 C.ar      1 <0>        -0.0843
     21 C14        -2.1344    4.3501   -0.0992 C.ar      1 <0>        -0.0975
     22 C15        -0.8064    4.3855   -0.4809 C.ar      1 <0>        -0.1013
     23 I1         -4.4794    4.1329    1.8122 I         1 <0>        -0.0153
     24 H5          1.7621    4.6497    5.6886 H         1 <0>         0.1179
     25 H6          2.6679    3.2815    4.9577 H         1 <0>         0.0771
     26 H7          0.8992    3.4356    4.6845 H         1 <0>         0.0725
     27 H8          0.1425    5.5254    1.8644 H         1 <0>         0.1631
     28 H9          0.2385    7.3103    2.0425 H         1 <0>         0.0991
     29 H10        -0.5303    5.7815   -0.3380 H         1 <0>         0.1704
     30 H11        -0.4342    7.5663   -0.1599 H         1 <0>         0.0965
     31 H12         2.4048    8.1790    0.3129 H         1 <0>         0.4565
     32 H13         1.0966    4.8165   -1.9814 H         1 <0>         0.1251
     33 H14         2.8184    5.1217   -1.5702 H         1 <0>         0.1039
     34 H15         0.6364    4.0299    2.5475 H         1 <0>         0.1517
     35 H16        -1.7290    3.9664    3.2283 H         1 <0>         0.1380
     36 H17        -2.9126    4.4399   -0.8428 H         1 <0>         0.1427
     37 H18        -0.5470    4.5029   -1.5227 H         1 <0>         0.1472
     38 H19         3.4802    6.8190   -0.1568 H         1 <0>         0.4495
@<TRIPOS>BOND
     1    1    2 1
     2    1   24 1
     3    1   25 1
     4    1   26 1
     5    2    3 1
     6    3    4 2
     7    3    5 1
     8    5    6 1
     9    5   15 1
    10    5    7 1
    11    7    8 1
    12    7   13 1
    13    7    9 1
    14    9   10 1
    15    9   27 1
    16    9   28 1
    17   10   11 1
    18   10   29 1
    19   10   30 1
    20   11   12 1
    21   11   13 1
    22   11   14 1
    23   13   31 1
    24   13   38 1
    25   14   15 1
    26   14   32 1
    27   14   33 1
    28   15   16 1
    29   15   17 1
    30   17   22 ar
    31   17   18 ar
    32   18   19 ar
    33   18   34 1
    34   19   20 ar
    35   19   35 1
    36   20   21 ar
    37   20   23 1
    38   21   22 ar
    39   21   36 1
    40   22   37 1
@<TRIPOS>MOLECULE
ZINC33744856
   38    40     0     0     0
SMALL
USER_CHARGES
methyl (1S,2R,3S,5R)-3-(4-iodophenyl)-8-azabicyclo[3.2.1]octane-2-carboxylate
@<TRIPOS>ATOM
      1 C1          0.0478   -0.0270   -0.2278 C.3       1 <0>         0.0254
      2 O1          0.0155    1.4246   -0.2273 O.3       1 <0>        -0.3540
      3 C2          1.1936    2.0604   -0.1292 C.2       1 <0>         0.4359
      4 O2          2.2179    1.4249   -0.0465 O.2       1 <0>        -0.4738
      5 C3          1.2387    3.5667   -0.1222 C.3       1 <0>        -0.1024
      6 H1          0.8105    3.9274   -1.0691 H         1 <0>         0.1574
      7 C4          0.4301    4.1004    1.0712 C.3       1 <0>         0.0490
      8 H2         -0.6417    3.8854    0.9490 H         1 <0>         0.1634
      9 C5          0.7586    5.6027    1.2310 C.3       1 <0>        -0.2060
     10 C6          1.9909    5.6412    2.1586 C.3       1 <0>        -0.2086
     11 C7          2.2950    4.1587    2.4749 C.3       1 <0>         0.0486
     12 H3          2.7118    3.9864    3.4782 H         1 <0>         0.1532
     13 N1          0.9879    3.4718    2.2981 N.4       1 <0>        -0.5484
     14 C8          3.2517    3.6337    1.3924 C.3       1 <0>        -0.1495
     15 C9          2.6901    4.0358    0.0131 C.3       1 <0>        -0.0406
     16 H4          3.2926    3.5811   -0.7871 H         1 <0>         0.1283
     17 C10         2.7473    5.5353   -0.1252 C.ar      1 <0>        -0.0748
     18 C11         1.8189    6.1928   -0.9106 C.ar      1 <0>        -0.1102
     19 C12         1.8676    7.5687   -1.0331 C.ar      1 <0>        -0.0952
     20 C13         2.8518    8.2866   -0.3784 C.ar      1 <0>        -0.0852
     21 C14         3.7838    7.6281    0.4028 C.ar      1 <0>        -0.0963
     22 C15         3.7314    6.2526    0.5290 C.ar      1 <0>        -0.1018
     23 I1          2.9312   10.3713   -0.5706 I         1 <0>        -0.0163
     24 H5         -0.9774   -0.4165   -0.3128 H         1 <0>         0.1173
     25 H6          0.4991   -0.3840    0.7097 H         1 <0>         0.0711
     26 H7          0.6461   -0.3801   -1.0806 H         1 <0>         0.0765
     27 H8          0.9776    6.0371    0.2444 H         1 <0>         0.1692
     28 H9         -0.1031    6.1211    1.6767 H         1 <0>         0.1000
     29 H10         2.8284    6.1262    1.6357 H         1 <0>         0.1712
     30 H11         1.7476    6.2101    3.0681 H         1 <0>         0.0965
     31 H12         0.3050    3.6466    3.1425 H         1 <0>         0.4566
     32 H13         4.2481    4.0765    1.5376 H         1 <0>         0.1230
     33 H14         3.3230    2.5385    1.4659 H         1 <0>         0.1095
     34 H15         1.0528    5.6317   -1.4251 H         1 <0>         0.1424
     35 H16         1.1394    8.0828   -1.6429 H         1 <0>         0.1415
     36 H17         4.5523    8.1885    0.9144 H         1 <0>         0.1417
     37 H18         4.4592    5.7383    1.1390 H         1 <0>         0.1462
     38 H19         1.1016    2.3897    2.1365 H         1 <0>         0.4394
@<TRIPOS>BOND
     1    1    2 1
     2    1   24 1
     3    1   25 1
     4    1   26 1
     5    2    3 1
     6    3    4 2
     7    3    5 1
     8    5    6 1
     9    5   15 1
    10    5    7 1
    11    7    8 1
    12    7   13 1
    13    7    9 1
    14    9   10 1
    15    9   27 1
    16    9   28 1
    17   10   11 1
    18   10   29 1
    19   10   30 1
    20   11   12 1
    21   11   13 1
    22   11   14 1
    23   13   31 1
    24   13   38 1
    25   14   15 1
    26   14   32 1
    27   14   33 1
    28   15   16 1
    29   15   17 1
    30   17   22 ar
    31   17   18 ar
    32   18   19 ar
    33   18   34 1
    34   19   20 ar
    35   19   35 1
    36   20   21 ar
    37   20   23 1
    38   21   22 ar
    39   21   36 1
    40   22   37 1
@<TRIPOS>MOLECULE
ZINC03872907
   35    37     0     0     0
SMALL
USER_CHARGES
3-(3,4-dichlorophenyl)-N-methyl-indan-1-amine
@<TRIPOS>ATOM
      1 C1          1.8113    6.3768   -0.3145 C.3       1 <0>        -0.0482
      2 C2         -0.3439    5.3289    0.0315 C.3       1 <0>         0.0831
      3 H1         -0.2032    5.7353    1.0331 H         1 <0>         0.1537
      4 C3         -1.8220    5.4545   -0.3947 C.3       1 <0>        -0.1332
      5 C4         -2.4100    4.0967    0.0446 C.3       1 <0>        -0.0043
      6 H2         -2.8250    4.1716    1.0497 H         1 <0>         0.1169
      7 C5         -1.2410    3.1352    0.0293 C.ar      1 <0>        -0.0576
      8 C6         -0.0536    3.8434    0.0218 C.ar      1 <0>        -0.1646
      9 C7          1.1533    3.1650    0.0076 C.ar      1 <0>        -0.0961
     10 C8          1.1744    1.7837    0.0004 C.ar      1 <0>        -0.1074
     11 C9         -0.0126    1.0758    0.0080 C.ar      1 <0>        -0.0822
     12 C10        -1.2178    1.7509    0.0173 C.ar      1 <0>        -0.0906
     13 C11        -3.4715    3.6479   -0.9264 C.ar      1 <0>        -0.0777
     14 C12        -3.1518    3.4501   -2.2569 C.ar      1 <0>        -0.0969
     15 C13        -4.1231    3.0331   -3.1473 C.ar      1 <0>        -0.0937
     16 C14        -5.4187    2.8241   -2.7096 C.ar      1 <0>        -0.0266
     17 C15        -5.7402    3.0276   -1.3785 C.ar      1 <0>        -0.0278
     18 C16        -4.7654    3.4396   -0.4875 C.ar      1 <0>        -0.0882
     19 Cl1        -7.3654    2.7653   -0.8276 Cl        1 <0>        -0.0316
     20 Cl2        -6.6407    2.3066   -3.8289 Cl        1 <0>        -0.0322
     21 H3          2.4345    6.8903   -1.0467 H         1 <0>         0.1277
     22 H4          1.6393    7.0320    0.5394 H         1 <0>         0.1255
     23 H5          2.3153    5.4697    0.0192 H         1 <0>         0.1212
     24 H6         -2.3085    6.2758    0.1315 H         1 <0>         0.1156
     25 H7         -1.9044    5.5849   -1.4737 H         1 <0>         0.1010
     26 H8          2.0813    3.7175    0.0016 H         1 <0>         0.1254
     27 H9          2.1175    1.2576   -0.0114 H         1 <0>         0.1387
     28 H10         0.0021   -0.0041    0.0020 H         1 <0>         0.1393
     29 H11        -2.1450    1.1970    0.0187 H         1 <0>         0.1333
     30 H12        -2.1415    3.6177   -2.5998 H         1 <0>         0.1313
     31 H13        -3.8717    2.8748   -4.1856 H         1 <0>         0.1467
     32 H14        -5.0155    3.5989    0.5510 H         1 <0>         0.1461
     33 N1          0.5214    6.0264   -0.9384 N.4       1 <0>        -0.5172
     34 H15         0.6905    5.4127   -1.7440 H         1 <0>         0.4347
     35 H16         0.0537    6.8843   -1.2539 H         1 <0>         0.4357
@<TRIPOS>BOND
     1    1   21 1
     2    1   22 1
     3    1   23 1
     4    1   33 1
     5    2    3 1
     6    2    8 1
     7    2    4 1
     8    2   33 1
     9    4    5 1
    10    4   24 1
    11    4   25 1
    12    5    6 1
    13    5    7 1
    14    5   13 1
    15    7   12 ar
    16    7    8 ar
    17    8    9 ar
    18    9   10 ar
    19    9   26 1
    20   10   11 ar
    21   10   27 1
    22   11   12 ar
    23   11   28 1
    24   12   29 1
    25   13   18 ar
    26   13   14 ar
    27   14   15 ar
    28   14   30 1
    29   15   16 ar
    30   15   31 1
    31   16   17 ar
    32   16   20 1
    33   17   18 ar
    34   17   19 1
    35   18   32 1
    36   33   34 1
    37   33   35 1
@<TRIPOS>MOLECULE
ZINC03963295
   67    70     0     0     0
SMALL
USER_CHARGES

@<TRIPOS>ATOM
      1 C1         -8.0158   -3.3220    2.6106 C.3       1 <0>        -0.1305
      2 C2         -7.7697   -4.2041    1.4137 C.ar      1 <0>        -0.0625
      3 C3         -8.7487   -5.0735    0.9861 C.ar      1 <0>        -0.0622
      4 C4         -8.5205   -5.8906   -0.1218 C.ar      1 <0>        -0.1504
      5 C5         -7.3001   -5.8266   -0.7964 C.ar      1 <0>        -0.0582
      6 C6         -6.3239   -4.9532   -0.3720 C.ar      1 <0>        -0.0969
      7 C7         -6.5502   -4.1404    0.7394 C.ar      1 <0>         0.0165
      8 C8         -5.4970   -3.2047    1.1997 C.ar      1 <0>        -0.0455
      9 C9         -4.1946   -3.6643    1.3987 C.ar      1 <0>        -0.0992
     10 C10        -3.2155   -2.7959    1.8263 C.ar      1 <0>        -0.0510
     11 C11        -3.5264   -1.4543    2.0611 C.ar      1 <0>        -0.1217
     12 C12        -4.8322   -0.9964    1.8672 C.ar      1 <0>        -0.0847
     13 C13        -5.8086   -1.8650    1.4344 C.ar      1 <0>        -0.1017
     14 C14        -2.4768   -0.5218    2.5199 C.2       1 <0>         0.5577
     15 O1         -1.3418   -0.9217    2.6932 O.2       1 <0>        -0.5040
     16 N1         -2.7771    0.7725    2.7463 N.am      1 <0>        -0.6689
     17 C15        -1.7623    1.6798    3.0736 C.ar      1 <0>         0.1201
     18 C16        -0.4919    1.5247    2.5343 C.ar      1 <0>        -0.0632
     19 C17         0.5117    2.4190    2.8558 C.ar      1 <0>        -0.1799
     20 C18         0.2532    3.4729    3.7166 C.ar      1 <0>         0.1571
     21 C19        -1.0198    3.6320    4.2598 C.ar      1 <0>         0.0460
     22 C20        -2.0262    2.7345    3.9367 C.ar      1 <0>        -0.1320
     23 N2         -1.2829    4.6966    5.1293 N.pl3     1 <0>        -0.4797
     24 C21        -1.6355    4.2072    6.4693 C.3       1 <0>         0.0297
     25 C22        -1.8372    5.3991    7.4080 C.3       1 <0>         0.0027
     26 C23        -2.5420    6.7570    5.5324 C.3       1 <0>         0.0027
     27 C24        -2.3404    5.5651    4.5937 C.3       1 <0>         0.0292
     28 C25        -3.1707    7.3852    7.7852 C.3       1 <0>        -0.0411
     29 O2          1.2423    4.3528    4.0313 O.3       1 <0>        -0.2972
     30 C26         2.5227    4.1292    3.4377 C.3       1 <0>         0.0191
     31 C27        -9.5725   -6.8247   -0.5819 C.cat     1 <0>         0.5990
     32 N3         -9.3470   -7.6316   -1.6760 N.pl3     1 <0>        -0.7786
     33 H1         -8.4540   -2.3792    2.2830 H         1 <0>         0.0854
     34 H2         -8.7001   -3.8220    3.2959 H         1 <0>         0.0788
     35 H3         -7.0713   -3.1267    3.1184 H         1 <0>         0.0824
     36 H4         -9.6929   -5.1225    1.5081 H         1 <0>         0.1390
     37 H5         -7.1232   -6.4590   -1.6540 H         1 <0>         0.1419
     38 H6         -5.3813   -4.9005   -0.8966 H         1 <0>         0.1513
     39 H7         -3.9543   -4.7013    1.2168 H         1 <0>         0.1393
     40 H8         -2.2077   -3.1519    1.9805 H         1 <0>         0.1474
     41 H9         -5.0744    0.0396    2.0527 H         1 <0>         0.1313
     42 H10        -6.8171   -1.5104    1.2809 H         1 <0>         0.1370
     43 H11        -3.6964    1.0754    2.6824 H         1 <0>         0.4095
     44 H12        -0.2878    0.7038    1.8628 H         1 <0>         0.1442
     45 H13         1.4987    2.2961    2.4350 H         1 <0>         0.1442
     46 H14        -3.0152    2.8583    4.3526 H         1 <0>         0.1279
     47 H15        -2.5572    3.6280    6.4140 H         1 <0>         0.0607
     48 H16        -0.8317    3.5768    6.8495 H         1 <0>         0.1243
     49 H17        -0.9075    5.9630    7.4847 H         1 <0>         0.1417
     50 H18        -2.1272    5.0396    8.3953 H         1 <0>         0.1357
     51 H19        -1.6203    7.3364    5.5877 H         1 <0>         0.1416
     52 H20        -3.3456    7.3877    5.1521 H         1 <0>         0.1357
     53 H21        -2.0503    5.9248    3.6065 H         1 <0>         0.1243
     54 H22        -3.2699    5.0012    4.5167 H         1 <0>         0.0605
     55 H23        -4.0024    7.9737    7.3980 H         1 <0>         0.1226
     56 H24        -3.4290    6.9950    8.7697 H         1 <0>         0.1228
     57 H25        -2.2854    8.0160    7.8654 H         1 <0>         0.1254
     58 H26         2.8959    3.1498    3.7370 H         1 <0>         0.0601
     59 H27         2.4315    4.1670    2.3522 H         1 <0>         0.0599
     60 H28         3.2174    4.9002    3.7710 H         1 <0>         0.1073
     61 H29       -11.4629   -7.4638   -0.1776 H         1 <0>         0.4459
     62 H30        -8.4989   -7.5874   -2.1448 H         1 <0>         0.4433
     63 H31       -10.0365   -8.2437   -1.9776 H         1 <0>         0.4329
     64 N4         -2.9176    6.2520    6.8699 N.4       1 <0>        -0.3990
     65 H32        -3.7745    5.6924    6.7869 H         1 <0>         0.4245
     66 N5        -10.7075   -6.8372    0.1005 N.pl3     1 <0>        -0.7592
     67 H33       -10.8270   -6.2163    0.9094 H         1 <0>         0.4593
@<TRIPOS>BOND
     1    1    2 1
     2    1   33 1
     3    1   34 1
     4    1   35 1
     5    2    7 ar
     6    2    3 ar
     7    3    4 ar
     8    3   36 1
     9    4    5 ar
    10    4   31 1
    11    5    6 ar
    12    5   37 1
    13    6    7 ar
    14    6   38 1
    15    7    8 1
    16    8   13 ar
    17    8    9 ar
    18    9   10 ar
    19    9   39 1
    20   10   11 ar
    21   10   40 1
    22   11   12 ar
    23   11   14 1
    24   12   13 ar
    25   12   41 1
    26   13   42 1
    27   14   15 2
    28   14   16 am
    29   16   17 1
    30   16   43 1
    31   17   22 ar
    32   17   18 ar
    33   18   19 ar
    34   18   44 1
    35   19   20 ar
    36   19   45 1
    37   20   21 ar
    38   20   29 1
    39   21   22 ar
    40   21   23 1
    41   22   46 1
    42   23   27 1
    43   23   24 1
    44   24   25 1
    45   24   47 1
    46   24   48 1
    47   25   49 1
    48   25   50 1
    49   25   64 1
    50   26   27 1
    51   26   51 1
    52   26   52 1
    53   26   64 1
    54   27   53 1
    55   27   54 1
    56   28   55 1
    57   28   56 1
    58   28   57 1
    59   28   64 1
    60   29   30 1
    61   30   58 1
    62   30   59 1
    63   30   60 1
    64   31   32 1
    65   31   66 2
    66   32   62 1
    67   32   63 1
    68   61   66 1
    69   64   65 1
    70   66   67 1
@<TRIPOS>MOLECULE
ZINC04521076
   34    36     0     0     0
SMALL
USER_CHARGES
4-benzhydrylpyridine
@<TRIPOS>ATOM
      1 C1          0.5964    4.2079   -0.3894 C.ar      1 <0>        -0.1182
      2 C2          1.6831    3.3535   -0.3906 C.ar      1 <0>        -0.1177
      3 C3          1.4908    1.9905   -0.2637 C.ar      1 <0>        -0.1123
      4 C4          0.2117    1.4819   -0.1360 C.ar      1 <0>        -0.0758
      5 C5         -0.8753    2.3358   -0.1405 C.ar      1 <0>        -0.1059
      6 C6         -0.6827    3.6993   -0.2622 C.ar      1 <0>        -0.1183
      7 C7          0.0021   -0.0041    0.0020 C.3       1 <0>         0.0304
      8 C8         -0.8210   -0.2831    1.2332 C.ar      1 <0>        -0.0788
      9 C9         -0.7887    0.5955    2.2999 C.ar      1 <0>        -0.1063
     10 C10        -1.5474    0.3421    3.4273 C.ar      1 <0>        -0.1186
     11 C11        -2.3307   -0.7951    3.4920 C.ar      1 <0>        -0.1185
     12 C12        -2.3587   -1.6766    2.4275 C.ar      1 <0>        -0.1182
     13 C13        -1.6040   -1.4204    1.2980 C.ar      1 <0>        -0.1091
     14 C14        -0.7204   -0.5245   -1.2138 C.ar      1 <0>        -0.0257
     15 C15        -2.0402   -0.1768   -1.4580 C.ar      1 <0>        -0.1602
     16 C16        -2.6690   -0.6700   -2.5856 C.ar      1 <0>         0.1000
     17 N1         -2.0313   -1.4694   -3.4183 N.ar      1 <0>        -0.4856
     18 C17        -0.7776   -1.8247   -3.2153 C.ar      1 <0>         0.1014
     19 C18        -0.0829   -1.3669   -2.1118 C.ar      1 <0>        -0.1688
     20 H1          0.7467    5.2729   -0.4883 H         1 <0>         0.1226
     21 H2          2.6823    3.7509   -0.4904 H         1 <0>         0.1237
     22 H3          2.3398    1.3230   -0.2646 H         1 <0>         0.1228
     23 H4         -1.8749    1.9380   -0.0452 H         1 <0>         0.1217
     24 H5         -1.5317    4.3668   -0.2616 H         1 <0>         0.1231
     25 H6          0.9683   -0.5007    0.0907 H         1 <0>         0.1019
     26 H7         -0.1735    1.4818    2.2511 H         1 <0>         0.1237
     27 H8         -1.5253    1.0306    4.2591 H         1 <0>         0.1226
     28 H9         -2.9206   -0.9950    4.3743 H         1 <0>         0.1221
     29 H10        -2.9704   -2.5652    2.4781 H         1 <0>         0.1224
     30 H11        -1.6258   -2.1091    0.4664 H         1 <0>         0.1190
     31 H12        -2.5692    0.4738   -0.7774 H         1 <0>         0.1334
     32 H13        -3.6958   -0.4013   -2.7848 H         1 <0>         0.1555
     33 H14        -0.2882   -2.4812   -3.9195 H         1 <0>         0.1566
     34 H15         0.9434   -1.6620   -1.9506 H         1 <0>         0.1352
@<TRIPOS>BOND
     1    1    6 ar
     2    1    2 ar
     3    1   20 1
     4    2    3 ar
     5    2   21 1
     6    3    4 ar
     7    3   22 1
     8    4    5 ar
     9    4    7 1
    10    5    6 ar
    11    5   23 1
    12    6   24 1
    13    7    8 1
    14    7   14 1
    15    7   25 1
    16    8   13 ar
    17    8    9 ar
    18    9   10 ar
    19    9   26 1
    20   10   11 ar
    21   10   27 1
    22   11   12 ar
    23   11   28 1
    24   12   13 ar
    25   12   29 1
    26   13   30 1
    27   14   19 ar
    28   14   15 ar
    29   15   16 ar
    30   15   31 1
    31   16   17 ar
    32   16   32 1
    33   17   18 ar
    34   18   19 ar
    35   18   33 1
    36   19   34 1
@<TRIPOS>MOLECULE
ZINC27652137
   37    37     0     0     0
SMALL
USER_CHARGES
(1S,2R)-2-(tert-butylamino)-1-phenyl-propan-1-ol
@<TRIPOS>ATOM
      1 C1         -1.9245   -0.3951    1.1401 C.3       1 <0>        -0.1867
      2 C2         -0.4270   -0.5349    1.4208 C.3       1 <0>         0.0442
      3 H1         -0.1818   -0.1362    2.4162 H         1 <0>         0.1446
      4 C3          0.3656    0.1998    0.3378 C.3       1 <0>         0.1499
      5 H2          1.4458    0.0115    0.4260 H         1 <0>         0.0799
      6 C4          0.0805    1.6772    0.4217 C.ar      1 <0>        -0.1477
      7 C5         -1.0768    2.1904   -0.1334 C.ar      1 <0>        -0.0965
      8 C6         -1.3405    3.5450   -0.0526 C.ar      1 <0>        -0.1186
      9 C7         -0.4424    4.3877    0.5753 C.ar      1 <0>        -0.0988
     10 C8          0.7175    3.8752    1.1257 C.ar      1 <0>        -0.1164
     11 C9          0.9790    2.5201    1.0487 C.ar      1 <0>        -0.1054
     12 O1         -0.0209   -0.2876   -0.9487 O.3       1 <0>        -0.6012
     13 N1         -0.0589   -1.9570    1.4173 N.4       1 <0>        -0.5309
     14 C10         0.1744   -2.4437    2.7836 C.3       1 <0>         0.0592
     15 C11        -1.0648   -2.1744    3.6395 C.3       1 <0>        -0.1811
     16 C12         0.4530   -3.9477    2.7486 C.3       1 <0>        -0.1767
     17 C13         1.3781   -1.7159    3.3857 C.3       1 <0>        -0.1803
     18 H3         -2.4944   -0.9233    1.9187 H         1 <0>         0.0807
     19 H4         -2.1555   -0.8313    0.1571 H         1 <0>         0.0933
     20 H5         -2.2002    0.6698    1.1427 H         1 <0>         0.1072
     21 H6         -1.7767    1.5325   -0.6272 H         1 <0>         0.1316
     22 H7         -2.2469    3.9453   -0.4823 H         1 <0>         0.1300
     23 H8         -0.6471    5.4463    0.6360 H         1 <0>         0.1303
     24 H9          1.4191    4.5336    1.6162 H         1 <0>         0.1301
     25 H10         1.8852    2.1197    1.4788 H         1 <0>         0.1233
     26 H11         0.4449    0.1249   -1.8558 H         1 <0>         0.4415
     27 H12        -0.8723   -2.5452    0.9674 H         1 <0>         0.4482
     28 H13        -0.8901   -2.5389    4.6626 H         1 <0>         0.1035
     29 H14        -1.9302   -2.6977    3.2066 H         1 <0>         0.0824
     30 H15        -1.2651   -1.0931    3.6647 H         1 <0>         0.0807
     31 H16         0.6277   -4.3121    3.7717 H         1 <0>         0.1049
     32 H17         1.3440   -4.1413    2.1332 H         1 <0>         0.0815
     33 H18        -0.4124   -4.4709    2.3157 H         1 <0>         0.0819
     34 H19         1.5528   -2.0804    4.4088 H         1 <0>         0.1053
     35 H20         1.1778   -0.6346    3.4108 H         1 <0>         0.0787
     36 H21         2.2691   -1.9096    2.7703 H         1 <0>         0.0819
     37 H22         0.8616   -2.0961    0.8313 H         1 <0>         0.4457
@<TRIPOS>BOND
     1    1    2 1
     2    1   18 1
     3    1   19 1
     4    1   20 1
     5    2    3 1
     6    2    4 1
     7    2   13 1
     8    4    5 1
     9    4    6 1
    10    4   12 1
    11    6   11 ar
    12    6    7 ar
    13    7    8 ar
    14    7   21 1
    15    8    9 ar
    16    8   22 1
    17    9   10 ar
    18    9   23 1
    19   10   11 ar
    20   10   24 1
    21   11   25 1
    22   12   26 1
    23   13   14 1
    24   13   27 1
    25   13   37 1
    26   14   15 1
    27   14   16 1
    28   14   17 1
    29   15   28 1
    30   15   29 1
    31   15   30 1
    32   16   31 1
    33   16   32 1
    34   16   33 1
    35   17   34 1
    36   17   35 1
    37   17   36 1
@<TRIPOS>MOLECULE
ZINC27652141
   37    37     0     0     0
SMALL
USER_CHARGES
(1S,2S)-2-(tert-butylamino)-1-phenyl-propan-1-ol
@<TRIPOS>ATOM
      1 C1          1.3195    1.6320   -2.2621 C.3       1 <0>        -0.1854
      2 C2          2.3442    1.0290   -1.2991 C.3       1 <0>         0.0450
      3 H1          3.3635    1.3327   -1.5799 H         1 <0>         0.1453
      4 C3          2.0254    1.4746    0.1294 C.3       1 <0>         0.1431
      5 H2          2.0119    2.5708    0.2199 H         1 <0>         0.1044
      6 C4          3.0346    0.8807    1.0780 C.ar      1 <0>        -0.1550
      7 C5          2.9001   -0.4291    1.4990 C.ar      1 <0>        -0.1421
      8 C6          3.8283   -0.9752    2.3656 C.ar      1 <0>        -0.1029
      9 C7          4.8860   -0.2088    2.8184 C.ar      1 <0>        -0.1011
     10 C8          5.0175    1.1026    2.4014 C.ar      1 <0>        -0.1001
     11 C9          4.0917    1.6474    1.5314 C.ar      1 <0>        -0.0995
     12 O1          0.7157    1.0282    0.4866 O.3       1 <0>        -0.6005
     13 N1          2.2878   -0.4367   -1.3789 N.4       1 <0>        -0.5370
     14 C10         3.3474   -0.9575   -2.2529 C.3       1 <0>         0.0590
     15 C11         4.7142   -0.5813   -1.6772 C.3       1 <0>        -0.1781
     16 C12         3.2330   -2.4807   -2.3412 C.3       1 <0>        -0.1774
     17 C13         3.1988   -0.3530   -3.6505 C.3       1 <0>        -0.1816
     18 H3          1.5487    1.3116   -3.2891 H         1 <0>         0.0860
     19 H4          1.3617    2.7296   -2.2023 H         1 <0>         0.1026
     20 H5          0.3114    1.2883   -1.9871 H         1 <0>         0.0924
     21 H6          2.0718   -1.0267    1.1483 H         1 <0>         0.1259
     22 H7          3.7258   -1.9999    2.6911 H         1 <0>         0.1340
     23 H8          5.6097   -0.6347    3.4975 H         1 <0>         0.1347
     24 H9          5.8438    1.7013    2.7551 H         1 <0>         0.1351
     25 H10         4.1945    2.6719    1.2056 H         1 <0>         0.1316
     26 H11         0.3098    1.2559    1.4833 H         1 <0>         0.4422
     27 H12         2.4180   -0.8639   -0.3736 H         1 <0>         0.4363
     28 H13         5.5077   -0.9713   -2.3317 H         1 <0>         0.1046
     29 H14         4.8210   -1.0159   -0.6724 H         1 <0>         0.0799
     30 H15         4.7965    0.5138   -1.6137 H         1 <0>         0.0788
     31 H16         4.0265   -2.8706   -2.9957 H         1 <0>         0.1060
     32 H17         2.2504   -2.7512   -2.7550 H         1 <0>         0.0825
     33 H18         3.3399   -2.9153   -1.3364 H         1 <0>         0.0789
     34 H19         3.9923   -0.7430   -4.3049 H         1 <0>         0.1029
     35 H20         3.2811    0.7421   -3.5870 H         1 <0>         0.0826
     36 H21         2.2162   -0.6235   -4.0644 H         1 <0>         0.0827
     37 H22         1.3128   -0.7446   -1.7846 H         1 <0>         0.4442
@<TRIPOS>BOND
     1    1    2 1
     2    1   18 1
     3    1   19 1
     4    1   20 1
     5    2    3 1
     6    2    4 1
     7    2   13 1
     8    4    5 1
     9    4    6 1
    10    4   12 1
    11    6   11 ar
    12    6    7 ar
    13    7    8 ar
    14    7   21 1
    15    8    9 ar
    16    8   22 1
    17    9   10 ar
    18    9   23 1
    19   10   11 ar
    20   10   24 1
    21   11   25 1
    22   12   26 1
    23   13   14 1
    24   13   27 1
    25   13   37 1
    26   14   15 1
    27   14   16 1
    28   14   17 1
    29   15   28 1
    30   15   29 1
    31   15   30 1
    32   16   31 1
    33   16   32 1
    34   16   33 1
    35   17   34 1
    36   17   35 1
    37   17   36 1
@<TRIPOS>MOLECULE
ZINC27652144
   37    37     0     0     0
SMALL
USER_CHARGES
(1R,2R)-2-(tert-butylamino)-1-phenyl-propan-1-ol
@<TRIPOS>ATOM
      1 C1          1.9348    1.3476   -2.0583 C.3       1 <0>        -0.1809
      2 C2          1.8739   -0.0375   -1.4115 C.3       1 <0>         0.0458
      3 H1          2.3181   -0.0136   -0.4055 H         1 <0>         0.1444
      4 C3          2.6059   -1.0471   -2.2980 C.3       1 <0>         0.1429
      5 H2          3.6724   -0.7988   -2.4022 H         1 <0>         0.1045
      6 C4          2.4414   -2.4310   -1.7247 C.ar      1 <0>        -0.1568
      7 C5          1.3157   -3.1747   -2.0259 C.ar      1 <0>        -0.1442
      8 C6          1.1670   -4.4459   -1.5036 C.ar      1 <0>        -0.1026
      9 C7          2.1393   -4.9697   -0.6723 C.ar      1 <0>        -0.1014
     10 C8          3.2627   -4.2242   -0.3672 C.ar      1 <0>        -0.1001
     11 C9          3.4135   -2.9547   -0.8930 C.ar      1 <0>        -0.1007
     12 O1          2.0566   -1.0094   -3.6166 O.3       1 <0>        -0.5988
     13 N1          0.4709   -0.4458   -1.2599 N.4       1 <0>        -0.5372
     14 C10         0.0429   -0.3486    0.1420 C.3       1 <0>         0.0593
     15 C11         0.2815    1.0745    0.6506 C.3       1 <0>        -0.1800
     16 C12         0.8477   -1.3351    0.9906 C.3       1 <0>        -0.1777
     17 C13        -1.4463   -0.6840    0.2450 C.3       1 <0>        -0.1772
     18 H3          1.4085    2.0734   -1.4209 H         1 <0>         0.0826
     19 H4          1.4543    1.3119   -3.0472 H         1 <0>         0.0935
     20 H5          2.9853    1.6534   -2.1719 H         1 <0>         0.1030
     21 H6          0.5541   -2.7638   -2.6721 H         1 <0>         0.1299
     22 H7          0.2894   -5.0285   -1.7422 H         1 <0>         0.1341
     23 H8          2.0215   -5.9615   -0.2615 H         1 <0>         0.1345
     24 H9          4.0224   -4.6335    0.2823 H         1 <0>         0.1348
     25 H10         4.2911   -2.3721   -0.6544 H         1 <0>         0.1311
     26 H11         2.4581   -1.6705   -4.3988 H         1 <0>         0.4414
     27 H12        -0.1693    0.2081   -1.8703 H         1 <0>         0.4435
     28 H13        -0.0390    1.1472    1.7004 H         1 <0>         0.1032
     29 H14        -0.2972    1.7837    0.0405 H         1 <0>         0.0825
     30 H15         1.3522    1.3156    0.5765 H         1 <0>         0.0806
     31 H16         0.5272   -1.2623    2.0403 H         1 <0>         0.1035
     32 H17         1.9184   -1.0940    0.9166 H         1 <0>         0.0782
     33 H18         0.6761   -2.3583    0.6250 H         1 <0>         0.0798
     34 H19        -1.7668   -0.6112    1.2948 H         1 <0>         0.1059
     35 H20        -1.6178   -1.7072   -0.1207 H         1 <0>         0.0790
     36 H21        -2.0249    0.0253   -0.3651 H         1 <0>         0.0824
     37 H22         0.3542   -1.4877   -1.5929 H         1 <0>         0.4374
@<TRIPOS>BOND
     1    1    2 1
     2    1   18 1
     3    1   19 1
     4    1   20 1
     5    2    3 1
     6    2    4 1
     7    2   13 1
     8    4    5 1
     9    4    6 1
    10    4   12 1
    11    6   11 ar
    12    6    7 ar
    13    7    8 ar
    14    7   21 1
    15    8    9 ar
    16    8   22 1
    17    9   10 ar
    18    9   23 1
    19   10   11 ar
    20   10   24 1
    21   11   25 1
    22   12   26 1
    23   13   14 1
    24   13   27 1
    25   13   37 1
    26   14   15 1
    27   14   16 1
    28   14   17 1
    29   15   28 1
    30   15   29 1
    31   15   30 1
    32   16   31 1
    33   16   32 1
    34   16   33 1
    35   17   34 1
    36   17   35 1
    37   17   36 1
@<TRIPOS>MOLECULE
ZINC27652148
   37    37     0     0     0
SMALL
USER_CHARGES
(1R,2S)-2-(tert-butylamino)-1-phenyl-propan-1-ol
@<TRIPOS>ATOM
      1 C1         -0.1987   -0.2605   -1.9283 C.3       1 <0>        -0.1832
      2 C2         -0.5758    0.8978   -1.0025 C.3       1 <0>         0.0436
      3 H1         -0.3259    1.8621   -1.4690 H         1 <0>         0.1447
      4 C3         -2.0700    0.8278   -0.6808 C.3       1 <0>         0.1496
      5 H2         -2.3554    1.5612    0.0878 H         1 <0>         0.0802
      6 C4         -2.8660    1.0494   -1.9411 C.ar      1 <0>        -0.1470
      7 C5         -3.1285   -0.0110   -2.7882 C.ar      1 <0>        -0.0962
      8 C6         -3.8624    0.1914   -3.9420 C.ar      1 <0>        -0.1179
      9 C7         -4.3257    1.4560   -4.2536 C.ar      1 <0>        -0.0993
     10 C8         -4.0592    2.5173   -3.4089 C.ar      1 <0>        -0.1161
     11 C9         -3.3290    2.3141   -2.2529 C.ar      1 <0>        -0.1067
     12 O1         -2.3813   -0.4580   -0.1407 O.3       1 <0>        -0.6014
     13 N1          0.1981    0.8015    0.2424 N.4       1 <0>        -0.5314
     14 C10         1.1436    1.9194    0.3623 C.3       1 <0>         0.0587
     15 C11         0.3686    3.2358    0.4480 C.3       1 <0>        -0.1805
     16 C12         1.9868    1.7408    1.6264 C.3       1 <0>        -0.1767
     17 C13         2.0600    1.9459   -0.8626 C.3       1 <0>        -0.1806
     18 H3          0.8755   -0.2102   -2.1596 H         1 <0>         0.0795
     19 H4         -0.7783   -0.1884   -2.8605 H         1 <0>         0.1061
     20 H5         -0.4223   -1.2155   -1.4304 H         1 <0>         0.0934
     21 H6         -2.7630   -0.9982   -2.5469 H         1 <0>         0.1316
     22 H7         -4.0709   -0.6378   -4.6018 H         1 <0>         0.1301
     23 H8         -4.8962    1.6147   -5.1567 H         1 <0>         0.1302
     24 H9         -4.4212    3.5052   -3.6523 H         1 <0>         0.1299
     25 H10        -3.1204    3.1433   -1.5931 H         1 <0>         0.1227
     26 H11        -3.4145   -0.6960    0.1523 H         1 <0>         0.4418
     27 H12        -0.4869    0.8251    1.1027 H         1 <0>         0.4470
     28 H13         1.0766    4.0729    0.5378 H         1 <0>         0.1053
     29 H14        -0.2903    3.2167    1.3287 H         1 <0>         0.0817
     30 H15        -0.2377    3.3642   -0.4608 H         1 <0>         0.0784
     31 H16         2.6948    2.5779    1.7162 H         1 <0>         0.1049
     32 H17         2.5439    0.7943    1.5648 H         1 <0>         0.0820
     33 H18         1.3279    1.7218    2.5070 H         1 <0>         0.0815
     34 H19         2.7680    2.7830   -0.7728 H         1 <0>         0.1040
     35 H20         1.4537    2.0743   -1.7714 H         1 <0>         0.0799
     36 H21         2.6171    0.9994   -0.9242 H         1 <0>         0.0824
     37 H22         0.7642   -0.1416    0.2502 H         1 <0>         0.4477
@<TRIPOS>BOND
     1    1    2 1
     2    1   18 1
     3    1   19 1
     4    1   20 1
     5    2    3 1
     6    2    4 1
     7    2   13 1
     8    4    5 1
     9    4    6 1
    10    4   12 1
    11    6   11 ar
    12    6    7 ar
    13    7    8 ar
    14    7   21 1
    15    8    9 ar
    16    8   22 1
    17    9   10 ar
    18    9   23 1
    19   10   11 ar
    20   10   24 1
    21   11   25 1
    22   12   26 1
    23   13   14 1
    24   13   27 1
    25   13   37 1
    26   14   15 1
    27   14   16 1
    28   14   17 1
    29   15   28 1
    30   15   29 1
    31   15   30 1
    32   16   31 1
    33   16   32 1
    34   16   33 1
    35   17   34 1
    36   17   35 1
    37   17   36 1
@<TRIPOS>MOLECULE
ZINC00598509
   69    73     0     0     0
SMALL
USER_CHARGES

@<TRIPOS>ATOM
      1 C1         -0.0258    1.5270    0.0085 C.3       1 <0>        -0.1204
      2 C2         -0.0148    0.0201   -0.0060 C.ar      1 <0>        -0.0705
      3 C3         -0.0163   -0.6573   -1.2055 C.ar      1 <0>        -0.0754
      4 C4         -0.0066   -2.0515   -1.2190 C.ar      1 <0>        -0.0242
      5 C5          0.0052   -2.7607   -0.0182 C.ar      1 <0>        -0.0676
      6 C6          0.0067   -2.0841    1.1813 C.ar      1 <0>        -0.1023
      7 C7          0.0028   -0.6889    1.1951 C.ar      1 <0>        -0.0393
      8 C8          0.0106    0.0396    2.4858 C.ar      1 <0>        -0.0090
      9 C9          0.9274    1.0696    2.6995 C.ar      1 <0>        -0.1104
     10 C10         0.9355    1.7469    3.8979 C.ar      1 <0>        -0.0527
     11 C11         0.0249    1.4029    4.9003 C.ar      1 <0>        -0.1436
     12 C12        -0.8930    0.3716    4.6852 C.ar      1 <0>        -0.0810
     13 C13        -0.9027   -0.3012    3.4843 C.ar      1 <0>        -0.1096
     14 C14         0.0330    2.1285    6.1867 C.2       1 <0>         0.5685
     15 O1          0.8322    3.0256    6.3736 O.2       1 <0>        -0.5263
     16 N1         -0.8455    1.7963    7.1533 N.am      1 <0>        -0.6684
     17 C15        -0.7752    2.4168    8.4065 C.ar      1 <0>         0.1156
     18 C16        -1.0739    1.6964    9.5555 C.ar      1 <0>        -0.0912
     19 C17        -1.0053    2.3066   10.7939 C.ar      1 <0>        -0.1823
     20 C18        -0.6379    3.6383   10.8923 C.ar      1 <0>         0.1184
     21 C19        -0.3370    4.3645    9.7420 C.ar      1 <0>         0.1285
     22 C20        -0.4014    3.7504    8.5005 C.ar      1 <0>        -0.0823
     23 N2          0.0344    5.7103    9.8398 N.pl3     1 <0>        -0.6622
     24 C21         1.4462    6.0965    9.9877 C.3       1 <0>         0.1226
     25 C22         1.7685    7.1688    8.9417 C.3       1 <0>        -0.0241
     26 N3          0.8189    8.2810    9.0738 N.4       1 <0>        -0.3816
     27 C23        -0.5392    7.8189    8.7603 C.3       1 <0>        -0.0238
     28 C24        -0.9753    6.7790    9.7916 C.3       1 <0>         0.1217
     29 C25         1.1947    9.3562    8.1460 C.3       1 <0>        -0.0465
     30 O2         -0.5714    4.2375   12.1123 O.3       1 <0>        -0.3095
     31 C26        -0.8936    3.4332   13.2486 C.3       1 <0>         0.0226
     32 C27        -0.0092   -2.7806   -2.5110 C.2       1 <0>         0.2941
     33 N4         -0.0061   -4.1179   -2.6574 N.2       1 <0>        -0.5422
     34 C28        -0.0098   -4.4281   -3.9223 C.2       1 <0>         0.2990
     35 O3         -0.0155   -3.2957   -4.6373 O.3       1 <0>        -0.1011
     36 N5         -0.0207   -2.2295   -3.6998 N.2       1 <0>        -0.3348
     37 C29        -0.0072   -5.8256   -4.4862 C.3       1 <0>        -0.0763
     38 H1          0.9991    1.8979    0.0015 H         1 <0>         0.0767
     39 H2         -0.5515    1.8949   -0.8727 H         1 <0>         0.0725
     40 H3         -0.5331    1.8780    0.9071 H         1 <0>         0.0725
     41 H4         -0.0254   -0.1084   -2.1356 H         1 <0>         0.1368
     42 H5          0.0127   -3.8406   -0.0290 H         1 <0>         0.1439
     43 H6          0.0151   -2.6334    2.1112 H         1 <0>         0.1367
     44 H7          1.6311    1.3354    1.9245 H         1 <0>         0.1371
     45 H8          1.6456    2.5436    4.0634 H         1 <0>         0.1389
     46 H9         -1.5969    0.1047    5.4596 H         1 <0>         0.1288
     47 H10        -1.6146   -1.0958    3.3164 H         1 <0>         0.1367
     48 H11        -1.5264    1.1274    6.9808 H         1 <0>         0.4139
     49 H12        -1.3606    0.6578    9.4814 H         1 <0>         0.1355
     50 H13        -1.2388    1.7442   11.6858 H         1 <0>         0.1396
     51 H14        -0.1650    4.3099    7.6075 H         1 <0>         0.1464
     52 H15         1.6134    6.4978   10.9872 H         1 <0>         0.0784
     53 H16         2.0827    5.2261    9.8280 H         1 <0>         0.1141
     54 H17         2.7826    7.5363    9.0985 H         1 <0>         0.1357
     55 H18         1.6879    6.7387    7.9435 H         1 <0>         0.1311
     56 H19        -1.2255    8.6654    8.7834 H         1 <0>         0.1359
     57 H20        -0.5499    7.3691    7.7675 H         1 <0>         0.1289
     58 H21        -1.9389    6.3598    9.5024 H         1 <0>         0.1131
     59 H22        -1.0567    7.2504   10.7710 H         1 <0>         0.0785
     60 H23         1.1728    8.9783    7.1239 H         1 <0>         0.1203
     61 H24         0.4905   10.1825    8.2431 H         1 <0>         0.1231
     62 H25         2.1997    9.7056    8.3828 H         1 <0>         0.1234
     63 H26        -1.9166    3.0682   13.1570 H         1 <0>         0.0587
     64 H27        -0.2091    2.5866   13.3004 H         1 <0>         0.0586
     65 H28        -0.8011    4.0313   14.1551 H         1 <0>         0.1033
     66 H29        -1.0342   -6.1660   -4.6183 H         1 <0>         0.1108
     67 H30         0.5031   -5.8278   -5.4494 H         1 <0>         0.1032
     68 H31         0.5115   -6.4939   -3.7988 H         1 <0>         0.1112
     69 H32         0.8435    8.6322   10.0194 H         1 <0>         0.4235
@<TRIPOS>BOND
     1    1    2 1
     2    1   38 1
     3    1   39 1
     4    1   40 1
     5    2    7 ar
     6    2    3 ar
     7    3    4 ar
     8    3   41 1
     9    4    5 ar
    10    4   32 1
    11    5    6 ar
    12    5   42 1
    13    6    7 ar
    14    6   43 1
    15    7    8 1
    16    8   13 ar
    17    8    9 ar
    18    9   10 ar
    19    9   44 1
    20   10   11 ar
    21   10   45 1
    22   11   12 ar
    23   11   14 1
    24   12   13 ar
    25   12   46 1
    26   13   47 1
    27   14   15 2
    28   14   16 am
    29   16   17 1
    30   16   48 1
    31   17   22 ar
    32   17   18 ar
    33   18   19 ar
    34   18   49 1
    35   19   20 ar
    36   19   50 1
    37   20   21 ar
    38   20   30 1
    39   21   22 ar
    40   21   23 1
    41   22   51 1
    42   23   28 1
    43   23   24 1
    44   24   25 1
    45   24   52 1
    46   24   53 1
    47   25   26 1
    48   25   54 1
    49   25   55 1
    50   26   27 1
    51   26   29 1
    52   26   69 1
    53   27   28 1
    54   27   56 1
    55   27   57 1
    56   28   58 1
    57   28   59 1
    58   29   60 1
    59   29   61 1
    60   29   62 1
    61   30   31 1
    62   31   63 1
    63   31   64 1
    64   31   65 1
    65   32   36 2
    66   32   33 1
    67   33   34 2
    68   34   35 1
    69   34   37 1
    70   35   36 1
    71   37   66 1
    72   37   67 1
    73   37   68 1
@<TRIPOS>MOLECULE
ZINC00598509
   68    72     0     0     0
SMALL
USER_CHARGES

@<TRIPOS>ATOM
      1 C1         -0.0258    1.5270    0.0085 C.3       1 <0>        -0.1214
      2 C2         -0.0148    0.0201   -0.0060 C.ar      1 <0>        -0.0708
      3 C3         -0.0163   -0.6573   -1.2055 C.ar      1 <0>        -0.0750
      4 C4         -0.0066   -2.0515   -1.2190 C.ar      1 <0>        -0.0302
      5 C5          0.0052   -2.7607   -0.0182 C.ar      1 <0>        -0.0680
      6 C6          0.0067   -2.0841    1.1813 C.ar      1 <0>        -0.1041
      7 C7          0.0028   -0.6889    1.1951 C.ar      1 <0>        -0.0311
      8 C8          0.0106    0.0396    2.4858 C.ar      1 <0>        -0.0198
      9 C9          0.9274    1.0696    2.6995 C.ar      1 <0>        -0.1090
     10 C10         0.9355    1.7469    3.8979 C.ar      1 <0>        -0.0544
     11 C11         0.0249    1.4029    4.9003 C.ar      1 <0>        -0.1327
     12 C12        -0.8930    0.3716    4.6852 C.ar      1 <0>        -0.0832
     13 C13        -0.9027   -0.3012    3.4843 C.ar      1 <0>        -0.1096
     14 C14         0.0330    2.1285    6.1867 C.2       1 <0>         0.5586
     15 O1          0.8322    3.0256    6.3736 O.2       1 <0>        -0.5148
     16 N1         -0.8455    1.7963    7.1533 N.am      1 <0>        -0.6663
     17 C15        -0.7752    2.4168    8.4065 C.ar      1 <0>         0.1085
     18 C16        -1.0739    1.6964    9.5555 C.ar      1 <0>        -0.1051
     19 C17        -1.0053    2.3066   10.7939 C.ar      1 <0>        -0.1878
     20 C18        -0.6379    3.6383   10.8923 C.ar      1 <0>         0.1109
     21 C19        -0.3370    4.3645    9.7420 C.ar      1 <0>         0.1576
     22 C20        -0.4014    3.7504    8.5005 C.ar      1 <0>        -0.0854
     23 N2          0.0344    5.7103    9.8398 N.pl3     1 <0>        -0.6665
     24 C21         1.4463    6.0949    9.9877 C.3       1 <0>         0.1544
     25 C22         1.7758    7.1536    8.9299 C.3       1 <0>         0.0391
     26 N3          0.8161    8.2608    9.0345 N.3       1 <0>        -0.5401
     27 C23        -0.5519    7.8093    8.7473 C.3       1 <0>         0.0391
     28 C24        -0.9762    6.7778    9.7914 C.3       1 <0>         0.1537
     29 C25         1.1986    9.3738    8.1553 C.3       1 <0>         0.0248
     30 O2         -0.5714    4.2375   12.1123 O.3       1 <0>        -0.3021
     31 C26        -0.8936    3.4332   13.2486 C.3       1 <0>         0.0247
     32 C27        -0.0092   -2.7806   -2.5110 C.2       1 <0>         0.2973
     33 N4         -0.0061   -4.1179   -2.6574 N.2       1 <0>        -0.5412
     34 C28        -0.0098   -4.4281   -3.9223 C.2       1 <0>         0.2959
     35 O3         -0.0155   -3.2957   -4.6373 O.3       1 <0>        -0.1032
     36 N5         -0.0207   -2.2295   -3.6998 N.2       1 <0>        -0.3355
     37 C29        -0.0072   -5.8256   -4.4862 C.3       1 <0>        -0.0751
     38 H1          0.9991    1.8979    0.0015 H         1 <0>         0.0772
     39 H2         -0.5515    1.8949   -0.8727 H         1 <0>         0.0715
     40 H3         -0.5331    1.8780    0.9071 H         1 <0>         0.0747
     41 H4         -0.0254   -0.1084   -2.1356 H         1 <0>         0.1357
     42 H5          0.0127   -3.8406   -0.0290 H         1 <0>         0.1424
     43 H6          0.0151   -2.6334    2.1112 H         1 <0>         0.1367
     44 H7          1.6311    1.3354    1.9245 H         1 <0>         0.1356
     45 H8          1.6456    2.5436    4.0634 H         1 <0>         0.1407
     46 H9         -1.5969    0.1047    5.4596 H         1 <0>         0.1292
     47 H10        -1.6146   -1.0958    3.3164 H         1 <0>         0.1344
     48 H11        -1.5264    1.1274    6.9808 H         1 <0>         0.4094
     49 H12        -1.3606    0.6578    9.4814 H         1 <0>         0.1286
     50 H13        -1.2388    1.7442   11.6858 H         1 <0>         0.1335
     51 H14        -0.1650    4.3099    7.6075 H         1 <0>         0.1447
     52 H15         1.6110    6.5079   10.9829 H         1 <0>         0.0585
     53 H16         2.0811    5.2210    9.8412 H         1 <0>         0.0698
     54 H17         2.7853    7.5303    9.0945 H         1 <0>         0.0791
     55 H18         1.7107    6.7084    7.9371 H         1 <0>         0.0368
     56 H19        -1.2306    8.6616    8.7795 H         1 <0>         0.0795
     57 H20        -0.5846    7.3549    7.7570 H         1 <0>         0.0337
     58 H21        -1.9422    6.3551    9.5153 H         1 <0>         0.0687
     59 H22        -1.0488    7.2577   10.7674 H         1 <0>         0.0589
     60 H23         1.2227    9.0286    7.1217 H         1 <0>         0.0236
     61 H24         0.4714   10.1799    8.2523 H         1 <0>         0.0677
     62 H25         2.1856    9.7387    8.4396 H         1 <0>         0.0684
     63 H26        -0.8011    4.0313   14.1551 H         1 <0>         0.0991
     64 H27        -1.9166    3.0682   13.1570 H         1 <0>         0.0537
     65 H28        -0.2091    2.5866   13.3004 H         1 <0>         0.0536
     66 H29        -1.0342   -6.1660   -4.6183 H         1 <0>         0.1097
     67 H30         0.5031   -5.8278   -5.4494 H         1 <0>         0.1021
     68 H31         0.5115   -6.4939   -3.7988 H         1 <0>         0.1106
@<TRIPOS>BOND
     1    1    2 1
     2    1   38 1
     3    1   39 1
     4    1   40 1
     5    2    7 ar
     6    2    3 ar
     7    3    4 ar
     8    3   41 1
     9    4    5 ar
    10    4   32 1
    11    5    6 ar
    12    5   42 1
    13    6    7 ar
    14    6   43 1
    15    7    8 1
    16    8   13 ar
    17    8    9 ar
    18    9   10 ar
    19    9   44 1
    20   10   11 ar
    21   10   45 1
    22   11   12 ar
    23   11   14 1
    24   12   13 ar
    25   12   46 1
    26   13   47 1
    27   14   15 2
    28   14   16 am
    29   16   17 1
    30   16   48 1
    31   17   22 ar
    32   17   18 ar
    33   18   19 ar
    34   18   49 1
    35   19   20 ar
    36   19   50 1
    37   20   21 ar
    38   20   30 1
    39   21   22 ar
    40   21   23 1
    41   22   51 1
    42   23   28 1
    43   23   24 1
    44   24   25 1
    45   24   52 1
    46   24   53 1
    47   25   26 1
    48   25   54 1
    49   25   55 1
    50   26   27 1
    51   26   29 1
    52   27   28 1
    53   27   56 1
    54   27   57 1
    55   28   58 1
    56   28   59 1
    57   29   60 1
    58   29   61 1
    59   29   62 1
    60   30   31 1
    61   31   63 1
    62   31   64 1
    63   31   65 1
    64   32   36 2
    65   32   33 1
    66   33   34 2
    67   34   35 1
    68   34   37 1
    69   35   36 1
    70   37   66 1
    71   37   67 1
    72   37   68 1
@<TRIPOS>MOLECULE
ZINC21981239
   65    68     0     0     0
SMALL
USER_CHARGES
4-[4-(4-chlorophenyl)-4-hydroxy-1-piperidyl]-N-methyl-2,2-diphenyl-butanamide
@<TRIPOS>ATOM
      1 C1         -0.0855   -1.6023   -3.7609 C.3       1 <0>         0.0833
      2 N1         -0.4220   -0.7797   -2.5964 N.am      1 <0>        -0.7395
      3 C2          0.3089   -0.8777   -1.4682 C.2       1 <0>         0.5134
      4 O1          1.2452   -1.6469   -1.4172 O.2       1 <0>        -0.5125
      5 C3         -0.0372   -0.0315   -0.2703 C.3       1 <0>         0.0266
      6 C4         -1.4630   -0.3499    0.1843 C.3       1 <0>        -0.1369
      7 C5         -1.5965   -1.8544    0.4285 C.3       1 <0>        -0.0220
      8 N2         -2.9985   -2.1804    0.7214 N.4       1 <0>        -0.3936
      9 C6         -3.4255   -1.5760    1.9898 C.3       1 <0>        -0.0052
     10 C7         -4.9241   -1.8129    2.1903 C.3       1 <0>        -0.1281
     11 C8         -5.2007   -3.3189    2.2024 C.3       1 <0>         0.1877
     12 C9         -4.7028   -3.9318    0.8905 C.3       1 <0>        -0.1746
     13 C10        -3.2107   -3.6335    0.7277 C.3       1 <0>         0.0007
     14 C11        -6.6820   -3.5591    2.3403 C.ar      1 <0>        -0.1328
     15 C12        -7.4757   -3.6465    1.2119 C.ar      1 <0>        -0.1020
     16 C13        -8.8335   -3.8725    1.3375 C.ar      1 <0>        -0.1086
     17 C14        -9.4000   -3.9998    2.5933 C.ar      1 <0>        -0.0236
     18 C15        -8.6060   -3.9066    3.7225 C.ar      1 <0>        -0.1072
     19 C16        -7.2474   -3.6862    3.5954 C.ar      1 <0>        -0.0829
     20 Cl1       -11.1063   -4.2771    2.7522 Cl        1 <0>        -0.0522
     21 O2         -4.5148   -3.9216    3.3017 O.3       1 <0>        -0.5800
     22 C17         0.0583    1.4262   -0.6404 C.ar      1 <0>        -0.0900
     23 C18        -1.0131    2.2692   -0.4112 C.ar      1 <0>        -0.1196
     24 C19        -0.9237    3.6073   -0.7463 C.ar      1 <0>        -0.1128
     25 C20         0.2333    4.1004   -1.3199 C.ar      1 <0>        -0.1057
     26 C21         1.3026    3.2563   -1.5543 C.ar      1 <0>        -0.1086
     27 C22         1.2152    1.9192   -1.2144 C.ar      1 <0>        -0.0990
     28 C23         0.9255   -0.3293    0.8502 C.ar      1 <0>        -0.0872
     29 C24         1.5324    0.7075    1.5340 C.ar      1 <0>        -0.0984
     30 C25         2.4118    0.4343    2.5650 C.ar      1 <0>        -0.1172
     31 C26         2.6920   -0.8758    2.9055 C.ar      1 <0>        -0.1048
     32 C27         2.0895   -1.9127    2.2180 C.ar      1 <0>        -0.1213
     33 C28         1.2061   -1.6394    1.1905 C.ar      1 <0>        -0.0966
     34 H1         -0.7882   -1.3849   -4.5788 H         1 <0>         0.0814
     35 H2         -0.1552   -2.6663   -3.4907 H         1 <0>         0.0607
     36 H3          0.9396   -1.3734   -4.0876 H         1 <0>         0.0644
     37 H4         -1.2712   -0.0820   -2.6427 H         1 <0>         0.4214
     38 H5         -1.6809    0.1935    1.1156 H         1 <0>         0.1092
     39 H6         -2.1743   -0.0405   -0.5957 H         1 <0>         0.0991
     40 H7         -1.2726   -2.4017   -0.4690 H         1 <0>         0.1294
     41 H8         -0.9665   -2.1446    1.2822 H         1 <0>         0.1429
     42 H9         -2.8680   -2.0339    2.8202 H         1 <0>         0.1374
     43 H10        -3.2256   -0.4946    1.9663 H         1 <0>         0.1323
     44 H11        -5.2401   -1.3726    3.1475 H         1 <0>         0.1208
     45 H12        -5.4830   -1.3423    1.3680 H         1 <0>         0.1024
     46 H13        -4.8608   -5.0202    0.9111 H         1 <0>         0.1182
     47 H14        -5.2597   -3.4963    0.0477 H         1 <0>         0.0994
     48 H15        -2.8533   -4.0603   -0.2210 H         1 <0>         0.1306
     49 H16        -2.6543   -4.0817    1.5641 H         1 <0>         0.1341
     50 H17        -7.0341   -3.5427    0.2318 H         1 <0>         0.1312
     51 H18        -9.4528   -3.9451    0.4557 H         1 <0>         0.1387
     52 H19        -9.0476   -4.0062    4.7030 H         1 <0>         0.1398
     53 H20        -6.6275   -3.6138    4.4767 H         1 <0>         0.1406
     54 H21        -4.5955   -5.0052    3.4730 H         1 <0>         0.4267
     55 H22        -1.9186    1.8831    0.0331 H         1 <0>         0.1234
     56 H23        -1.7593    4.2668   -0.5635 H         1 <0>         0.1284
     57 H24         0.3018    5.1451   -1.5851 H         1 <0>         0.1289
     58 H25         2.2065    3.6415   -2.0028 H         1 <0>         0.1289
     59 H26         2.0506    1.2597   -1.3976 H         1 <0>         0.1219
     60 H27         1.3165    1.7310    1.2653 H         1 <0>         0.1271
     61 H28         2.8828    1.2444    3.1019 H         1 <0>         0.1270
     62 H29         3.3820   -1.0892    3.7086 H         1 <0>         0.1266
     63 H30         2.3088   -2.9362    2.4838 H         1 <0>         0.1251
     64 H31         0.7354   -2.4495    0.6533 H         1 <0>         0.1194
     65 H32        -3.6206   -1.7541   -0.0794 H         1 <0>         0.4340
@<TRIPOS>BOND
     1    1    2 1
     2    1   34 1
     3    1   35 1
     4    1   36 1
     5    2    3 am
     6    2   37 1
     7    3    4 2
     8    3    5 1
     9    5    6 1
    10    5   22 1
    11    5   28 1
    12    6    7 1
    13    6   38 1
    14    6   39 1
    15    7    8 1
    16    7   40 1
    17    7   41 1
    18    8   13 1
    19    8    9 1
    20    8   65 1
    21    9   10 1
    22    9   42 1
    23    9   43 1
    24   10   11 1
    25   10   44 1
    26   10   45 1
    27   11   12 1
    28   11   14 1
    29   11   21 1
    30   12   13 1
    31   12   46 1
    32   12   47 1
    33   13   48 1
    34   13   49 1
    35   14   19 ar
    36   14   15 ar
    37   15   16 ar
    38   15   50 1
    39   16   17 ar
    40   16   51 1
    41   17   18 ar
    42   17   20 1
    43   18   19 ar
    44   18   52 1
    45   19   53 1
    46   21   54 1
    47   22   27 ar
    48   22   23 ar
    49   23   24 ar
    50   23   55 1
    51   24   25 ar
    52   24   56 1
    53   25   26 ar
    54   25   57 1
    55   26   27 ar
    56   26   58 1
    57   27   59 1
    58   28   33 ar
    59   28   29 ar
    60   29   30 ar
    61   29   60 1
    62   30   31 ar
    63   30   61 1
    64   31   32 ar
    65   31   62 1
    66   32   33 ar
    67   32   63 1
    68   33   64 1
@<TRIPOS>MOLECULE
ZINC00527386
   45    48     0     0     0
SMALL
USER_CHARGES

@<TRIPOS>ATOM
      1 C1         -0.0167    1.3782    0.0096 C.ar      1 <0>        -0.0786
      2 C2          1.1703    2.0860    0.0021 C.ar      1 <0>        -0.1478
      3 C3          2.3786    1.4101   -0.0131 C.ar      1 <0>         0.1155
      4 C4          2.3962    0.0256   -0.0207 C.ar      1 <0>        -0.1485
      5 C5          1.2079   -0.6800   -0.0132 C.ar      1 <0>        -0.0833
      6 C6          0.0021   -0.0041    0.0020 C.ar      1 <0>        -0.1160
      7 C7         -1.2930   -0.7747    0.0103 C.3       1 <0>        -0.0467
      8 H1         -2.1314   -0.0783    0.0220 H         1 <0>         0.1035
      9 C8         -1.3504   -1.6663    1.2540 C.3       1 <0>        -0.1398
     10 C9         -2.6302   -2.5042    1.2156 C.3       1 <0>        -0.0090
     11 N1         -2.6348   -3.3421    0.0104 N.4       1 <0>        -0.5052
     12 C10        -2.6523   -2.4927   -1.1866 C.3       1 <0>        -0.0061
     13 C11        -1.3743   -1.6529   -1.2416 C.3       1 <0>        -0.1007
     14 H2         -0.5077   -2.3130   -1.2801 H         1 <0>         0.1106
     15 C12        -1.3973   -0.7654   -2.4877 C.3       1 <0>         0.0632
     16 O1         -1.3556   -1.5854   -3.6573 O.3       1 <0>        -0.3149
     17 C13        -1.3694   -0.9484   -4.8586 C.ar      1 <0>         0.1338
     18 C14        -1.4163    0.4369   -4.9082 C.ar      1 <0>        -0.1955
     19 C15        -1.4304    1.0865   -6.1281 C.ar      1 <0>        -0.0597
     20 C16        -1.3978    0.3558   -7.3046 C.ar      1 <0>         0.0066
     21 C17        -1.3507   -1.0351   -7.2573 C.ar      1 <0>         0.0775
     22 C18        -1.3310   -1.6838   -6.0334 C.ar      1 <0>        -0.1326
     23 O2         -1.3260   -1.5147   -8.5352 O.3       1 <0>        -0.3028
     24 C19        -1.7704   -0.4244   -9.3640 C.3       1 <0>         0.2131
     25 O3         -1.4025    0.7478   -8.6132 O.3       1 <0>        -0.3042
     26 F1          3.5396    2.1009   -0.0209 F         1 <0>        -0.1301
     27 H3         -0.9592    1.9052    0.0260 H         1 <0>         0.1361
     28 H4          1.1554    3.1659    0.0077 H         1 <0>         0.1428
     29 H5          3.3381   -0.5027   -0.0329 H         1 <0>         0.1414
     30 H6          1.2213   -1.7599   -0.0195 H         1 <0>         0.1298
     31 H7         -0.4833   -2.3267    1.2687 H         1 <0>         0.0938
     32 H8         -1.3497   -1.0436    2.1486 H         1 <0>         0.1200
     33 H9         -2.6744   -3.1401    2.0998 H         1 <0>         0.1375
     34 H10        -3.4966   -1.8429    1.2011 H         1 <0>         0.1332
     35 H11        -1.8072   -3.9191    0.0000 H         1 <0>         0.4292
     36 H12        -2.7128   -3.1202   -2.0759 H         1 <0>         0.1435
     37 H13        -3.5182   -1.8317   -1.1499 H         1 <0>         0.1340
     38 H14        -2.3107   -0.1706   -2.4933 H         1 <0>         0.0766
     39 H15        -0.5321   -0.1026   -2.4777 H         1 <0>         0.0872
     40 H16        -1.4421    1.0088   -3.9923 H         1 <0>         0.1409
     41 H17        -1.4672    2.1652   -6.1642 H         1 <0>         0.1431
     42 H18        -1.2900   -2.7623   -5.9944 H         1 <0>         0.1446
     43 H19        -1.2571   -0.4402  -10.3254 H         1 <0>         0.1387
     44 H20        -2.8505   -0.4658   -9.5047 H         1 <0>         0.0906
     45 H21        -3.4535   -3.9318    0.0151 H         1 <0>         0.4349
@<TRIPOS>BOND
     1    1    6 ar
     2    1    2 ar
     3    1   27 1
     4    2    3 ar
     5    2   28 1
     6    3    4 ar
     7    3   26 1
     8    4    5 ar
     9    4   29 1
    10    5    6 ar
    11    5   30 1
    12    6    7 1
    13    7    8 1
    14    7   13 1
    15    7    9 1
    16    9   10 1
    17    9   31 1
    18    9   32 1
    19   10   11 1
    20   10   33 1
    21   10   34 1
    22   11   12 1
    23   11   35 1
    24   11   45 1
    25   12   13 1
    26   12   36 1
    27   12   37 1
    28   13   14 1
    29   13   15 1
    30   15   16 1
    31   15   38 1
    32   15   39 1
    33   16   17 1
    34   17   22 ar
    35   17   18 ar
    36   18   19 ar
    37   18   40 1
    38   19   20 ar
    39   19   41 1
    40   20   25 1
    41   20   21 ar
    42   21   22 ar
    43   21   23 1
    44   22   42 1
    45   23   24 1
    46   24   25 1
    47   24   43 1
    48   24   44 1
@<TRIPOS>MOLECULE
ZINC11601499
   40    43     0     0     0
SMALL
USER_CHARGES
1,3-bis(1,3-benzodioxol-5-yl)propan-2-amine
@<TRIPOS>ATOM
      1 C1         -0.0126    1.0758    0.0080 C.ar      1 <0>        -0.1315
      2 C2          1.1761    1.7818    0.0004 C.ar      1 <0>        -0.0924
      3 C3          1.1598    3.1670    0.0075 C.ar      1 <0>         0.0503
      4 C4         -0.0566    3.8454    0.0224 C.ar      1 <0>         0.0489
      5 C5         -1.2437    3.1314    0.0298 C.ar      1 <0>        -0.0902
      6 C6         -1.2198    1.7491    0.0173 C.ar      1 <0>        -0.1196
      7 C7         -2.5126    0.9747    0.0192 C.3       1 <0>        -0.0939
      8 C8         -2.9433    0.7048    1.4623 C.3       1 <0>         0.0404
      9 C9         -4.3160    0.0291    1.4669 C.3       1 <0>        -0.0901
     10 C10        -4.7950   -0.1256    2.8874 C.ar      1 <0>        -0.1196
     11 C11        -4.4904   -1.2722    3.5969 C.ar      1 <0>        -0.1273
     12 C12        -4.9227   -1.4163    4.9022 C.ar      1 <0>        -0.0940
     13 C13        -5.6728   -0.4159    5.4985 C.ar      1 <0>         0.0503
     14 C14        -5.9846    0.7370    4.7816 C.ar      1 <0>         0.0474
     15 C15        -5.5429    0.8771    3.4762 C.ar      1 <0>        -0.0901
     16 O1         -6.7236    1.5609    5.5805 O.3       1 <0>        -0.3024
     17 C16        -7.2065    0.7271    6.6505 C.3       1 <0>         0.2115
     18 O2         -6.2165   -0.3140    6.7464 O.3       1 <0>        -0.3018
     19 O3          0.1924    5.1875    0.0269 O.3       1 <0>        -0.3023
     20 C17         1.5614    5.3258   -0.3975 C.3       1 <0>         0.2114
     21 O4          2.1707    4.0842    0.0027 O.3       1 <0>        -0.3015
     22 H1          0.0021   -0.0041    0.0020 H         1 <0>         0.1391
     23 H2          2.1178    1.2532   -0.0107 H         1 <0>         0.1456
     24 H3         -2.1883    3.6549    0.0413 H         1 <0>         0.1435
     25 H4         -3.2840    1.5543   -0.4878 H         1 <0>         0.1252
     26 H5         -2.3694    0.0273   -0.5005 H         1 <0>         0.1059
     27 H6         -3.0005    1.6473    2.0068 H         1 <0>         0.1447
     28 H7         -5.0244    0.6417    0.9093 H         1 <0>         0.1252
     29 H8         -4.2391   -0.9531    1.0005 H         1 <0>         0.1053
     30 H9         -3.9100   -2.0554    3.1319 H         1 <0>         0.1385
     31 H10        -4.6793   -2.3111    5.4558 H         1 <0>         0.1450
     32 H11        -5.7831    1.7699    2.9180 H         1 <0>         0.1430
     33 H12        -8.1806    0.3074    6.3993 H         1 <0>         0.0951
     34 H13        -7.2620    1.2898    7.5824 H         1 <0>         0.1426
     35 H14        -2.1892   -0.3174    3.0825 H         1 <0>         0.4368
     36 H15        -1.8903   -1.0570    1.6232 H         1 <0>         0.4334
     37 H16         1.6165    5.4484   -1.4792 H         1 <0>         0.0957
     38 H17         2.0363    6.1662    0.1088 H         1 <0>         0.1428
     39 N1         -1.9409   -0.1619    2.1069 N.4       1 <0>        -0.6487
     40 H18        -1.0222    0.2946    2.0637 H         1 <0>         0.4378
@<TRIPOS>BOND
     1    1    6 ar
     2    1    2 ar
     3    1   22 1
     4    2    3 ar
     5    2   23 1
     6    3   21 1
     7    3    4 ar
     8    4    5 ar
     9    4   19 1
    10    5    6 ar
    11    5   24 1
    12    6    7 1
    13    7    8 1
    14    7   25 1
    15    7   26 1
    16    8    9 1
    17    8   27 1
    18    8   39 1
    19    9   10 1
    20    9   28 1
    21    9   29 1
    22   10   15 ar
    23   10   11 ar
    24   11   12 ar
    25   11   30 1
    26   12   13 ar
    27   12   31 1
    28   13   18 1
    29   13   14 ar
    30   14   15 ar
    31   14   16 1
    32   15   32 1
    33   16   17 1
    34   17   18 1
    35   17   33 1
    36   17   34 1
    37   19   20 1
    38   20   21 1
    39   20   37 1
    40   20   38 1
    41   35   39 1
    42   36   39 1
    43   39   40 1
@<TRIPOS>MOLECULE
ZINC11601320
   34    35     0     0     0
SMALL
USER_CHARGES
1,3-bis(4-chlorophenyl)propan-2-amine
@<TRIPOS>ATOM
      1 C1          0.9098    1.6766   -3.1006 C.ar      1 <0>        -0.1258
      2 C2          1.4933    1.1373   -4.2316 C.ar      1 <0>        -0.1013
      3 C3          1.0379   -0.0674   -4.7370 C.ar      1 <0>        -0.0246
      4 C4          0.0024   -0.7343   -4.1068 C.ar      1 <0>        -0.0989
      5 C5         -0.5765   -0.1967   -2.9727 C.ar      1 <0>        -0.0906
      6 C6         -0.1210    1.0071   -2.4681 C.ar      1 <0>        -0.1261
      7 C7         -0.7527    1.5927   -1.2315 C.3       1 <0>        -0.0958
      8 C8         -0.0127    1.0858    0.0080 C.3       1 <0>         0.0426
      9 C9         -0.7288    1.5792    1.2668 C.3       1 <0>        -0.0995
     10 C10        -0.0738    0.9805    2.4848 C.ar      1 <0>        -0.1267
     11 C11        -0.5233   -0.2259    2.9884 C.ar      1 <0>        -0.0899
     12 C12         0.0808   -0.7784    4.1020 C.ar      1 <0>        -0.0979
     13 C13         1.1282   -0.1182    4.7195 C.ar      1 <0>        -0.0246
     14 C14         1.5740    1.0919    4.2184 C.ar      1 <0>        -0.1000
     15 C15         0.9728    1.6406    3.1013 C.ar      1 <0>        -0.1295
     16 Cl1         1.8832   -0.8082    6.1222 Cl        1 <0>        -0.0435
     17 Cl2         1.7659   -0.7423   -6.1612 Cl        1 <0>        -0.0444
     18 H1          1.2622    2.6192   -2.7085 H         1 <0>         0.1321
     19 H2          2.3016    1.6583   -4.7231 H         1 <0>         0.1427
     20 H3         -0.3532   -1.6749   -4.5007 H         1 <0>         0.1435
     21 H4         -1.3846   -0.7173   -2.4804 H         1 <0>         0.1398
     22 H5         -1.7985    1.2898   -1.1795 H         1 <0>         0.1248
     23 H6         -0.6910    2.6801   -1.2722 H         1 <0>         0.1025
     24 H7          0.0021   -0.0041    0.0020 H         1 <0>         0.1442
     25 H8         -0.6662    2.6662    1.3180 H         1 <0>         0.1030
     26 H9         -1.7755    1.2768    1.2315 H         1 <0>         0.1247
     27 H10        -1.3438   -0.7390    2.5089 H         1 <0>         0.1403
     28 H11        -0.2676   -1.7230    4.4927 H         1 <0>         0.1440
     29 H12         2.3918    1.6075    4.6998 H         1 <0>         0.1433
     30 H13         1.3209    2.5850    2.7098 H         1 <0>         0.1328
     31 H14         1.8793    1.2300   -0.7907 H         1 <0>         0.4365
     32 H15         1.3787    2.6032    0.0029 H         1 <0>         0.4335
     33 N1          1.3738    1.5847    0.0195 N.4       1 <0>        -0.6488
     34 H16         1.8417    1.2613    0.8743 H         1 <0>         0.4375
@<TRIPOS>BOND
     1    1    6 ar
     2    1    2 ar
     3    1   18 1
     4    2    3 ar
     5    2   19 1
     6    3    4 ar
     7    3   17 1
     8    4    5 ar
     9    4   20 1
    10    5    6 ar
    11    5   21 1
    12    6    7 1
    13    7    8 1
    14    7   22 1
    15    7   23 1
    16    8    9 1
    17    8   24 1
    18    8   33 1
    19    9   10 1
    20    9   25 1
    21    9   26 1
    22   10   15 ar
    23   10   11 ar
    24   11   12 ar
    25   11   27 1
    26   12   13 ar
    27   12   28 1
    28   13   14 ar
    29   13   16 1
    30   14   15 ar
    31   14   29 1
    32   15   30 1
    33   31   33 1
    34   32   33 1
    35   33   34 1
@<TRIPOS>MOLECULE
ZINC53739072
   37    38     0     0     0
SMALL
USER_CHARGES

@<TRIPOS>ATOM
      1 C1         -2.2369    1.3983    1.2040 C.3       1 <0>        -0.0492
      2 N1         -2.1776   -0.0694    1.1867 N.4       1 <0>        -0.5112
      3 C2         -1.3981   -0.5142    0.0237 C.3       1 <0>        -0.0101
      4 C3         -1.2450   -2.0360    0.0643 C.3       1 <0>        -0.0273
      5 C4         -0.4084   -2.4965   -1.1311 C.3       1 <0>        -0.1053
      6 C5         -1.1068   -2.0886   -2.4298 C.3       1 <0>        -0.1275
      7 C6         -2.4889   -2.7420   -2.4926 C.3       1 <0>        -0.1283
      8 C7         -3.3255   -2.2816   -1.2973 C.3       1 <0>        -0.1269
      9 C8         -2.6271   -2.6895    0.0015 C.3       1 <0>        -0.1296
     10 C9         -0.5571   -2.4378    1.3435 C.ar      1 <0>        -0.1116
     11 C10        -1.1577   -3.3466    2.1950 C.ar      1 <0>        -0.0996
     12 C11        -0.5281   -3.7156    3.3687 C.ar      1 <0>        -0.0888
     13 C12         0.7041   -3.1758    3.6919 C.ar      1 <0>        -0.0230
     14 C13         1.3057   -2.2662    2.8391 C.ar      1 <0>        -0.0292
     15 C14         0.6763   -1.9019    1.6621 C.ar      1 <0>        -0.1008
     16 Cl1         2.8515   -1.5876    3.2435 Cl        1 <0>        -0.0259
     17 Cl2         1.4951   -3.6385    5.1663 Cl        1 <0>        -0.0236
     18 H1         -2.8153    1.7285    2.0669 H         1 <0>         0.1283
     19 H2         -1.2264    1.8021    1.2679 H         1 <0>         0.1251
     20 H3         -2.7129    1.7536    0.2901 H         1 <0>         0.1260
     21 H4         -1.7369   -0.3982    2.0327 H         1 <0>         0.4270
     22 H5         -1.9143   -0.2253   -0.8918 H         1 <0>         0.1459
     23 H6         -0.4126   -0.0492    0.0475 H         1 <0>         0.1356
     24 H7          0.5762   -2.0310   -1.0863 H         1 <0>         0.0778
     25 H8         -0.2994   -3.5806   -1.1022 H         1 <0>         0.0877
     26 H9         -1.2159   -1.0044   -2.4587 H         1 <0>         0.0631
     27 H10        -0.5108   -2.4166   -3.2814 H         1 <0>         0.0798
     28 H11        -2.9864   -2.4514   -3.4179 H         1 <0>         0.0738
     29 H12        -2.3798   -3.8262   -2.4637 H         1 <0>         0.0726
     30 H13        -3.4345   -1.1974   -1.3261 H         1 <0>         0.0582
     31 H14        -4.3101   -2.7471   -1.3420 H         1 <0>         0.0809
     32 H15        -2.5180   -3.7736    0.0304 H         1 <0>         0.0973
     33 H16        -3.2231   -2.3614    0.8531 H         1 <0>         0.0637
     34 H17        -2.1196   -3.7681    1.9430 H         1 <0>         0.1490
     35 H18        -0.9981   -4.4250    4.0337 H         1 <0>         0.1523
     36 H19         1.1469   -1.1954    0.9944 H         1 <0>         0.1455
     37 H20        -3.1130   -0.4431    1.1275 H         1 <0>         0.4281
@<TRIPOS>BOND
     1    1    2 1
     2    1   18 1
     3    1   19 1
     4    1   20 1
     5    2    3 1
     6    2   21 1
     7    2   37 1
     8    3    4 1
     9    3   22 1
    10    3   23 1
    11    4    9 1
    12    4    5 1
    13    4   10 1
    14    5    6 1
    15    5   24 1
    16    5   25 1
    17    6    7 1
    18    6   26 1
    19    6   27 1
    20    7    8 1
    21    7   28 1
    22    7   29 1
    23    8    9 1
    24    8   30 1
    25    8   31 1
    26    9   32 1
    27    9   33 1
    28   10   15 ar
    29   10   11 ar
    30   11   12 ar
    31   11   34 1
    32   12   13 ar
    33   12   35 1
    34   13   14 ar
    35   13   17 1
    36   14   15 ar
    37   14   16 1
    38   15   36 1
@<TRIPOS>MOLECULE
ZINC36948412
   34    35     0     0     0
SMALL
USER_CHARGES

@<TRIPOS>ATOM
      1 C1         -0.3514    1.7550    0.3612 C.ar      1 <0>        -0.1036
      2 C2          0.6906    2.6611    0.4294 C.ar      1 <0>        -0.0890
      3 C3          1.9916    2.2349    0.2329 C.ar      1 <0>        -0.0229
      4 C4          2.2496    0.9004   -0.0322 C.ar      1 <0>        -0.0289
      5 C5          1.2060   -0.0047   -0.1001 C.ar      1 <0>        -0.0976
      6 C6         -0.0938    0.4231    0.0966 C.ar      1 <0>        -0.1128
      7 C7         -1.2306   -0.5636    0.0230 C.3       1 <0>        -0.0279
      8 C8         -2.1453   -0.2013   -1.1487 C.3       1 <0>        -0.1051
      9 C9         -3.2993   -1.2030   -1.2235 C.3       1 <0>        -0.1278
     10 C10        -2.7394   -2.6117   -1.4303 C.3       1 <0>        -0.1289
     11 C11        -1.8247   -2.9740   -0.2585 C.3       1 <0>        -0.1270
     12 C12        -0.6706   -1.9723   -0.1838 C.3       1 <0>        -0.1321
     13 C13        -2.0299   -0.5188    1.3268 C.3       1 <0>        -0.0074
     14 N1         -1.1465   -0.8451    2.4542 N.4       1 <0>        -0.6388
     15 Cl1         3.8820    0.3639   -0.2798 Cl        1 <0>        -0.0246
     16 Cl2         3.3003    3.3723    0.3178 Cl        1 <0>        -0.0230
     17 H1         -1.3667    2.0874    0.5192 H         1 <0>         0.1430
     18 H2          0.4886    3.7018    0.6359 H         1 <0>         0.1521
     19 H3          1.4065   -1.0455   -0.3072 H         1 <0>         0.1521
     20 H4         -2.5442    0.8023   -1.0014 H         1 <0>         0.0788
     21 H5         -1.5758   -0.2332   -2.0776 H         1 <0>         0.0873
     22 H6         -3.8688   -1.1711   -0.2946 H         1 <0>         0.0636
     23 H7         -3.9510   -0.9449   -2.0582 H         1 <0>         0.0799
     24 H8         -3.5616   -3.3253   -1.4835 H         1 <0>         0.0741
     25 H9         -2.1699   -2.6436   -2.3591 H         1 <0>         0.0725
     26 H10        -2.3942   -2.9421    0.6703 H         1 <0>         0.0591
     27 H11        -1.4257   -3.9776   -0.4058 H         1 <0>         0.0811
     28 H12        -0.1011   -2.0042   -1.1126 H         1 <0>         0.0969
     29 H13        -0.0189   -2.2304    0.6510 H         1 <0>         0.0641
     30 H14        -2.4426    0.4804    1.4659 H         1 <0>         0.1391
     31 H15        -2.8423   -1.2441    1.2800 H         1 <0>         0.1478
     32 H16        -1.6581   -0.7552    3.3193 H         1 <0>         0.4398
     33 H17        -0.8135   -1.7926    2.3573 H         1 <0>         0.4336
     34 H18        -0.3613   -0.2116    2.4605 H         1 <0>         0.4325
@<TRIPOS>BOND
     1    1    6 ar
     2    1    2 ar
     3    1   17 1
     4    2    3 ar
     5    2   18 1
     6    3    4 ar
     7    3   16 1
     8    4    5 ar
     9    4   15 1
    10    5    6 ar
    11    5   19 1
    12    6    7 1
    13    7   12 1
    14    7    8 1
    15    7   13 1
    16    8    9 1
    17    8   20 1
    18    8   21 1
    19    9   10 1
    20    9   22 1
    21    9   23 1
    22   10   11 1
    23   10   24 1
    24   10   25 1
    25   11   12 1
    26   11   26 1
    27   11   27 1
    28   12   28 1
    29   12   29 1
    30   13   14 1
    31   13   30 1
    32   13   31 1
    33   14   32 1
    34   14   33 1
    35   14   34 1
@<TRIPOS>MOLECULE
ZINC66080172
   40    41     0     0     0
SMALL
USER_CHARGES

@<TRIPOS>ATOM
      1 C1          1.3973   -2.7218    2.4095 C.3       1 <0>        -0.1908
      2 C2          0.7002   -2.1146    1.1903 C.3       1 <0>        -0.0115
      3 N1          1.3858   -2.5509   -0.0335 N.4       1 <0>        -0.5115
      4 C3          0.7165   -1.9680   -1.2040 C.3       1 <0>        -0.0089
      5 C4          1.4932   -2.3339   -2.4704 C.3       1 <0>        -0.0269
      6 C5          0.8127   -1.7024   -3.6865 C.3       1 <0>        -0.1051
      7 C6         -0.6206   -2.2261   -3.7980 C.3       1 <0>        -0.1275
      8 C7         -0.5965   -3.7473   -3.9598 C.3       1 <0>        -0.1281
      9 C8          0.0840   -4.3789   -2.7437 C.3       1 <0>        -0.1269
     10 C9          1.5173   -3.8552   -2.6322 C.3       1 <0>        -0.1296
     11 C10         2.9049   -1.8181   -2.3605 C.ar      1 <0>        -0.1111
     12 C11         3.9710   -2.6870   -2.5023 C.ar      1 <0>        -0.0997
     13 C12         5.2662   -2.2153   -2.4013 C.ar      1 <0>        -0.0888
     14 C13         5.4965   -0.8729   -2.1587 C.ar      1 <0>        -0.0230
     15 C14         4.4290   -0.0028   -2.0172 C.ar      1 <0>        -0.0291
     16 C15         3.1333   -0.4758   -2.1237 C.ar      1 <0>        -0.1008
     17 Cl1         4.7163    1.6819   -1.7121 Cl        1 <0>        -0.0261
     18 Cl2         7.1231   -0.2800   -2.0312 Cl        1 <0>        -0.0238
     19 H1          1.3644   -3.8093    2.3426 H         1 <0>         0.0812
     20 H2          2.4354   -2.3907    2.4368 H         1 <0>         0.0806
     21 H3          0.8886   -2.3981    3.3175 H         1 <0>         0.1092
     22 H4         -0.3379   -2.4458    1.1630 H         1 <0>         0.1330
     23 H5          0.7331   -1.0272    1.2572 H         1 <0>         0.1320
     24 H6          2.3468   -2.2444   -0.0081 H         1 <0>         0.4248
     25 H7         -0.2984   -2.3591   -1.2745 H         1 <0>         0.1457
     26 H8          0.6816   -0.8835   -1.0999 H         1 <0>         0.1353
     27 H9          0.7956   -0.6186   -3.5712 H         1 <0>         0.0778
     28 H10         1.3660   -1.9631   -4.5887 H         1 <0>         0.0878
     29 H11        -1.1739   -1.9654   -2.8958 H         1 <0>         0.0631
     30 H12        -1.1054   -1.7762   -4.6644 H         1 <0>         0.0798
     31 H13        -1.6176   -4.1204   -4.0393 H         1 <0>         0.0737
     32 H14        -0.0432   -4.0081   -4.8620 H         1 <0>         0.0726
     33 H15        -0.4693   -4.1181   -1.8415 H         1 <0>         0.0581
     34 H16         0.1011   -5.4626   -2.8590 H         1 <0>         0.0809
     35 H17         2.0706   -4.1159   -3.5344 H         1 <0>         0.0974
     36 H18         2.0021   -4.3051   -1.7658 H         1 <0>         0.0634
     37 H19         3.7916   -3.7350   -2.6917 H         1 <0>         0.1489
     38 H20         6.0985   -2.8947   -2.5115 H         1 <0>         0.1523
     39 H21         2.3001    0.2032   -2.0175 H         1 <0>         0.1455
     40 H22         1.3554   -3.5576   -0.0953 H         1 <0>         0.4257
@<TRIPOS>BOND
     1    1    2 1
     2    1   19 1
     3    1   20 1
     4    1   21 1
     5    2    3 1
     6    2   22 1
     7    2   23 1
     8    3    4 1
     9    3   24 1
    10    3   40 1
    11    4    5 1
    12    4   25 1
    13    4   26 1
    14    5   10 1
    15    5    6 1
    16    5   11 1
    17    6    7 1
    18    6   27 1
    19    6   28 1
    20    7    8 1
    21    7   29 1
    22    7   30 1
    23    8    9 1
    24    8   31 1
    25    8   32 1
    26    9   10 1
    27    9   33 1
    28    9   34 1
    29   10   35 1
    30   10   36 1
    31   11   16 ar
    32   11   12 ar
    33   12   13 ar
    34   12   37 1
    35   13   14 ar
    36   13   38 1
    37   14   15 ar
    38   14   18 1
    39   15   16 ar
    40   15   17 1
    41   16   39 1
@<TRIPOS>MOLECULE
ZINC66136520
   41    43     0     0     0
SMALL
USER_CHARGES

@<TRIPOS>ATOM
      1 C1          0.0188    1.3525    0.2192 C.ar      1 <0>        -0.0851
      2 C2          1.2081    2.0565    0.1850 C.ar      1 <0>        -0.0768
      3 C3          2.3919    1.4007   -0.1000 C.ar      1 <0>        -0.0280
      4 C4          2.3850    0.0388   -0.3510 C.ar      1 <0>        -0.0186
      5 C5          1.1943   -0.6639   -0.3164 C.ar      1 <0>        -0.1443
      6 C6          0.0119   -0.0068   -0.0314 C.ar      1 <0>        -0.0847
      7 C7         -1.2853   -0.7730    0.0067 C.3       1 <0>        -0.0287
      8 C8         -2.1787   -0.3209   -1.1501 C.3       1 <0>        -0.1052
      9 C9         -3.4957   -1.0988   -1.1115 C.3       1 <0>        -0.1281
     10 C10        -4.2069   -0.8319    0.2166 C.3       1 <0>        -0.1271
     11 C11        -3.3134   -1.2840    1.3734 C.3       1 <0>        -0.1283
     12 C12        -1.9964   -0.5061    1.3348 C.3       1 <0>        -0.1281
     13 C13        -0.9975   -2.2698   -0.1260 C.3       1 <0>        -0.0095
     14 N1         -0.2612   -2.7337    1.0575 N.4       1 <0>        -0.4866
     15 C14         0.1266   -4.1385    0.8734 C.3       1 <0>        -0.0904
     16 C15        -0.4672   -5.1675    1.8374 C.3       1 <0>        -0.1514
     17 C16         1.0073   -4.7752    1.9504 C.3       1 <0>        -0.1538
     18 Cl1         3.8700   -0.7858   -0.7095 Cl        1 <0>        -0.0270
     19 Cl2         3.8855    2.2843   -0.1437 Cl        1 <0>        -0.0226
     20 H1         -0.9049    1.8641    0.4462 H         1 <0>         0.1474
     21 H2          1.2127    3.1187    0.3805 H         1 <0>         0.1544
     22 H3          1.1882   -1.7260   -0.5124 H         1 <0>         0.1332
     23 H4         -2.3838    0.7454   -1.0556 H         1 <0>         0.0888
     24 H5         -1.6721   -0.5110   -2.0963 H         1 <0>         0.0799
     25 H6         -4.1322   -0.7768   -1.9356 H         1 <0>         0.0813
     26 H7         -3.2907   -2.1652   -1.2060 H         1 <0>         0.0636
     27 H8         -4.4119    0.2344    0.3111 H         1 <0>         0.0736
     28 H9         -5.1451   -1.3861    0.2441 H         1 <0>         0.0746
     29 H10        -3.8200   -1.0939    2.3196 H         1 <0>         0.0823
     30 H11        -3.1084   -2.3504    1.2789 H         1 <0>         0.0568
     31 H12        -1.3599   -0.8282    2.1589 H         1 <0>         0.0605
     32 H13        -2.2015    0.5603    1.4293 H         1 <0>         0.0985
     33 H14        -1.9380   -2.8150   -0.2055 H         1 <0>         0.1486
     34 H15        -0.3983   -2.4468   -1.0191 H         1 <0>         0.1382
     35 H16         0.5663   -2.1697    1.1812 H         1 <0>         0.4240
     36 H17         0.2889   -4.4501   -0.1584 H         1 <0>         0.1795
     37 H18        -1.1457   -4.8021    2.6083 H         1 <0>         0.1211
     38 H19        -0.6959   -6.1563    1.4399 H         1 <0>         0.1358
     39 H20         1.7487   -5.5060    1.6271 H         1 <0>         0.1365
     40 H21         1.2989   -4.1517    2.7956 H         1 <0>         0.1211
     41 H22        -0.8494   -2.6513    1.8732 H         1 <0>         0.4245
@<TRIPOS>BOND
     1    1    6 ar
     2    1    2 ar
     3    1   20 1
     4    2    3 ar
     5    2   21 1
     6    3    4 ar
     7    3   19 1
     8    4    5 ar
     9    4   18 1
    10    5    6 ar
    11    5   22 1
    12    6    7 1
    13    7   12 1
    14    7    8 1
    15    7   13 1
    16    8    9 1
    17    8   23 1
    18    8   24 1
    19    9   10 1
    20    9   25 1
    21    9   26 1
    22   10   11 1
    23   10   27 1
    24   10   28 1
    25   11   12 1
    26   11   29 1
    27   11   30 1
    28   12   31 1
    29   12   32 1
    30   13   14 1
    31   13   33 1
    32   13   34 1
    33   14   15 1
    34   14   35 1
    35   14   41 1
    36   15   17 1
    37   15   16 1
    38   15   36 1
    39   16   17 1
    40   16   37 1
    41   16   38 1
    42   17   39 1
    43   17   40 1
@<TRIPOS>MOLECULE
ZINC34977910
   37    38     0     0     0
SMALL
USER_CHARGES

@<TRIPOS>ATOM
      1 C1          0.7920   -0.7877   -1.9194 C.ar      1 <0>        -0.0966
      2 C2          2.0062   -0.3485   -2.4134 C.ar      1 <0>        -0.0879
      3 C3          2.7199    0.6210   -1.7326 C.ar      1 <0>        -0.0233
      4 C4          2.2175    1.1513   -0.5560 C.ar      1 <0>        -0.0286
      5 C5          1.0026    0.7107   -0.0633 C.ar      1 <0>        -0.1084
      6 C6          0.2906   -0.2585   -0.7451 C.ar      1 <0>        -0.1088
      7 C7         -1.0333   -0.7379   -0.2080 C.3       1 <0>        -0.0187
      8 C8         -1.2967   -0.0574    1.1489 C.3       1 <0>        -0.1292
      9 C9         -2.3795   -0.7751    1.9771 C.3       1 <0>        -0.1307
     10 C10        -3.5488   -1.2149    1.1383 C.3       1 <0>        -0.1329
     11 C11        -3.3178   -2.6768    0.7040 C.3       1 <0>        -0.1342
     12 C12        -2.4080   -2.7824   -0.4270 C.3       1 <0>        -0.1362
     13 C13        -1.0015   -2.2386   -0.1029 C.3       1 <0>        -0.1117
     14 C14        -2.1390   -0.3334   -1.1852 C.3       1 <0>        -0.0401
     15 N1         -2.3157    1.1245   -1.1485 N.4       1 <0>        -0.6420
     16 Cl1         3.1123    2.3678    0.3001 Cl        1 <0>        -0.0262
     17 Cl2         4.2449    1.1725   -2.3522 Cl        1 <0>        -0.0240
     18 H1          0.2329   -1.5415   -2.4537 H         1 <0>         0.1448
     19 H2          2.3977   -0.7627   -3.3308 H         1 <0>         0.1519
     20 H3          0.6104    1.1236    0.8544 H         1 <0>         0.1515
     21 H4         -0.3688   -0.0428    1.7208 H         1 <0>         0.0974
     22 H5         -1.6136    0.9703    0.9712 H         1 <0>         0.0521
     23 H6         -1.9373   -1.6507    2.4524 H         1 <0>         0.0807
     24 H7         -2.7369   -0.0979    2.7528 H         1 <0>         0.0768
     25 H8         -4.4656   -1.1474    1.7240 H         1 <0>         0.0802
     26 H9         -3.6266   -0.5789    0.2565 H         1 <0>         0.0549
     27 H10        -2.9025   -3.2332    1.5443 H         1 <0>         0.0752
     28 H11        -4.2755   -3.1189    0.4292 H         1 <0>         0.0719
     29 H12        -2.3234   -3.8302   -0.7154 H         1 <0>         0.0808
     30 H13        -2.8196   -2.2197   -1.2649 H         1 <0>         0.0666
     31 H14        -0.2805   -2.6403   -0.8150 H         1 <0>         0.0855
     32 H15        -0.7210   -2.5288    0.9096 H         1 <0>         0.0912
     33 H16        -1.8627   -0.6406   -2.1938 H         1 <0>         0.1387
     34 H17        -3.0718   -0.8198   -0.8999 H         1 <0>         0.1771
     35 H18        -2.7065    1.3936   -0.2580 H         1 <0>         0.4330
     36 H19        -1.4216    1.5749   -1.2734 H         1 <0>         0.4310
     37 H20        -2.9406    1.4062   -1.8889 H         1 <0>         0.4383
@<TRIPOS>BOND
     1    1    6 ar
     2    1    2 ar
     3    1   18 1
     4    2    3 ar
     5    2   19 1
     6    3    4 ar
     7    3   17 1
     8    4    5 ar
     9    4   16 1
    10    5    6 ar
    11    5   20 1
    12    6    7 1
    13    7   13 1
    14    7    8 1
    15    7   14 1
    16    8    9 1
    17    8   21 1
    18    8   22 1
    19    9   10 1
    20    9   23 1
    21    9   24 1
    22   10   11 1
    23   10   25 1
    24   10   26 1
    25   11   12 1
    26   11   27 1
    27   11   28 1
    28   12   13 1
    29   12   29 1
    30   12   30 1
    31   13   31 1
    32   13   32 1
    33   14   15 1
    34   14   33 1
    35   14   34 1
    36   15   35 1
    37   15   36 1
    38   15   37 1
