@<TRIPOS>MOLECULE
ZINC02548486
   53    55     0     0     0
SMALL
USER_CHARGES
2-[[(3S)-3-(4-fluorophenyl)-3-(4-phenylphenoxy)propyl]-methyl-amino]acetic acid
@<TRIPOS>ATOM
      1 C1          3.6592   -0.2655    3.9339 C.3       1 <0>        -0.0507
      2 N1          4.5935    0.5048    3.1023 N.4       1 <0>        -0.3811
      3 C2          4.2238    0.4247    1.6828 C.3       1 <0>        -0.0091
      4 C3          2.8808    1.1246    1.4653 C.3       1 <0>        -0.1380
      5 C4          2.4957    1.0412   -0.0131 C.3       1 <0>         0.1375
      6 H1          2.5327    0.0068   -0.3853 H         1 <0>         0.0942
      7 C5          1.1184    1.6212   -0.2069 C.ar      1 <0>        -0.1397
      8 C6          0.0135    0.7903   -0.2124 C.ar      1 <0>        -0.0774
      9 C7         -1.2496    1.3205   -0.3948 C.ar      1 <0>        -0.1525
     10 C8         -1.4092    2.6857   -0.5622 C.ar      1 <0>         0.1129
     11 C9         -0.3019    3.5169   -0.5566 C.ar      1 <0>        -0.1524
     12 C10         0.9607    2.9839   -0.3787 C.ar      1 <0>        -0.0602
     13 F1         -2.6439    3.2056   -0.7365 F         1 <0>        -0.1342
     14 O1          3.4378    1.7801   -0.7931 O.3       1 <0>        -0.3089
     15 C11         3.5727    1.4241   -2.0974 C.ar      1 <0>         0.1260
     16 C12         2.7388    0.4565   -2.6413 C.ar      1 <0>        -0.1996
     17 C13         2.8696    0.0972   -3.9663 C.ar      1 <0>        -0.0701
     18 C14         3.8477    0.6983   -4.7566 C.ar      1 <0>        -0.0740
     19 C15         4.6872    1.6653   -4.2063 C.ar      1 <0>        -0.0707
     20 C16         4.5479    2.0246   -2.8822 C.ar      1 <0>        -0.1427
     21 C17         3.9954    0.3093   -6.1806 C.ar      1 <0>        -0.0441
     22 C18         4.9694    0.9133   -6.9733 C.ar      1 <0>        -0.1132
     23 C19         5.1051    0.5444   -8.2962 C.ar      1 <0>        -0.1153
     24 C20         4.2699   -0.4158   -8.8383 C.ar      1 <0>        -0.1188
     25 C21         3.2982   -1.0152   -8.0575 C.ar      1 <0>        -0.1159
     26 C22         3.1567   -0.6575   -6.7320 C.ar      1 <0>        -0.1141
     27 C23         5.9768    0.0573    3.3120 C.3       1 <0>        -0.0523
     28 C24         6.4012    0.3806    4.7215 C.2       1 <0>         0.4535
     29 O2          5.6303    0.9276    5.4740 O.co2     1 <0>        -0.6198
     30 O3          7.6355    0.0608    5.1408 O.co2     1 <0>        -0.7054
     31 H2          3.9588   -0.1884    4.9895 H         1 <0>         0.1455
     32 H3          3.6768   -1.3208    3.6238 H         1 <0>         0.1051
     33 H4          2.6424    0.1359    3.8110 H         1 <0>         0.1106
     34 H5          4.9967    0.9170    1.0743 H         1 <0>         0.1324
     35 H6          4.1397   -0.6308    1.3848 H         1 <0>         0.1213
     36 H7          2.1080    0.6322    2.0738 H         1 <0>         0.1092
     37 H8          2.9649    2.1801    1.7633 H         1 <0>         0.1037
     38 H9          0.1379   -0.2741   -0.0784 H         1 <0>         0.1346
     39 H10        -2.1122    0.6707   -0.4035 H         1 <0>         0.1405
     40 H11        -0.4248    4.5814   -0.6915 H         1 <0>         0.1402
     41 H12         1.8245    3.6320   -0.3743 H         1 <0>         0.1386
     42 H13         1.9842   -0.0124   -2.0271 H         1 <0>         0.1300
     43 H14         2.2180   -0.6527   -4.3899 H         1 <0>         0.1290
     44 H15         5.4462    2.1326   -4.8162 H         1 <0>         0.1346
     45 H16         5.1979    2.7741   -2.4553 H         1 <0>         0.1348
     46 H17         5.6193    1.6661   -6.5521 H         1 <0>         0.1252
     47 H18         5.8623    1.0090   -8.9104 H         1 <0>         0.1254
     48 H19         4.3766   -0.6982   -9.8753 H         1 <0>         0.1238
     49 H20         2.6488   -1.7643   -8.4858 H         1 <0>         0.1247
     50 H21         2.3972   -1.1256   -6.1234 H         1 <0>         0.1235
     51 H22         6.0392   -1.0290    3.1503 H         1 <0>         0.1271
     52 H23         6.6405    0.5724    2.6020 H         1 <0>         0.1313
     53 H24         4.5291    1.5591    3.4095 H         1 <0>         0.4451
@<TRIPOS>BOND
     1    1    2 1
     2    1   31 1
     3    1   32 1
     4    1   33 1
     5    2    3 1
     6    2   27 1
     7    2   53 1
     8    3    4 1
     9    3   34 1
    10    3   35 1
    11    4    5 1
    12    4   36 1
    13    4   37 1
    14    5    6 1
    15    5    7 1
    16    5   14 1
    17    7   12 ar
    18    7    8 ar
    19    8    9 ar
    20    8   38 1
    21    9   10 ar
    22    9   39 1
    23   10   11 ar
    24   10   13 1
    25   11   12 ar
    26   11   40 1
    27   12   41 1
    28   14   15 1
    29   15   20 ar
    30   15   16 ar
    31   16   17 ar
    32   16   42 1
    33   17   18 ar
    34   17   43 1
    35   18   19 ar
    36   18   21 1
    37   19   20 ar
    38   19   44 1
    39   20   45 1
    40   21   26 ar
    41   21   22 ar
    42   22   23 ar
    43   22   46 1
    44   23   24 ar
    45   23   47 1
    46   24   25 ar
    47   24   48 1
    48   25   26 ar
    49   25   49 1
    50   26   50 1
    51   27   28 1
    52   27   51 1
    53   27   52 1
    54   28   29 2
    55   28   30 1
@<TRIPOS>MOLECULE
ZINC03996003
   53    55     0     0     0
SMALL
USER_CHARGES

@<TRIPOS>ATOM
      1 C1         -0.3161    1.0064   -0.2169 C.3       1 <0>        -0.0541
      2 N1         -0.0595   -0.4399   -0.2380 N.4       1 <0>        -0.3597
      3 C2          0.6109   -0.8365    1.0075 C.3       1 <0>        -0.0125
      4 C3          1.9920   -0.1813    1.0741 C.3       1 <0>        -0.1398
      5 C4          2.6903   -0.5944    2.3713 C.3       1 <0>         0.1388
      6 H1          2.0523   -0.3509    3.2208 H         1 <0>         0.0927
      7 C5          3.9970    0.1458    2.4960 C.ar      1 <0>        -0.1406
      8 C6          5.1064   -0.2882    1.7945 C.ar      1 <0>        -0.0598
      9 C7          6.3052    0.3900    1.9078 C.ar      1 <0>        -0.1528
     10 C8          6.3948    1.5047    2.7242 C.ar      1 <0>         0.1133
     11 C9          5.2831    1.9386    3.4262 C.ar      1 <0>        -0.1524
     12 C10         4.0840    1.2618    3.3073 C.ar      1 <0>        -0.0768
     13 F1          7.5663    2.1683    2.8360 F         1 <0>        -0.1341
     14 O1          2.9399   -2.0013    2.3508 O.3       1 <0>        -0.3044
     15 C11         3.0653   -2.6231    3.5523 C.ar      1 <0>         0.1254
     16 C12         3.0572   -1.8766    4.7229 C.ar      1 <0>        -0.1989
     17 C13         3.1843   -2.5050    5.9439 C.ar      1 <0>        -0.0703
     18 C14         3.3204   -3.8909    6.0020 C.ar      1 <0>        -0.0741
     19 C15         3.3277   -4.6376    4.8252 C.ar      1 <0>        -0.0708
     20 C16         3.1954   -4.0042    3.6074 C.ar      1 <0>        -0.1428
     21 C17         3.4578   -4.5698    7.3140 C.ar      1 <0>        -0.0439
     22 C18         3.4453   -3.8248    8.4916 C.ar      1 <0>        -0.1141
     23 C19         3.5730   -4.4617    9.7094 C.ar      1 <0>        -0.1158
     24 C20         3.7137   -5.8367    9.7623 C.ar      1 <0>        -0.1189
     25 C21         3.7272   -6.5811    8.5965 C.ar      1 <0>        -0.1153
     26 C22         3.5940   -5.9554    7.3736 C.ar      1 <0>        -0.1133
     27 C23        -1.3333   -1.1614   -0.3596 C.3       1 <0>        -0.0834
     28 C24        -1.9626   -0.8487   -1.6927 C.2       1 <0>         0.4872
     29 O2         -1.4019   -0.0946   -2.4696 O.co2     1 <0>        -0.6730
     30 O3         -3.0323   -1.3497   -1.9944 O.co2     1 <0>        -0.6385
     31 H2          0.6290    1.5418   -0.1267 H         1 <0>         0.1074
     32 H3         -0.8136    1.3006   -1.1410 H         1 <0>         0.1510
     33 H4         -0.9541    1.2499    0.6327 H         1 <0>         0.1053
     34 H5          0.0140   -0.5134    1.8603 H         1 <0>         0.1223
     35 H6          0.7216   -1.9206    1.0312 H         1 <0>         0.1300
     36 H7          2.5890   -0.5044    0.2213 H         1 <0>         0.1013
     37 H8          1.8814    0.9028    1.0503 H         1 <0>         0.1091
     38 H9          5.0363   -1.1580    1.1581 H         1 <0>         0.1381
     39 H10         7.1718    0.0505    1.3599 H         1 <0>         0.1403
     40 H11         5.3519    2.8077    4.0636 H         1 <0>         0.1406
     41 H12         3.2155    1.6026    3.8514 H         1 <0>         0.1346
     42 H13         2.9516   -0.8028    4.6772 H         1 <0>         0.1297
     43 H14         3.1786   -1.9237    6.8541 H         1 <0>         0.1291
     44 H15         3.4334   -5.7116    4.8672 H         1 <0>         0.1345
     45 H16         3.1973   -4.5827    2.6954 H         1 <0>         0.1346
     46 H17         3.3363   -2.7511    8.4515 H         1 <0>         0.1235
     47 H18         3.5635   -3.8853   10.6227 H         1 <0>         0.1248
     48 H19         3.8137   -6.3309   10.7173 H         1 <0>         0.1238
     49 H20         3.8380   -7.6544    8.6435 H         1 <0>         0.1254
     50 H21         3.5999   -6.5380    6.4642 H         1 <0>         0.1251
     51 H22        -1.1520   -2.2337   -0.2860 H         1 <0>         0.1239
     52 H23        -2.0047   -0.8508    0.4409 H         1 <0>         0.1228
     53 H24         0.5311   -0.6653   -1.0244 H         1 <0>         0.4257
@<TRIPOS>BOND
     1    1    2 1
     2    1   31 1
     3    1   32 1
     4    1   33 1
     5    2    3 1
     6    2   27 1
     7    2   53 1
     8    3    4 1
     9    3   34 1
    10    3   35 1
    11    4    5 1
    12    4   36 1
    13    4   37 1
    14    5    6 1
    15    5    7 1
    16    5   14 1
    17    7   12 ar
    18    7    8 ar
    19    8    9 ar
    20    8   38 1
    21    9   10 ar
    22    9   39 1
    23   10   11 ar
    24   10   13 1
    25   11   12 ar
    26   11   40 1
    27   12   41 1
    28   14   15 1
    29   15   20 ar
    30   15   16 ar
    31   16   17 ar
    32   16   42 1
    33   17   18 ar
    34   17   43 1
    35   18   19 ar
    36   18   21 1
    37   19   20 ar
    38   19   44 1
    39   20   45 1
    40   21   26 ar
    41   21   22 ar
    42   22   23 ar
    43   22   46 1
    44   23   24 ar
    45   23   47 1
    46   24   25 ar
    47   24   48 1
    48   25   26 ar
    49   25   49 1
    50   26   50 1
    51   27   28 1
    52   27   51 1
    53   27   52 1
    54   28   29 2
    55   28   30 1
@<TRIPOS>MOLECULE
ZINC40916008
   46    48     0     0     0
SMALL
USER_CHARGES

@<TRIPOS>ATOM
      1 C1         -0.0167    1.3781    0.0096 C.ar      1 <0>        -0.1153
      2 C2          1.1709    2.0855    0.0021 C.ar      1 <0>        -0.1172
      3 C3          2.3773    1.4107   -0.0130 C.ar      1 <0>        -0.0999
      4 C4          2.3960    0.0285   -0.0201 C.ar      1 <0>        -0.0953
      5 C5          1.2084   -0.6789   -0.0117 C.ar      1 <0>        -0.1035
      6 C6          0.0021   -0.0041    0.0020 C.ar      1 <0>        -0.1195
      7 C7          3.7112   -0.7071   -0.0376 C.3       1 <0>         0.2319
      8 H1          4.4960   -0.0399   -0.3940 H         1 <0>         0.1098
      9 C8          4.0438   -1.1746    1.3559 C.ar      1 <0>        -0.0865
     10 C9          3.4553   -2.3197    1.8594 C.ar      1 <0>        -0.0989
     11 C10         3.7599   -2.7490    3.1374 C.ar      1 <0>        -0.1041
     12 C11         4.6540   -2.0325    3.9128 C.ar      1 <0>        -0.0307
     13 C12         5.2427   -0.8866    3.4084 C.ar      1 <0>        -0.1041
     14 C13         4.9415   -0.4614    2.1282 C.ar      1 <0>        -0.0897
     15 Cl1         5.0367   -2.5708    5.5182 Cl        1 <0>        -0.0640
     16 N1          3.6115   -1.8645   -0.9302 N.am      1 <0>        -0.7190
     17 C14         3.8246   -1.7159   -2.2527 C.2       1 <0>         0.5155
     18 O1          4.0988   -0.6240   -2.7038 O.2       1 <0>        -0.5265
     19 C15         3.7220   -2.9064   -3.1709 C.3       1 <0>         0.1005
     20 N2          3.9952   -2.4864   -4.5475 N.am      1 <0>        -0.7163
     21 C16         3.9597   -3.3895   -5.5473 C.2       1 <0>         0.5640
     22 O2          3.7010   -4.5526   -5.3068 O.2       1 <0>        -0.5350
     23 C17         4.2354   -2.9656   -6.9366 C.ar      1 <0>        -0.1383
     24 C18         4.5384   -1.6319   -7.2154 C.ar      1 <0>        -0.0846
     25 C19         4.7951   -1.2430   -8.5139 C.ar      1 <0>        -0.1271
     26 C20         4.7522   -2.1716   -9.5387 C.ar      1 <0>        -0.0910
     27 C21         4.4520   -3.4951   -9.2692 C.ar      1 <0>        -0.1280
     28 C22         4.1994   -3.8984   -7.9743 C.ar      1 <0>        -0.0581
     29 H2         -0.9591    1.9053    0.0259 H         1 <0>         0.1228
     30 H3          1.1563    3.1654    0.0076 H         1 <0>         0.1244
     31 H4          3.3051    1.9634   -0.0196 H         1 <0>         0.1230
     32 H5          1.2231   -1.7588   -0.0176 H         1 <0>         0.1168
     33 H6         -0.9258   -0.5567    0.0082 H         1 <0>         0.1229
     34 H7          2.7571   -2.8788    1.2541 H         1 <0>         0.1299
     35 H8          3.2998   -3.6435    3.5307 H         1 <0>         0.1375
     36 H9          5.9405   -0.3266    4.0133 H         1 <0>         0.1381
     37 H10         5.4046    0.4305    1.7325 H         1 <0>         0.1359
     38 H11         3.3922   -2.7378   -0.5694 H         1 <0>         0.4045
     39 H12         4.4490   -3.6609   -2.8702 H         1 <0>         0.1039
     40 H13         2.7176   -3.3257   -3.1115 H         1 <0>         0.1032
     41 H14         4.2017   -1.5582   -4.7395 H         1 <0>         0.4124
     42 H15         4.5715   -0.9060   -6.4164 H         1 <0>         0.1274
     43 H16         5.0298   -0.2114   -8.7310 H         1 <0>         0.1306
     44 H17         4.9536   -1.8619  -10.5536 H         1 <0>         0.1289
     45 H18         4.4198   -4.2149  -10.0737 H         1 <0>         0.1317
     46 H19         3.9700   -4.9327   -7.7645 H         1 <0>         0.1371
@<TRIPOS>BOND
     1    1    6 ar
     2    1    2 ar
     3    1   29 1
     4    2    3 ar
     5    2   30 1
     6    3    4 ar
     7    3   31 1
     8    4    5 ar
     9    4    7 1
    10    5    6 ar
    11    5   32 1
    12    6   33 1
    13    7    8 1
    14    7    9 1
    15    7   16 1
    16    9   14 ar
    17    9   10 ar
    18   10   11 ar
    19   10   34 1
    20   11   12 ar
    21   11   35 1
    22   12   13 ar
    23   12   15 1
    24   13   14 ar
    25   13   36 1
    26   14   37 1
    27   16   17 am
    28   16   38 1
    29   17   18 2
    30   17   19 1
    31   19   20 1
    32   19   39 1
    33   19   40 1
    34   20   21 am
    35   20   41 1
    36   21   22 2
    37   21   23 1
    38   23   28 ar
    39   23   24 ar
    40   24   25 ar
    41   24   42 1
    42   25   26 ar
    43   25   43 1
    44   26   27 ar
    45   26   44 1
    46   27   28 ar
    47   27   45 1
    48   28   46 1
@<TRIPOS>MOLECULE
ZINC40916010
   46    48     0     0     0
SMALL
USER_CHARGES

@<TRIPOS>ATOM
      1 C1         -0.0167    1.3781    0.0096 C.ar      1 <0>        -0.1153
      2 C2          1.1709    2.0855    0.0021 C.ar      1 <0>        -0.1171
      3 C3          2.3773    1.4107   -0.0130 C.ar      1 <0>        -0.0999
      4 C4          2.3960    0.0285   -0.0201 C.ar      1 <0>        -0.0953
      5 C5          1.2084   -0.6789   -0.0117 C.ar      1 <0>        -0.1035
      6 C6          0.0021   -0.0041    0.0020 C.ar      1 <0>        -0.1194
      7 C7          3.7112   -0.7071   -0.0376 C.3       1 <0>         0.2319
      8 H1          4.5034   -0.0434    0.3089 H         1 <0>         0.1098
      9 C8          4.0144   -1.1607   -1.4423 C.ar      1 <0>        -0.0867
     10 C9          3.4067   -2.2944   -1.9487 C.ar      1 <0>        -0.0987
     11 C10         3.6845   -2.7109   -3.2370 C.ar      1 <0>        -0.1042
     12 C11         4.5709   -1.9929   -4.0199 C.ar      1 <0>        -0.0307
     13 C12         5.1788   -0.8583   -3.5126 C.ar      1 <0>        -0.1042
     14 C13         4.8959   -0.4396   -2.2261 C.ar      1 <0>        -0.0896
     15 Cl1         4.9207   -2.5157   -5.6379 Cl        1 <0>        -0.0640
     16 N1          3.6301   -1.8734    0.8453 N.am      1 <0>        -0.7190
     17 C14         3.8709   -1.7379    2.1645 C.2       1 <0>         0.5155
     18 O1          4.1546   -0.6506    2.6206 O.2       1 <0>        -0.5265
     19 C15         3.7875   -2.9376    3.0727 C.3       1 <0>         0.1005
     20 N2          4.0895   -2.5313    4.4475 N.am      1 <0>        -0.7162
     21 C16         4.0748   -3.4443    5.4387 C.2       1 <0>         0.5640
     22 O2          3.8110   -4.6050    5.1920 O.2       1 <0>        -0.5351
     23 C17         4.3796   -3.0343    6.8261 C.ar      1 <0>        -0.1383
     24 C18         4.6773   -1.7013    7.1136 C.ar      1 <0>        -0.0846
     25 C19         4.9603   -1.3252    8.4104 C.ar      1 <0>        -0.1271
     26 C20         4.9500   -2.2661    9.4247 C.ar      1 <0>        -0.0910
     27 C21         4.6562   -3.5892    9.1464 C.ar      1 <0>        -0.1280
     28 C22         4.3653   -3.9774    7.8549 C.ar      1 <0>        -0.0581
     29 H2         -0.9591    1.9053    0.0259 H         1 <0>         0.1228
     30 H3          1.1563    3.1654    0.0076 H         1 <0>         0.1244
     31 H4          3.3051    1.9634   -0.0196 H         1 <0>         0.1230
     32 H5          1.2231   -1.7588   -0.0176 H         1 <0>         0.1168
     33 H6         -0.9258   -0.5567    0.0082 H         1 <0>         0.1229
     34 H7          2.7151   -2.8550   -1.3373 H         1 <0>         0.1299
     35 H8          3.2099   -3.5969   -3.6323 H         1 <0>         0.1374
     36 H9          5.8710   -0.2976   -4.1231 H         1 <0>         0.1380
     37 H10         5.3667    0.4487   -1.8316 H         1 <0>         0.1359
     38 H11         3.4032   -2.7430    0.4805 H         1 <0>         0.4045
     39 H12         2.7820   -3.3563    3.0302 H         1 <0>         0.1032
     40 H13         4.5079   -3.6889    2.7493 H         1 <0>         0.1039
     41 H14         4.3000   -1.6051    4.6443 H         1 <0>         0.4124
     42 H15         4.6863   -0.9660    6.3226 H         1 <0>         0.1274
     43 H16         5.1908   -0.2941    8.6342 H         1 <0>         0.1306
     44 H17         5.1727   -1.9665   10.4382 H         1 <0>         0.1289
     45 H18         4.6502   -4.3188    9.9426 H         1 <0>         0.1317
     46 H19         4.1314   -5.0095    7.6397 H         1 <0>         0.1371
@<TRIPOS>BOND
     1    1    6 ar
     2    1    2 ar
     3    1   29 1
     4    2    3 ar
     5    2   30 1
     6    3    4 ar
     7    3   31 1
     8    4    5 ar
     9    4    7 1
    10    5    6 ar
    11    5   32 1
    12    6   33 1
    13    7    8 1
    14    7    9 1
    15    7   16 1
    16    9   14 ar
    17    9   10 ar
    18   10   11 ar
    19   10   34 1
    20   11   12 ar
    21   11   35 1
    22   12   13 ar
    23   12   15 1
    24   13   14 ar
    25   13   36 1
    26   14   37 1
    27   16   17 am
    28   16   38 1
    29   17   18 2
    30   17   19 1
    31   19   20 1
    32   19   39 1
    33   19   40 1
    34   20   21 am
    35   20   41 1
    36   21   22 2
    37   21   23 1
    38   23   28 ar
    39   23   24 ar
    40   24   25 ar
    41   24   42 1
    42   25   26 ar
    43   25   43 1
    44   26   27 ar
    45   26   44 1
    46   27   28 ar
    47   27   45 1
    48   28   46 1
@<TRIPOS>MOLECULE
ZINC40943257
   56    59     0     0     0
SMALL
USER_CHARGES

@<TRIPOS>ATOM
      1 C1         -0.0657    1.5180    0.0218 C.3       1 <0>        -0.1178
      2 C2         -0.0150    0.0119    0.0136 C.ar      1 <0>        -0.0369
      3 C3          0.0185   -0.6716   -1.1884 C.ar      1 <0>        -0.1772
      4 C4          0.0647   -2.0534   -1.2004 C.ar      1 <0>        -0.0665
      5 C5          0.0779   -2.7559   -0.0113 C.ar      1 <0>        -0.2044
      6 C6          0.0448   -2.0727    1.1975 C.ar      1 <0>         0.2204
      7 C7          0.0037   -0.6840    1.2061 C.ar      1 <0>        -0.1988
      8 N1          0.0581   -2.7800    2.4019 N.pl3     1 <0>        -0.6298
      9 C8          0.1367   -2.0693    3.6859 C.3       1 <0>         0.1093
     10 C9         -1.0463   -2.5039    4.5599 C.3       1 <0>         0.0983
     11 N2         -1.1112   -3.9721    4.5658 N.am      1 <0>        -0.6042
     12 C10        -1.1898   -4.6829    3.2819 C.3       1 <0>         0.0828
     13 C11        -0.0125   -4.2479    2.4081 C.3       1 <0>         0.1101
     14 C12        -1.0984   -4.6546    5.7279 C.2       1 <0>         0.5738
     15 O1         -1.1077   -4.0546    6.7856 O.2       1 <0>        -0.5100
     16 C13        -1.0732   -6.1287    5.7169 C.ar      1 <0>        -0.1383
     17 C14        -2.0522   -6.8434    5.0216 C.ar      1 <0>        -0.0237
     18 C15        -2.0231   -8.2205    5.0152 C.ar      1 <0>        -0.0559
     19 C16        -1.0269   -8.9033    5.6955 C.ar      1 <0>        -0.0289
     20 C17        -0.0535   -8.2123    6.3870 C.ar      1 <0>        -0.1265
     21 C18        -0.0626   -6.8228    6.3999 C.ar      1 <0>         0.2757
     22 N3          0.9200   -6.1247    7.0897 N.pl3     1 <0>        -0.6830
     23 C19         0.7431   -5.7688    8.5066 C.3       1 <0>         0.1162
     24 C20         1.9912   -6.2151    9.2767 C.3       1 <0>         0.0456
     25 O2          3.1546   -5.6921    8.6312 O.3       1 <0>        -0.3771
     26 C21         3.3476   -6.1682    7.2971 C.3       1 <0>         0.0482
     27 C22         2.1714   -5.7244    6.4271 C.3       1 <0>         0.1109
     28 N4         -3.0615   -8.9754    4.2784 N.pl3     1 <0>         0.0331
     29 O3         -3.9321   -8.3831    3.6843 O.2       1 <0>        -0.1547
     30 O4         -3.0391  -10.1841    4.2706 O.3       1 <0>        -0.1489
     31 H1          0.9491    1.9157    0.0279 H         1 <0>         0.0719
     32 H2         -0.5881    1.8688   -0.8682 H         1 <0>         0.0680
     33 H3         -0.5949    1.8589    0.9117 H         1 <0>         0.0655
     34 H4          0.0083   -0.1247   -2.1196 H         1 <0>         0.1184
     35 H5          0.0900   -2.5840   -2.1407 H         1 <0>         0.1215
     36 H6          0.1136   -3.8353   -0.0214 H         1 <0>         0.1204
     37 H7         -0.0180   -0.1495    2.1443 H         1 <0>         0.1217
     38 H8          1.0724   -2.3196    4.1858 H         1 <0>         0.0672
     39 H9          0.0879   -0.9942    3.5125 H         1 <0>         0.0986
     40 H10        -0.9026   -2.1400    5.5772 H         1 <0>         0.1052
     41 H11        -1.9717   -2.0985    4.1509 H         1 <0>         0.0769
     42 H12        -1.1410   -5.7579    3.4552 H         1 <0>         0.0922
     43 H13        -2.1255   -4.4325    2.7819 H         1 <0>         0.0833
     44 H14        -0.1598   -4.6113    1.3911 H         1 <0>         0.0985
     45 H15         0.9123   -4.6569    2.8150 H         1 <0>         0.0653
     46 H16        -2.8309   -6.3166    4.4901 H         1 <0>         0.1588
     47 H17        -1.0128   -9.9831    5.6844 H         1 <0>         0.1614
     48 H18         0.7190   -8.7517    6.9148 H         1 <0>         0.1546
     49 H19         0.6195   -4.6900    8.6014 H         1 <0>         0.0744
     50 H20        -0.1354   -6.2760    8.9056 H         1 <0>         0.0793
     51 H21         1.9420   -5.8395   10.2988 H         1 <0>         0.1040
     52 H22         2.0407   -7.3039    9.2901 H         1 <0>         0.0532
     53 H23         4.2744   -5.7589    6.8949 H         1 <0>         0.1030
     54 H24         3.4021   -7.2568    7.3033 H         1 <0>         0.0543
     55 H25         2.2384   -6.2022    5.4497 H         1 <0>         0.0776
     56 H26         2.1941   -4.6410    6.3091 H         1 <0>         0.0632
@<TRIPOS>BOND
     1    1    2 1
     2    1   31 1
     3    1   32 1
     4    1   33 1
     5    2    7 ar
     6    2    3 ar
     7    3    4 ar
     8    3   34 1
     9    4    5 ar
    10    4   35 1
    11    5    6 ar
    12    5   36 1
    13    6    7 ar
    14    6    8 1
    15    7   37 1
    16    8   13 1
    17    8    9 1
    18    9   10 1
    19    9   38 1
    20    9   39 1
    21   10   11 1
    22   10   40 1
    23   10   41 1
    24   11   12 1
    25   11   14 am
    26   12   13 1
    27   12   42 1
    28   12   43 1
    29   13   44 1
    30   13   45 1
    31   14   15 2
    32   14   16 1
    33   16   21 ar
    34   16   17 ar
    35   17   18 ar
    36   17   46 1
    37   18   19 ar
    38   18   28 1
    39   19   20 ar
    40   19   47 1
    41   20   21 ar
    42   20   48 1
    43   21   22 1
    44   22   27 1
    45   22   23 1
    46   23   24 1
    47   23   49 1
    48   23   50 1
    49   24   25 1
    50   24   51 1
    51   24   52 1
    52   25   26 1
    53   26   27 1
    54   26   53 1
    55   26   54 1
    56   27   55 1
    57   27   56 1
    58   28   29 2
    59   28   30 1
@<TRIPOS>MOLECULE
ZINC40957260
   53    55     0     0     0
SMALL
USER_CHARGES

@<TRIPOS>ATOM
      1 C1         -0.0305    1.6150   -0.0557 C.3       1 <0>        -0.2010
      2 C2         -0.0157    0.1081   -0.0447 C.2       1 <0>         0.3942
      3 O1         -0.0035   -0.4906    1.0103 O.2       1 <0>        -0.4512
      4 C3         -0.0161   -0.6350   -1.3101 C.ar      1 <0>        -0.1467
      5 C4         -0.0244    0.0545   -2.5294 C.ar      1 <0>        -0.0757
      6 C5         -0.0248   -0.6373   -3.7065 C.ar      1 <0>        -0.1093
      7 C6         -0.0174   -2.0295   -3.7018 C.ar      1 <0>         0.1691
      8 C7         -0.0091   -2.7266   -2.4936 C.ar      1 <0>         0.0815
      9 C8         -0.0023   -2.0363   -1.3020 C.ar      1 <0>        -0.0920
     10 F1         -0.0019   -4.0776   -2.4924 F         1 <0>        -0.1292
     11 N1         -0.0188   -2.7268   -4.9046 N.pl3     1 <0>        -0.6745
     12 C9         -1.2846   -3.1034   -5.5494 C.3       1 <0>         0.1319
     13 C10        -1.2880   -2.5531   -6.9810 C.3       1 <0>         0.0987
     14 N2         -0.0237   -2.9265   -7.6306 N.am      1 <0>        -0.6040
     15 C11         1.2422   -2.5499   -6.9858 C.3       1 <0>         0.0874
     16 C12         1.2455   -3.0953   -5.5570 C.3       1 <0>         0.1323
     17 C13        -0.0250   -3.6025   -8.7966 C.2       1 <0>         0.5744
     18 O2         -1.0732   -3.9996   -9.2679 O.2       1 <0>        -0.5116
     19 C14         1.2445   -3.8604   -9.5006 C.ar      1 <0>        -0.1415
     20 C15         2.1026   -2.8028   -9.8131 C.ar      1 <0>        -0.0207
     21 C16         3.2872   -3.0504  -10.4710 C.ar      1 <0>        -0.0580
     22 C17         3.6341   -4.3447  -10.8257 C.ar      1 <0>        -0.0296
     23 C18         2.7975   -5.3996  -10.5248 C.ar      1 <0>        -0.1271
     24 C19         1.6012   -5.1704   -9.8560 C.ar      1 <0>         0.2739
     25 N3          0.7605   -6.2314   -9.5459 N.pl3     1 <0>        -0.6883
     26 C20         0.9068   -6.9327   -8.2680 C.3       1 <0>         0.1159
     27 C21        -0.2727   -6.6493  -10.4968 C.3       1 <0>         0.1234
     28 N4          4.1943   -1.9284  -10.8013 N.pl3     1 <0>         0.0340
     29 O3          3.8947   -0.7982  -10.4937 O.2       1 <0>        -0.1561
     30 O4          5.2348   -2.1421  -11.3787 O.3       1 <0>        -0.1508
     31 H1          0.9935    1.9884   -0.0646 H         1 <0>         0.1011
     32 H2         -0.5532    1.9667   -0.9452 H         1 <0>         0.0883
     33 H3         -0.5426    1.9799    0.8347 H         1 <0>         0.0913
     34 H4         -0.0309    1.1345   -2.5384 H         1 <0>         0.1428
     35 H5         -0.0313   -0.1025   -4.6448 H         1 <0>         0.1394
     36 H6          0.0090   -2.5728   -0.3648 H         1 <0>         0.1471
     37 H7         -1.3733   -4.1895   -5.5747 H         1 <0>         0.0617
     38 H8         -2.1195   -2.6785   -4.9922 H         1 <0>         0.0856
     39 H9         -2.1239   -2.9801   -7.5351 H         1 <0>         0.1028
     40 H10        -1.3794   -1.4673   -6.9553 H         1 <0>         0.0753
     41 H11         2.0771   -2.9748   -7.5429 H         1 <0>         0.0880
     42 H12         1.3309   -1.4639   -6.9604 H         1 <0>         0.0799
     43 H13         2.0811   -2.6651   -5.0048 H         1 <0>         0.0858
     44 H14         1.3410   -4.1808   -5.5829 H         1 <0>         0.0605
     45 H15         1.8372   -1.7924   -9.5394 H         1 <0>         0.1575
     46 H16         4.5651   -4.5285  -11.3414 H         1 <0>         0.1607
     47 H17         3.0750   -6.4050  -10.8050 H         1 <0>         0.1558
     48 H18         0.2791   -6.4535   -7.5167 H         1 <0>         0.0369
     49 H19         0.6016   -7.9723   -8.3871 H         1 <0>         0.0685
     50 H20         1.9485   -6.8940   -7.9495 H         1 <0>         0.0570
     51 H21        -0.2290   -6.0156  -11.3826 H         1 <0>         0.0625
     52 H22        -0.1039   -7.6872  -10.7838 H         1 <0>         0.0477
     53 H23        -1.2539   -6.5560  -10.0313 H         1 <0>         0.0546
@<TRIPOS>BOND
     1    1    2 1
     2    1   31 1
     3    1   32 1
     4    1   33 1
     5    2    3 2
     6    2    4 1
     7    4    9 ar
     8    4    5 ar
     9    5    6 ar
    10    5   34 1
    11    6    7 ar
    12    6   35 1
    13    7    8 ar
    14    7   11 1
    15    8    9 ar
    16    8   10 1
    17    9   36 1
    18   11   16 1
    19   11   12 1
    20   12   13 1
    21   12   37 1
    22   12   38 1
    23   13   14 1
    24   13   39 1
    25   13   40 1
    26   14   15 1
    27   14   17 am
    28   15   16 1
    29   15   41 1
    30   15   42 1
    31   16   43 1
    32   16   44 1
    33   17   18 2
    34   17   19 1
    35   19   24 ar
    36   19   20 ar
    37   20   21 ar
    38   20   45 1
    39   21   22 ar
    40   21   28 1
    41   22   23 ar
    42   22   46 1
    43   23   24 ar
    44   23   47 1
    45   24   25 1
    46   25   26 1
    47   25   27 1
    48   26   48 1
    49   26   49 1
    50   26   50 1
    51   27   51 1
    52   27   52 1
    53   27   53 1
    54   28   29 2
    55   28   30 1
@<TRIPOS>MOLECULE
ZINC40976841
   53    56     0     0     0
SMALL
USER_CHARGES

@<TRIPOS>ATOM
      1 C1          1.2040   -0.6630    0.0258 C.ar      1 <0>        -0.1875
      2 C2          2.3882    0.0476    0.0194 C.ar      1 <0>        -0.0583
      3 C3          2.3664    1.4311   -0.0012 C.ar      1 <0>        -0.0911
      4 C4          1.1587    2.1065   -0.0153 C.ar      1 <0>        -0.0582
      5 C5         -0.0286    1.4010   -0.0094 C.ar      1 <0>        -0.1868
      6 C6         -0.0097    0.0124    0.0113 C.ar      1 <0>         0.2230
      7 N1         -1.2095   -0.7040    0.0173 N.pl3     1 <0>        -0.6265
      8 C7         -2.4981   -0.0042    0.1155 C.3       1 <0>         0.1077
      9 C8         -3.3750   -0.4231   -1.0710 C.3       1 <0>         0.0980
     10 N2         -3.3708   -1.8898   -1.1633 N.am      1 <0>        -0.6051
     11 C9         -2.0823   -2.5897   -1.2615 C.3       1 <0>         0.0826
     12 C10        -1.2056   -2.1704   -0.0806 C.3       1 <0>         0.1083
     13 C11        -4.5280   -2.5807   -1.1574 C.2       1 <0>         0.5744
     14 O1         -5.5899   -1.9882   -1.1502 O.2       1 <0>        -0.5088
     15 C12        -4.5064   -4.0549   -1.1599 C.ar      1 <0>        -0.1389
     16 C13        -3.8110   -4.7462   -2.1554 C.ar      1 <0>        -0.0239
     17 C14        -3.7947   -6.1236   -2.1522 C.ar      1 <0>        -0.0558
     18 C15        -4.4650   -6.8297   -1.1655 C.ar      1 <0>        -0.0286
     19 C16        -5.1564   -6.1619   -0.1760 C.ar      1 <0>        -0.1264
     20 C17        -5.1792   -4.7726   -0.1590 C.ar      1 <0>         0.2758
     21 N3         -5.8690   -4.0980    0.8399 N.pl3     1 <0>        -0.6832
     22 C18        -7.2892   -3.7490    0.6768 C.3       1 <0>         0.1162
     23 C19        -8.0497   -4.2241    1.9201 C.3       1 <0>         0.0455
     24 O2         -7.4020   -3.7183    3.0899 O.3       1 <0>        -0.3770
     25 C20        -6.0635   -4.1882    3.2673 C.3       1 <0>         0.0480
     26 C21        -5.2028   -3.7163    2.0953 C.3       1 <0>         0.1110
     27 N4         -3.0578   -6.8536   -3.2082 N.pl3     1 <0>         0.0329
     28 O3         -2.4724   -6.2409   -4.0705 O.2       1 <0>        -0.1544
     29 O4         -3.0414   -8.0625   -3.2084 O.3       1 <0>        -0.1487
     30 Cl1         3.8569    2.3211   -0.0087 Cl        1 <0>        -0.0769
     31 H1          1.2216   -1.7427    0.0377 H         1 <0>         0.1309
     32 H2          3.3322   -0.4770    0.0307 H         1 <0>         0.1330
     33 H3          1.1446    3.1863   -0.0306 H         1 <0>         0.1331
     34 H4         -0.9709    1.9287   -0.0200 H         1 <0>         0.1320
     35 H5         -2.9915   -0.2754    1.0488 H         1 <0>         0.0701
     36 H6         -2.3326    1.0728    0.0859 H         1 <0>         0.0998
     37 H7         -4.3941   -0.0692   -0.9156 H         1 <0>         0.1064
     38 H8         -2.9736    0.0025   -1.9908 H         1 <0>         0.0778
     39 H9         -2.2477   -3.6666   -1.2318 H         1 <0>         0.0934
     40 H10        -1.5888   -2.3184   -2.1948 H         1 <0>         0.0841
     41 H11        -0.1868   -2.5237   -0.2397 H         1 <0>         0.0993
     42 H12        -1.6049   -2.5995    0.8384 H         1 <0>         0.0682
     43 H13        -3.2873   -4.2012   -2.9269 H         1 <0>         0.1589
     44 H14        -4.4462   -7.9095   -1.1717 H         1 <0>         0.1615
     45 H15        -5.6764   -6.7194    0.5890 H         1 <0>         0.1547
     46 H16        -7.3923   -2.6688    0.5738 H         1 <0>         0.0744
     47 H17        -7.6890   -4.2426   -0.2090 H         1 <0>         0.0793
     48 H18        -9.0746   -3.8550    1.8831 H         1 <0>         0.1040
     49 H19        -8.0551   -5.3137    1.9493 H         1 <0>         0.0533
     50 H20        -5.6596   -3.7934    4.1995 H         1 <0>         0.1031
     51 H21        -6.0617   -5.2777    3.3014 H         1 <0>         0.0543
     52 H22        -4.2217   -4.1882    2.1484 H         1 <0>         0.0776
     53 H23        -5.0923   -2.6328    2.1376 H         1 <0>         0.0632
@<TRIPOS>BOND
     1    1    6 ar
     2    1    2 ar
     3    1   31 1
     4    2    3 ar
     5    2   32 1
     6    3    4 ar
     7    3   30 1
     8    4    5 ar
     9    4   33 1
    10    5    6 ar
    11    5   34 1
    12    6    7 1
    13    7   12 1
    14    7    8 1
    15    8    9 1
    16    8   35 1
    17    8   36 1
    18    9   10 1
    19    9   37 1
    20    9   38 1
    21   10   11 1
    22   10   13 am
    23   11   12 1
    24   11   39 1
    25   11   40 1
    26   12   41 1
    27   12   42 1
    28   13   14 2
    29   13   15 1
    30   15   20 ar
    31   15   16 ar
    32   16   17 ar
    33   16   43 1
    34   17   18 ar
    35   17   27 1
    36   18   19 ar
    37   18   44 1
    38   19   20 ar
    39   19   45 1
    40   20   21 1
    41   21   26 1
    42   21   22 1
    43   22   23 1
    44   22   46 1
    45   22   47 1
    46   23   24 1
    47   23   48 1
    48   23   49 1
    49   24   25 1
    50   25   26 1
    51   25   50 1
    52   25   51 1
    53   26   52 1
    54   26   53 1
    55   27   28 2
    56   27   29 1
@<TRIPOS>MOLECULE
ZINC15014954
   53    56     0     0     0
SMALL
USER_CHARGES
[4-(3-chlorophenyl)piperazin-1-yl]-(2-morpholino-5-nitro-phenyl)methanone
@<TRIPOS>ATOM
      1 C1         -7.1260   -3.7190    3.7344 C.ar      1 <0>        -0.0781
      2 C2         -5.9383   -3.0162    3.6740 C.ar      1 <0>        -0.1663
      3 C3         -5.6060   -2.1277    4.6887 C.ar      1 <0>         0.1222
      4 C4         -6.4744   -1.9411    5.7566 C.ar      1 <0>        -0.1317
      5 C5         -7.6634   -2.6436    5.8089 C.ar      1 <0>        -0.0084
      6 C6         -7.9888   -3.5318    4.7982 C.ar      1 <0>        -0.1345
      7 Cl1        -8.7499   -2.4117    7.1429 Cl        1 <0>        -0.0639
      8 N1         -4.4037   -1.4191    4.6323 N.pl3     1 <0>        -0.4852
      9 C7         -3.6433   -1.7677    3.4248 C.3       1 <0>         0.0351
     10 C8         -2.2597   -1.1122    3.4895 C.3       1 <0>         0.1169
     11 N2         -2.4361    0.3299    3.7186 N.am      1 <0>        -0.6133
     12 C9         -3.2939    0.7574    4.8343 C.3       1 <0>         0.1006
     13 C10        -4.6415    0.0283    4.7130 C.3       1 <0>         0.0410
     14 C11        -1.8236    1.2356    2.9306 C.2       1 <0>         0.5708
     15 O1         -1.1737    0.8663    1.9714 O.2       1 <0>        -0.4996
     16 C12        -1.9414    2.6741    3.2315 C.ar      1 <0>        -0.1455
     17 C13        -3.2011    3.2706    3.3315 C.ar      1 <0>        -0.0061
     18 C14        -3.3043    4.6162    3.6073 C.ar      1 <0>        -0.0717
     19 C15        -2.1643    5.3829    3.7914 C.ar      1 <0>        -0.0075
     20 C16        -0.9135    4.8079    3.7007 C.ar      1 <0>        -0.1719
     21 C17        -0.7891    3.4520    3.4233 C.ar      1 <0>         0.2074
     22 N3          0.4688    2.8710    3.3305 N.pl3     1 <0>        -0.4792
     23 C18         1.5222    3.8964    3.3068 C.3       1 <0>         0.0067
     24 C19         2.8846    3.2169    3.1452 C.3       1 <0>         0.0621
     25 O2          3.0704    2.2730    4.2034 O.3       1 <0>        -0.3783
     26 C20         2.0624    1.2597    4.2546 C.3       1 <0>         0.0636
     27 C21         0.6918    1.9192    4.4286 C.3       1 <0>         0.0225
     28 N4         -4.6397    5.2469    3.7070 N.pl3     1 <0>         0.0314
     29 O3         -4.7346    6.4366    3.9504 O.2       1 <0>        -0.1539
     30 O4         -5.6435    4.5762    3.5459 O.3       1 <0>        -0.1598
     31 H1         -7.3827   -4.4126    2.9474 H         1 <0>         0.1343
     32 H2         -5.2670   -3.1602    2.8404 H         1 <0>         0.1334
     33 H3         -6.2206   -1.2482    6.5453 H         1 <0>         0.1362
     34 H4         -8.9187   -4.0792    4.8406 H         1 <0>         0.1341
     35 H5         -4.1751   -1.4084    2.5437 H         1 <0>         0.0563
     36 H6         -3.5305   -2.8502    3.3658 H         1 <0>         0.1014
     37 H7         -1.7345   -1.2717    2.5478 H         1 <0>         0.1051
     38 H8         -1.6841   -1.5452    4.3076 H         1 <0>         0.0828
     39 H9         -2.8188    0.5000    5.7809 H         1 <0>         0.0867
     40 H10        -3.4528    1.8345    4.7821 H         1 <0>         0.0925
     41 H11        -5.1594    0.3625    3.8140 H         1 <0>         0.0564
     42 H12        -5.2526    0.2483    5.5883 H         1 <0>         0.1005
     43 H13        -4.0927    2.6781    3.1886 H         1 <0>         0.1597
     44 H14        -2.2558    6.4372    4.0068 H         1 <0>         0.1619
     45 H15        -0.0302    5.4123    3.8451 H         1 <0>         0.1596
     46 H16         1.5040    4.4577    4.2409 H         1 <0>         0.0657
     47 H17         1.3522    4.5745    2.4705 H         1 <0>         0.1010
     48 H18         3.6731    3.9683    3.1851 H         1 <0>         0.1095
     49 H19         2.9222    2.7004    2.1860 H         1 <0>         0.0668
     50 H20         2.0754    0.6862    3.3278 H         1 <0>         0.0682
     51 H21         2.2568    0.5952    5.0965 H         1 <0>         0.1082
     52 H22        -0.0849    1.1547    4.4108 H         1 <0>         0.0917
     53 H23         0.6607    2.4485    5.3810 H         1 <0>         0.0627
@<TRIPOS>BOND
     1    1    6 ar
     2    1    2 ar
     3    1   31 1
     4    2    3 ar
     5    2   32 1
     6    3    4 ar
     7    3    8 1
     8    4    5 ar
     9    4   33 1
    10    5    6 ar
    11    5    7 1
    12    6   34 1
    13    8   13 1
    14    8    9 1
    15    9   10 1
    16    9   35 1
    17    9   36 1
    18   10   11 1
    19   10   37 1
    20   10   38 1
    21   11   12 1
    22   11   14 am
    23   12   13 1
    24   12   39 1
    25   12   40 1
    26   13   41 1
    27   13   42 1
    28   14   15 2
    29   14   16 1
    30   16   21 ar
    31   16   17 ar
    32   17   18 ar
    33   17   43 1
    34   18   19 ar
    35   18   28 1
    36   19   20 ar
    37   19   44 1
    38   20   21 ar
    39   20   45 1
    40   21   22 1
    41   22   27 1
    42   22   23 1
    43   23   24 1
    44   23   46 1
    45   23   47 1
    46   24   25 1
    47   24   48 1
    48   24   49 1
    49   25   26 1
    50   26   27 1
    51   26   50 1
    52   26   51 1
    53   27   52 1
    54   27   53 1
    55   28   29 2
    56   28   30 1
@<TRIPOS>MOLECULE
ZINC16263494
   50    52     0     0     0
SMALL
USER_CHARGES
1-[3-fluoro-4-[4-(2-methylamino-5-nitro-benzoyl)piperazin-1-yl]phenyl]ethanone
@<TRIPOS>ATOM
      1 C1          8.9915    8.7399   -4.8765 C.3       1 <0>        -0.1940
      2 C2          7.7269    8.0134   -5.2561 C.2       1 <0>         0.3950
      3 O1          7.3961    7.9397   -6.4210 O.2       1 <0>        -0.4495
      4 C3          6.8955    7.3953   -4.2167 C.ar      1 <0>        -0.1430
      5 C4          5.6626    6.8216   -4.5526 C.ar      1 <0>        -0.0613
      6 C5          4.8897    6.2462   -3.5852 C.ar      1 <0>        -0.1318
      7 C6          5.3215    6.2268   -2.2618 C.ar      1 <0>         0.0833
      8 C7          6.5449    6.8001   -1.9149 C.ar      1 <0>         0.1183
      9 C8          7.3333    7.3770   -2.8856 C.ar      1 <0>        -0.1043
     10 F1          6.9586    6.7845   -0.6289 F         1 <0>        -0.1196
     11 N1          4.5286    5.6394   -1.2824 N.pl3     1 <0>        -0.5008
     12 C9          3.2212    6.3036   -1.1952 C.3       1 <0>         0.0462
     13 C10         2.4505    5.7510    0.0085 C.3       1 <0>         0.1163
     14 N2          2.3973    4.2854   -0.1036 N.am      1 <0>        -0.6055
     15 C11         3.6565    3.5583   -0.3244 C.3       1 <0>         0.1052
     16 C12         4.3790    4.1977   -1.5209 C.3       1 <0>         0.0471
     17 C13         1.2264    3.6259   -0.0011 C.2       1 <0>         0.5756
     18 O2          0.1841    4.2467    0.0818 O.2       1 <0>        -0.5329
     19 C14         1.2093    2.1517    0.0104 C.ar      1 <0>        -0.2189
     20 C15         2.0778    1.4450    0.8464 C.ar      1 <0>         0.0287
     21 C16         2.0575    0.0677    0.8518 C.ar      1 <0>        -0.1122
     22 C17         1.1790   -0.6231    0.0320 C.ar      1 <0>         0.0152
     23 C18         0.3150    0.0599   -0.7987 C.ar      1 <0>        -0.1990
     24 C19         0.3209    1.4494   -0.8186 C.ar      1 <0>         0.3090
     25 N3         -0.5436    2.1392   -1.6584 N.pl3     1 <0>        -0.7150
     26 C20        -1.3836    1.4051   -2.6080 C.3       1 <0>         0.0760
     27 N4          2.9792   -0.6786    1.7376 N.pl3     1 <0>         0.0393
     28 O3          2.9643   -1.8965    1.7447 O.2       1 <0>        -0.1669
     29 O4          3.7526   -0.0748    2.4593 O.3       1 <0>        -0.1705
     30 H1          9.1549    8.6344   -3.8956 H         1 <0>         0.0753
     31 H2          9.8312    8.3220   -5.4318 H         1 <0>         0.0976
     32 H3          8.8883    9.7983   -5.1159 H         1 <0>         0.0998
     33 H4          5.3228    6.8347   -5.5777 H         1 <0>         0.1413
     34 H5          3.9396    5.8048   -3.8476 H         1 <0>         0.1343
     35 H6          8.2830    7.8179   -2.6212 H         1 <0>         0.1532
     36 H7          2.6554    6.1142   -2.1074 H         1 <0>         0.0487
     37 H8          3.3660    7.3770   -1.0728 H         1 <0>         0.0957
     38 H9          1.4381    6.1550    0.0119 H         1 <0>         0.1046
     39 H10         2.9620    6.0294    0.9299 H         1 <0>         0.0856
     40 H11         4.2817    3.6300    0.5656 H         1 <0>         0.0908
     41 H12         3.4419    2.5118   -0.5412 H         1 <0>         0.0941
     42 H13         3.7971    4.0376   -2.4286 H         1 <0>         0.0490
     43 H14         5.3634    3.7437   -1.6346 H         1 <0>         0.0957
     44 H15         2.7647    1.9781    1.4870 H         1 <0>         0.1572
     45 H16         1.1711   -1.7030    0.0433 H         1 <0>         0.1584
     46 H17        -0.3665   -0.4857   -1.4345 H         1 <0>         0.1531
     47 H18        -0.5912    3.1071   -1.6163 H         1 <0>         0.4169
     48 H19        -1.9904    2.1098   -3.1765 H         1 <0>         0.0858
     49 H20        -0.7503    0.8380   -3.2903 H         1 <0>         0.0662
     50 H21        -2.0349    0.7213   -2.0637 H         1 <0>         0.0672
@<TRIPOS>BOND
     1    1    2 1
     2    1   30 1
     3    1   31 1
     4    1   32 1
     5    2    3 2
     6    2    4 1
     7    4    9 ar
     8    4    5 ar
     9    5    6 ar
    10    5   33 1
    11    6    7 ar
    12    6   34 1
    13    7    8 ar
    14    7   11 1
    15    8    9 ar
    16    8   10 1
    17    9   35 1
    18   11   16 1
    19   11   12 1
    20   12   13 1
    21   12   36 1
    22   12   37 1
    23   13   14 1
    24   13   38 1
    25   13   39 1
    26   14   15 1
    27   14   17 am
    28   15   16 1
    29   15   40 1
    30   15   41 1
    31   16   42 1
    32   16   43 1
    33   17   18 2
    34   17   19 1
    35   19   24 ar
    36   19   20 ar
    37   20   21 ar
    38   20   44 1
    39   21   22 ar
    40   21   27 1
    41   22   23 ar
    42   22   45 1
    43   23   24 ar
    44   23   46 1
    45   24   25 1
    46   25   26 1
    47   25   47 1
    48   26   48 1
    49   26   49 1
    50   26   50 1
    51   27   28 2
    52   27   29 1
@<TRIPOS>MOLECULE
ZINC22146623
   58    61     0     0     0
SMALL
USER_CHARGES
1-[3-fluoro-4-[4-(2-morpholino-5-nitro-benzoyl)piperazin-1-yl]phenyl]ethanone
@<TRIPOS>ATOM
      1 C1         -9.4898   -5.2745    5.9420 C.3       1 <0>        -0.2065
      2 C2         -9.2508   -4.2679    4.8462 C.2       1 <0>         0.3959
      3 O1        -10.1048   -4.0698    4.0077 O.2       1 <0>        -0.4495
      4 C3         -7.9850   -3.5273    4.7936 C.ar      1 <0>        -0.1423
      5 C4         -7.7155   -2.6729    3.7168 C.ar      1 <0>        -0.0605
      6 C5         -6.5378   -1.9837    3.6685 C.ar      1 <0>        -0.1305
      7 C6         -5.5995   -2.1262    4.6871 C.ar      1 <0>         0.0830
      8 C7         -5.8548   -2.9786    5.7614 C.ar      1 <0>         0.1170
      9 C8         -7.0427   -3.6725    5.8207 C.ar      1 <0>        -0.1056
     10 F1         -4.9398   -3.1189    6.7455 F         1 <0>        -0.1214
     11 N1         -4.4025   -1.4213    4.6305 N.pl3     1 <0>        -0.4998
     12 C9         -3.6402   -1.7742    3.4254 C.3       1 <0>         0.0429
     13 C10        -2.2565   -1.1190    3.4901 C.3       1 <0>         0.1166
     14 N2         -2.4328    0.3239    3.7141 N.am      1 <0>        -0.6118
     15 C11        -3.2923    0.7554    4.8270 C.3       1 <0>         0.1010
     16 C12        -4.6399    0.0264    4.7060 C.3       1 <0>         0.0439
     17 C13        -1.8187    1.2268    2.9241 C.2       1 <0>         0.5704
     18 O2         -1.1676    0.8541    1.9671 O.2       1 <0>        -0.5002
     19 C14        -1.9365    2.6663    3.2201 C.ar      1 <0>        -0.1453
     20 C15        -3.1961    3.2637    3.3160 C.ar      1 <0>        -0.0060
     21 C16        -3.2991    4.6102    3.5872 C.ar      1 <0>        -0.0721
     22 C17        -2.1591    5.3771    3.7706 C.ar      1 <0>        -0.0077
     23 C18        -0.9085    4.8013    3.6839 C.ar      1 <0>        -0.1720
     24 C19        -0.7842    3.4444    3.4111 C.ar      1 <0>         0.2077
     25 N3          0.4736    2.8626    3.3224 N.pl3     1 <0>        -0.4788
     26 C20         1.5275    3.8874    3.2967 C.3       1 <0>         0.0050
     27 C21         2.8898    3.2068    3.1396 C.3       1 <0>         0.0602
     28 O3          3.0736    2.2665    4.2013 O.3       1 <0>        -0.3780
     29 C22         2.0651    1.2538    4.2545 C.3       1 <0>         0.0617
     30 C23         0.6945    1.9145    4.4240 C.3       1 <0>         0.0211
     31 N4         -4.6344    5.2418    3.6827 N.pl3     1 <0>         0.0316
     32 O4         -4.7293    6.4323    3.9220 O.2       1 <0>        -0.1540
     33 O5         -5.6383    4.5710    3.5221 O.3       1 <0>        -0.1606
     34 H1         -8.6099   -5.3150    6.6009 H         1 <0>         0.0848
     35 H2         -9.6613   -6.2662    5.4979 H         1 <0>         0.0999
     36 H3        -10.3726   -4.9770    6.5269 H         1 <0>         0.0999
     37 H4         -8.4399   -2.5594    2.9238 H         1 <0>         0.1420
     38 H5         -6.3333   -1.3258    2.8368 H         1 <0>         0.1360
     39 H6         -7.2454   -4.3300    6.6532 H         1 <0>         0.1531
     40 H7         -3.5275   -2.8670    3.3698 H         1 <0>         0.0967
     41 H8         -4.1760   -1.4150    2.5343 H         1 <0>         0.0511
     42 H9         -1.6806   -1.5595    4.3173 H         1 <0>         0.0840
     43 H10        -1.7254   -1.2894    2.5420 H         1 <0>         0.1056
     44 H11        -2.8102    0.5012    5.7825 H         1 <0>         0.0873
     45 H12        -3.4454    1.8433    4.7716 H         1 <0>         0.0925
     46 H13        -5.1594    0.3607    3.7959 H         1 <0>         0.0529
     47 H14        -5.2607    0.2508    5.5859 H         1 <0>         0.0977
     48 H15        -4.0877    2.6711    3.1736 H         1 <0>         0.1595
     49 H16        -2.2506    6.4321    3.9825 H         1 <0>         0.1617
     50 H17        -0.0251    5.4058    3.8278 H         1 <0>         0.1596
     51 H18         1.3560    4.5686    2.4502 H         1 <0>         0.1018
     52 H19         1.5069    4.4583    4.2367 H         1 <0>         0.0661
     53 H20         2.9287    2.6831    2.1730 H         1 <0>         0.0674
     54 H21         3.6853    3.9655    3.1778 H         1 <0>         0.1106
     55 H22         2.0807    0.6714    3.3214 H         1 <0>         0.0689
     56 H23         2.2604    0.5862    5.1067 H         1 <0>         0.1095
     57 H24         0.6607    2.4523    5.3830 H         1 <0>         0.0631
     58 H25        -0.0905    1.1442    4.4078 H         1 <0>         0.0929
@<TRIPOS>BOND
     1    1    2 1
     2    1   34 1
     3    1   35 1
     4    1   36 1
     5    2    3 2
     6    2    4 1
     7    4    9 ar
     8    4    5 ar
     9    5    6 ar
    10    5   37 1
    11    6    7 ar
    12    6   38 1
    13    7    8 ar
    14    7   11 1
    15    8    9 ar
    16    8   10 1
    17    9   39 1
    18   11   16 1
    19   11   12 1
    20   12   13 1
    21   12   40 1
    22   12   41 1
    23   13   14 1
    24   13   42 1
    25   13   43 1
    26   14   15 1
    27   14   17 am
    28   15   16 1
    29   15   44 1
    30   15   45 1
    31   16   46 1
    32   16   47 1
    33   17   18 2
    34   17   19 1
    35   19   24 ar
    36   19   20 ar
    37   20   21 ar
    38   20   48 1
    39   21   22 ar
    40   21   31 1
    41   22   23 ar
    42   22   49 1
    43   23   24 ar
    44   23   50 1
    45   24   25 1
    46   25   30 1
    47   25   26 1
    48   26   27 1
    49   26   51 1
    50   26   52 1
    51   27   28 1
    52   27   53 1
    53   27   54 1
    54   28   29 1
    55   29   30 1
    56   29   55 1
    57   29   56 1
    58   30   57 1
    59   30   58 1
    60   31   32 2
    61   31   33 1
@<TRIPOS>MOLECULE
ZINC00591392
   63    65     0     0     0
SMALL
USER_CHARGES

@<TRIPOS>ATOM
      1 C1         -1.3425   -0.1368    0.0162 C.3       1 <0>        -0.0599
      2 N1          0.1022    0.1290   -0.0012 N.4       1 <0>        -0.3809
      3 C2          0.7031   -0.3486    1.2512 C.3       1 <0>        -0.0603
      4 C3          0.7154   -0.5721   -1.1372 C.3       1 <0>         0.0381
      5 C4          2.2442   -0.3659   -1.1225 C.3       1 <0>        -0.1372
      6 C5          2.7901   -1.6229   -0.4006 C.3       1 <0>        -0.1380
      7 C6          1.8660   -2.7484   -0.9282 C.3       1 <0>        -0.1272
      8 C7          0.4750   -2.0869   -1.0136 C.3       1 <0>        -0.1345
      9 C8          0.1282   -0.0537   -2.4514 C.3       1 <0>         0.1080
     10 N2          0.3448    1.3920   -2.5465 N.am      1 <0>        -0.7478
     11 C9         -0.0080    2.0542   -3.6661 C.2       1 <0>         0.5730
     12 O1         -0.5061    1.4516   -4.5973 O.2       1 <0>        -0.5036
     13 C10         0.2103    3.5109   -3.7619 C.ar      1 <0>        -0.0752
     14 C11         0.7878    4.2035   -2.6949 C.ar      1 <0>        -0.2073
     15 C12         0.9915    5.5676   -2.7872 C.ar      1 <0>         0.1454
     16 C13         0.6214    6.2514   -3.9422 C.ar      1 <0>         0.0685
     17 C14         0.0452    5.5635   -5.0068 C.ar      1 <0>         0.1495
     18 C15        -0.1550    4.1984   -4.9219 C.ar      1 <0>        -0.1664
     19 O2         -0.3157    6.2344   -6.1335 O.3       1 <0>        -0.2936
     20 C16        -0.9012    5.4660   -7.1865 C.3       1 <0>         0.0196
     21 O3          0.8223    7.5925   -4.0303 O.3       1 <0>        -0.3022
     22 C17         2.0744    8.0271   -4.5647 C.3       1 <0>         0.1113
     23 C18         2.1160    9.5334   -4.5852 C.ar      1 <0>        -0.0976
     24 C19         1.6606   10.2223   -5.6938 C.ar      1 <0>        -0.0931
     25 C20         1.6988   11.6040   -5.7126 C.ar      1 <0>        -0.1231
     26 C21         2.1920   12.2968   -4.6228 C.ar      1 <0>        -0.1077
     27 C22         2.6466   11.6079   -3.5139 C.ar      1 <0>        -0.1243
     28 C23         2.6044   10.2263   -3.4934 C.ar      1 <0>        -0.0943
     29 O4          1.5537    6.2424   -1.7488 O.3       1 <0>        -0.2928
     30 C24         1.9087    5.4783   -0.5947 C.3       1 <0>         0.0228
     31 H1         -1.8022    0.2954   -0.8726 H         1 <0>         0.1253
     32 H2         -1.5137   -1.2132    0.0270 H         1 <0>         0.1290
     33 H3         -1.7834    0.3103    0.9072 H         1 <0>         0.1299
     34 H4          0.5321   -1.4205    1.3507 H         1 <0>         0.1285
     35 H5          1.7750   -0.1514    1.2383 H         1 <0>         0.1293
     36 H6          0.2481    0.1717    2.0941 H         1 <0>         0.1277
     37 H7          2.6316   -0.3119   -2.1399 H         1 <0>         0.1147
     38 H8          2.5022    0.5355   -0.5667 H         1 <0>         0.0866
     39 H9          3.8264   -1.8103   -0.6818 H         1 <0>         0.0937
     40 H10         2.6946   -1.5196    0.6803 H         1 <0>         0.0799
     41 H11         2.1923   -3.0791   -1.9142 H         1 <0>         0.0870
     42 H12         1.8481   -3.5857   -0.2305 H         1 <0>         0.0891
     43 H13        -0.0967   -2.3018   -0.1108 H         1 <0>         0.0927
     44 H14        -0.0593   -2.4529   -1.8903 H         1 <0>         0.1080
     45 H15         0.6179   -0.5503   -3.2891 H         1 <0>         0.1182
     46 H16        -0.9411   -0.2635   -2.4794 H         1 <0>         0.0967
     47 H17         0.7421    1.8728   -1.8036 H         1 <0>         0.3919
     48 H18         1.0744    3.6737   -1.7985 H         1 <0>         0.1284
     49 H19        -0.5975    3.6645   -5.7498 H         1 <0>         0.1529
     50 H20        -1.1416    6.1211   -8.0238 H         1 <0>         0.1112
     51 H21        -0.1964    4.7018   -7.5138 H         1 <0>         0.0617
     52 H22        -1.8123    4.9892   -6.8250 H         1 <0>         0.0623
     53 H23         2.8857    7.6497   -3.9423 H         1 <0>         0.0628
     54 H24         2.1879    7.6466   -5.5798 H         1 <0>         0.0643
     55 H25         1.2752    9.6811   -6.5452 H         1 <0>         0.1243
     56 H26         1.3436   12.1423   -6.5790 H         1 <0>         0.1261
     57 H27         2.2225   13.3762   -4.6379 H         1 <0>         0.1253
     58 H28         3.0323   12.1491   -2.6626 H         1 <0>         0.1253
     59 H29         2.9562    9.6882   -2.6255 H         1 <0>         0.1226
     60 H30         2.6337    4.7138   -0.8740 H         1 <0>         0.0556
     61 H31         2.3456    6.1363    0.1565 H         1 <0>         0.1097
     62 H32         1.0175    5.0018   -0.1862 H         1 <0>         0.0536
     63 H33         0.2605    1.1213   -0.0933 H         1 <0>         0.4166
@<TRIPOS>BOND
     1    1    2 1
     2    1   31 1
     3    1   32 1
     4    1   33 1
     5    2    3 1
     6    2    4 1
     7    2   63 1
     8    3   34 1
     9    3   35 1
    10    3   36 1
    11    4    8 1
    12    4    5 1
    13    4    9 1
    14    5    6 1
    15    5   37 1
    16    5   38 1
    17    6    7 1
    18    6   39 1
    19    6   40 1
    20    7    8 1
    21    7   41 1
    22    7   42 1
    23    8   43 1
    24    8   44 1
    25    9   10 1
    26    9   45 1
    27    9   46 1
    28   10   11 am
    29   10   47 1
    30   11   12 2
    31   11   13 1
    32   13   18 ar
    33   13   14 ar
    34   14   15 ar
    35   14   48 1
    36   15   16 ar
    37   15   29 1
    38   16   17 ar
    39   16   21 1
    40   17   18 ar
    41   17   19 1
    42   18   49 1
    43   19   20 1
    44   20   50 1
    45   20   51 1
    46   20   52 1
    47   21   22 1
    48   22   23 1
    49   22   53 1
    50   22   54 1
    51   23   28 ar
    52   23   24 ar
    53   24   25 ar
    54   24   55 1
    55   25   26 ar
    56   25   56 1
    57   26   27 ar
    58   26   57 1
    59   27   28 ar
    60   27   58 1
    61   28   59 1
    62   29   30 1
    63   30   60 1
    64   30   61 1
    65   30   62 1
@<TRIPOS>MOLECULE
ZINC08388791
   57    58     0     0     0
SMALL
USER_CHARGES
4-butoxy-N-[(1-dimethylaminocyclohexyl)methyl]benzamide
@<TRIPOS>ATOM
      1 C1         -1.0040   11.8797   -1.8093 C.3       1 <0>        -0.1550
      2 C2         -0.9987   10.3904   -1.4586 C.3       1 <0>        -0.1203
      3 C3         -1.5216    9.5843   -2.6493 C.3       1 <0>        -0.1229
      4 C4         -1.5163    8.0951   -2.2987 C.3       1 <0>         0.0561
      5 O1         -2.0046    7.3422   -3.4108 O.3       1 <0>        -0.3051
      6 C5         -2.0646    5.9944   -3.2637 C.ar      1 <0>         0.1743
      7 C6         -2.5302    5.2032   -4.3074 C.ar      1 <0>        -0.1569
      8 C7         -2.5930    3.8354   -4.1619 C.ar      1 <0>        -0.0100
      9 C8         -2.1876    3.2428   -2.9631 C.ar      1 <0>        -0.1933
     10 C9         -1.7251    4.0421   -1.9144 C.ar      1 <0>        -0.0449
     11 C10        -1.6599    5.4088   -2.0698 C.ar      1 <0>        -0.2192
     12 C11        -2.2532    1.7770   -2.8029 C.2       1 <0>         0.5743
     13 O2         -2.6606    1.0834   -3.7147 O.2       1 <0>        -0.5128
     14 N1         -1.8617    1.2073   -1.6459 N.am      1 <0>        -0.7519
     15 C12        -1.9269   -0.2476   -1.4869 C.3       1 <0>         0.0996
     16 C13        -1.3551   -0.6377   -0.1225 C.3       1 <0>         0.0504
     17 C14        -2.2495   -0.0763    0.9847 C.3       1 <0>        -0.1354
     18 C15        -3.6606   -0.6497    0.8402 C.3       1 <0>        -0.1204
     19 C16        -3.6055   -2.1745    0.9531 C.3       1 <0>        -0.1301
     20 C17        -2.7111   -2.7359   -0.1540 C.3       1 <0>        -0.1226
     21 C18        -1.3000   -2.1625   -0.0096 C.3       1 <0>        -0.1273
     22 C19         0.5599   -0.3941    1.3391 C.3       1 <0>        -0.0514
     23 C20         0.8789   -0.5764   -1.0541 C.3       1 <0>        -0.0529
     24 H1         -0.6315   12.4540   -0.9610 H         1 <0>         0.0599
     25 H2         -0.3631   12.0517   -2.6740 H         1 <0>         0.0577
     26 H3         -2.0212   12.1945   -2.0426 H         1 <0>         0.0579
     27 H4         -1.6396   10.2185   -0.5939 H         1 <0>         0.0650
     28 H5          0.0184   10.0757   -1.2253 H         1 <0>         0.0646
     29 H6         -0.8806    9.7563   -3.5141 H         1 <0>         0.0773
     30 H7         -2.5387    9.8991   -2.8826 H         1 <0>         0.0776
     31 H8         -2.1572    7.9231   -1.4340 H         1 <0>         0.0667
     32 H9         -0.4991    7.7803   -2.0654 H         1 <0>         0.0662
     33 H10        -2.8434    5.6620   -5.2336 H         1 <0>         0.1452
     34 H11        -2.9549    3.2213   -4.9733 H         1 <0>         0.1468
     35 H12        -1.4151    3.5882   -0.9847 H         1 <0>         0.1184
     36 H13        -1.2981    6.0268   -1.2614 H         1 <0>         0.1376
     37 H14        -1.5367    1.7606   -0.9185 H         1 <0>         0.3903
     38 H15        -1.3449   -0.7257   -2.2749 H         1 <0>         0.0981
     39 H16        -2.9647   -0.5742   -1.5528 H         1 <0>         0.1178
     40 H17        -1.8421   -0.3542    1.9568 H         1 <0>         0.0946
     41 H18        -2.2888    1.0100    0.9043 H         1 <0>         0.0830
     42 H19        -4.0680   -0.3718   -0.1318 H         1 <0>         0.0771
     43 H20        -4.2978   -0.2498    1.6290 H         1 <0>         0.0872
     44 H21        -4.6108   -2.5830    0.8502 H         1 <0>         0.0819
     45 H22        -3.1982   -2.4524    1.9252 H         1 <0>         0.0717
     46 H23        -3.1185   -2.4580   -1.1261 H         1 <0>         0.0777
     47 H24        -2.6719   -3.8222   -0.0736 H         1 <0>         0.0890
     48 H25        -0.6628   -2.5624   -0.7983 H         1 <0>         0.0912
     49 H26        -0.8926   -2.4404    0.9625 H         1 <0>         0.0942
     50 H27         1.5746   -0.0014    1.4041 H         1 <0>         0.1262
     51 H28        -0.0577    0.0657    2.1107 H         1 <0>         0.1239
     52 H29         0.5783   -1.4742    1.4842 H         1 <0>         0.1280
     53 H30         0.9371   -1.6639   -1.0079 H         1 <0>         0.1290
     54 H31         0.4765   -0.2749   -2.0212 H         1 <0>         0.1229
     55 H32         1.8755   -0.1535   -0.9275 H         1 <0>         0.1268
     56 N2         -0.0020   -0.0586    0.0138 N.4       1 <0>        -0.3941
     57 H33        -0.0660    0.9625   -0.0726 H         1 <0>         0.4202
@<TRIPOS>BOND
     1    1    2 1
     2    1   24 1
     3    1   25 1
     4    1   26 1
     5    2    3 1
     6    2   27 1
     7    2   28 1
     8    3    4 1
     9    3   29 1
    10    3   30 1
    11    4    5 1
    12    4   31 1
    13    4   32 1
    14    5    6 1
    15    6   11 ar
    16    6    7 ar
    17    7    8 ar
    18    7   33 1
    19    8    9 ar
    20    8   34 1
    21    9   10 ar
    22    9   12 1
    23   10   11 ar
    24   10   35 1
    25   11   36 1
    26   12   13 2
    27   12   14 am
    28   14   15 1
    29   14   37 1
    30   15   16 1
    31   15   38 1
    32   15   39 1
    33   16   21 1
    34   16   17 1
    35   16   56 1
    36   17   18 1
    37   17   40 1
    38   17   41 1
    39   18   19 1
    40   18   42 1
    41   18   43 1
    42   19   20 1
    43   19   44 1
    44   19   45 1
    45   20   21 1
    46   20   46 1
    47   20   47 1
    48   21   48 1
    49   21   49 1
    50   22   50 1
    51   22   51 1
    52   22   52 1
    53   22   56 1
    54   23   53 1
    55   23   54 1
    56   23   55 1
    57   23   56 1
    58   56   57 1
