@<TRIPOS>MOLECULE
ZINC03201907
   46    49     0     0     0
SMALL
USER_CHARGES

@<TRIPOS>ATOM
      1 C1         -0.0178    1.4648    0.0101 C.3       1 <0>        -0.0541
      2 N1          0.0021   -0.0041    0.0020 N.4       1 <0>        -0.3704
      3 C2         -1.3750   -0.4988    0.0701 C.3       1 <0>        -0.0155
      4 C3         -1.3740   -2.0327    0.0720 C.3       1 <0>        -0.1325
      5 C4         -0.6000   -2.4924    1.3162 C.3       1 <0>        -0.0191
      6 C5         -0.6317   -4.0111    1.4284 C.3       1 <0>        -0.1087
      7 C6          0.1733   -4.4520    2.6537 C.3       1 <0>        -0.1256
      8 C7          1.6184   -3.9692    2.5143 C.3       1 <0>        -0.1195
      9 C8          1.6413   -2.4424    2.4159 C.3       1 <0>        -0.1147
     10 C9          0.8433   -1.9991    1.1883 C.3       1 <0>        -0.0848
     11 H1          1.2952   -2.4125    0.2866 H         1 <0>         0.1023
     12 C10         0.8089   -0.4721    1.1198 C.3       1 <0>         0.0267
     13 H2          1.8300   -0.1263    0.9584 H         1 <0>         0.1343
     14 C11         0.3561    0.0989    2.4510 C.3       1 <0>        -0.0880
     15 C12        -0.8070   -0.6582    3.0329 C.ar      1 <0>        -0.1438
     16 C13        -1.2457   -1.8607    2.5233 C.ar      1 <0>        -0.0305
     17 C14        -2.3081   -2.5221    3.1185 C.ar      1 <0>        -0.1475
     18 C15        -2.9456   -1.9742    4.2198 C.ar      1 <0>         0.1453
     19 C16        -2.5143   -0.7560    4.7243 C.ar      1 <0>        -0.2001
     20 C17        -1.4521   -0.1058    4.1333 C.ar      1 <0>        -0.0688
     21 O1         -3.9867   -2.6255    4.8018 O.3       1 <0>        -0.3119
     22 C18        -4.5935   -1.9982    5.9333 C.3       1 <0>         0.0236
     23 H3          1.0041    1.8418    0.0487 H         1 <0>         0.1253
     24 H4         -0.5046    1.8265   -0.8956 H         1 <0>         0.1263
     25 H5         -0.5678    1.8159    0.8832 H         1 <0>         0.1235
     26 H6         -1.8462   -0.1353    0.9832 H         1 <0>         0.1323
     27 H7         -1.9332   -0.1377   -0.7937 H         1 <0>         0.1313
     28 H8         -2.3981   -2.4035    0.1152 H         1 <0>         0.1146
     29 H9         -0.8828   -2.4037   -0.8275 H         1 <0>         0.0950
     30 H10        -1.6637   -4.3460    1.5323 H         1 <0>         0.0783
     31 H11        -0.1965   -4.4505    0.5308 H         1 <0>         0.0756
     32 H12        -0.2684   -4.0221    3.5527 H         1 <0>         0.0693
     33 H13         0.1589   -5.5395    2.7259 H         1 <0>         0.0726
     34 H14         2.1924   -4.2855    3.3853 H         1 <0>         0.0732
     35 H15         2.0591   -4.3977    1.6142 H         1 <0>         0.0669
     36 H16         1.1954   -2.0136    3.3134 H         1 <0>         0.0798
     37 H17         2.6718   -2.0996    2.3226 H         1 <0>         0.0738
     38 H18         1.1889    0.0610    3.1532 H         1 <0>         0.1169
     39 H19         0.0642    1.1393    2.3081 H         1 <0>         0.0939
     40 H20        -2.6412   -3.4697    2.7215 H         1 <0>         0.1386
     41 H21        -3.0097   -0.3180    5.5782 H         1 <0>         0.1351
     42 H22        -1.1179    0.8418    4.5290 H         1 <0>         0.1291
     43 H23        -3.8503   -1.8717    6.7206 H         1 <0>         0.0602
     44 H24        -4.9840   -1.0231    5.6422 H         1 <0>         0.0594
     45 H25        -5.4090   -2.6214    6.3003 H         1 <0>         0.1083
     46 H26         0.4207   -0.3210   -0.8596 H         1 <0>         0.4244
@<TRIPOS>BOND
     1    1    2 1
     2    1   23 1
     3    1   24 1
     4    1   25 1
     5    2   12 1
     6    2    3 1
     7    2   46 1
     8    3    4 1
     9    3   26 1
    10    3   27 1
    11    4    5 1
    12    4   28 1
    13    4   29 1
    14    5   10 1
    15    5   16 1
    16    5    6 1
    17    6    7 1
    18    6   30 1
    19    6   31 1
    20    7    8 1
    21    7   32 1
    22    7   33 1
    23    8    9 1
    24    8   34 1
    25    8   35 1
    26    9   10 1
    27    9   36 1
    28    9   37 1
    29   10   11 1
    30   10   12 1
    31   12   13 1
    32   12   14 1
    33   14   15 1
    34   14   38 1
    35   14   39 1
    36   15   20 ar
    37   15   16 ar
    38   16   17 ar
    39   17   18 ar
    40   17   40 1
    41   18   19 ar
    42   18   21 1
    43   19   20 ar
    44   19   41 1
    45   20   42 1
    46   21   22 1
    47   22   43 1
    48   22   44 1
    49   22   45 1
@<TRIPOS>MOLECULE
ZINC13733884
   60    62     0     0     0
SMALL
USER_CHARGES
N-[3-[(2R,6R)-2,6-dimethyl-1-piperidyl]propyl]-2,2-diphenyl-acetamide
@<TRIPOS>ATOM
      1 C1          1.0848    2.4595    1.5700 C.3       1 <0>        -0.1849
      2 C2          0.4400    2.8538    2.9003 C.3       1 <0>         0.0271
      3 H1         -0.6446    2.7940    2.8100 H         1 <0>         0.1396
      4 C3          0.8435    4.2861    3.2578 C.3       1 <0>        -0.1407
      5 C4          0.2124    4.6693    4.5992 C.3       1 <0>        -0.1401
      6 C5          0.6633    3.6719    5.6699 C.3       1 <0>        -0.1413
      7 C6          0.2650    2.2574    5.2425 C.3       1 <0>         0.0276
      8 H2          0.5974    1.5433    5.9960 H         1 <0>         0.1346
      9 C7          0.6470    0.5396    3.5800 C.3       1 <0>        -0.0127
     10 C8          1.3938   -0.3859    4.5426 C.3       1 <0>        -0.1614
     11 C9          1.1361   -1.8427    4.1524 C.3       1 <0>         0.1249
     12 N1          1.8511   -2.7290    5.0741 N.am      1 <0>        -0.7335
     13 C10         1.7701   -4.0658    4.9227 C.2       1 <0>         0.5277
     14 O1          1.1053   -4.5350    4.0234 O.2       1 <0>        -0.5133
     15 C11         2.5056   -4.9774    5.8708 C.3       1 <0>        -0.0218
     16 C12         2.0171   -4.7400    7.2765 C.ar      1 <0>        -0.0829
     17 C13         0.6620   -4.7557    7.5492 C.ar      1 <0>        -0.1101
     18 C14         0.2140   -4.5422    8.8394 C.ar      1 <0>        -0.1148
     19 C15         1.1208   -4.3040    9.8553 C.ar      1 <0>        -0.1135
     20 C16         2.4756   -4.2831    9.5817 C.ar      1 <0>        -0.1146
     21 C17         2.9237   -4.5009    8.2922 C.ar      1 <0>        -0.1093
     22 C18         2.2518   -6.4123    5.4865 C.ar      1 <0>        -0.0770
     23 C19         0.9554   -6.8776    5.3697 C.ar      1 <0>        -0.0824
     24 C20         0.7226   -8.1927    5.0129 C.ar      1 <0>        -0.1216
     25 C21         1.7862   -9.0448    4.7817 C.ar      1 <0>        -0.1113
     26 C22         3.0827   -8.5808    4.9035 C.ar      1 <0>        -0.1207
     27 C23         3.3155   -7.2646    5.2561 C.ar      1 <0>        -0.1085
     28 C24        -1.2562    2.1771    5.1002 C.3       1 <0>        -0.1820
     29 H3          0.6953    1.4932    1.2498 H         1 <0>         0.0835
     30 H4          2.1654    2.3920    1.6959 H         1 <0>         0.0796
     31 H5          0.8531    3.2124    0.8166 H         1 <0>         0.1058
     32 H6          1.9289    4.3500    3.3348 H         1 <0>         0.0876
     33 H7          0.4924    4.9673    2.4826 H         1 <0>         0.1114
     34 H8         -0.8738    4.6432    4.5114 H         1 <0>         0.0837
     35 H9          0.5312    5.6733    4.8793 H         1 <0>         0.0949
     36 H10         0.1834    3.9142    6.6181 H         1 <0>         0.1112
     37 H11         1.7458    3.7260    5.7849 H         1 <0>         0.0871
     38 H12        -0.4219    0.3329    3.6329 H         1 <0>         0.1361
     39 H13         1.0004    0.3679    2.5633 H         1 <0>         0.1372
     40 H14         2.4627   -0.1792    4.4897 H         1 <0>         0.0940
     41 H15         1.0404   -0.2142    5.5593 H         1 <0>         0.0932
     42 H16         0.0672   -2.0495    4.2053 H         1 <0>         0.0774
     43 H17         1.4895   -2.0145    3.1356 H         1 <0>         0.0785
     44 H18         2.3828   -2.3537    5.7934 H         1 <0>         0.4039
     45 H19         3.5745   -4.7707    5.8179 H         1 <0>         0.1131
     46 H20        -0.0466   -4.9381    6.7548 H         1 <0>         0.1205
     47 H21        -0.8444   -4.5589    9.0533 H         1 <0>         0.1246
     48 H22         0.7707   -4.1346   10.8629 H         1 <0>         0.1253
     49 H23         3.1840   -4.0970   10.3754 H         1 <0>         0.1268
     50 H24         3.9822   -4.4845    8.0784 H         1 <0>         0.1254
     51 H25         0.1244   -6.2129    5.5540 H         1 <0>         0.1178
     52 H26        -0.2903   -8.5551    4.9174 H         1 <0>         0.1231
     53 H27         1.6043  -10.0729    4.5055 H         1 <0>         0.1242
     54 H28         3.9137   -9.2465    4.7228 H         1 <0>         0.1252
     55 H29         4.3284   -6.9021    5.3513 H         1 <0>         0.1212
     56 H30        -1.5401    1.1695    4.7967 H         1 <0>         0.0795
     57 H31        -1.7236    2.4139    6.0560 H         1 <0>         0.1052
     58 H32        -1.5888    2.8909    4.3464 H         1 <0>         0.0835
     59 N2          0.9242    1.9409    3.9574 N.4       1 <0>        -0.3872
     60 H33         1.9380    2.0631    4.0643 H         1 <0>         0.4236
@<TRIPOS>BOND
     1    1    2 1
     2    1   29 1
     3    1   30 1
     4    1   31 1
     5    2    3 1
     6    2    4 1
     7    2   59 1
     8    4    5 1
     9    4   32 1
    10    4   33 1
    11    5    6 1
    12    5   34 1
    13    5   35 1
    14    6    7 1
    15    6   36 1
    16    6   37 1
    17    7    8 1
    18    7   28 1
    19    7   59 1
    20    9   10 1
    21    9   38 1
    22    9   39 1
    23    9   59 1
    24   10   11 1
    25   10   40 1
    26   10   41 1
    27   11   12 1
    28   11   42 1
    29   11   43 1
    30   12   13 am
    31   12   44 1
    32   13   14 2
    33   13   15 1
    34   15   16 1
    35   15   22 1
    36   15   45 1
    37   16   21 ar
    38   16   17 ar
    39   17   18 ar
    40   17   46 1
    41   18   19 ar
    42   18   47 1
    43   19   20 ar
    44   19   48 1
    45   20   21 ar
    46   20   49 1
    47   21   50 1
    48   22   27 ar
    49   22   23 ar
    50   23   24 ar
    51   23   51 1
    52   24   25 ar
    53   24   52 1
    54   25   26 ar
    55   25   53 1
    56   26   27 ar
    57   26   54 1
    58   27   55 1
    59   28   56 1
    60   28   57 1
    61   28   58 1
    62   59   60 1
@<TRIPOS>MOLECULE
ZINC13733890
   60    62     0     0     0
SMALL
USER_CHARGES

@<TRIPOS>ATOM
      1 C1          0.6967   -2.2500   -0.0015 C.3       1 <0>        -0.1851
      2 C2          0.0143   -1.5173    1.1553 C.3       1 <0>         0.0224
      3 H1          0.4532   -1.8409    2.0991 H         1 <0>         0.1356
      4 C3         -1.4813   -1.8405    1.1516 C.3       1 <0>        -0.1402
      5 C4         -2.1598   -1.1053    2.3111 C.3       1 <0>        -0.1386
      6 C5         -1.8902    0.3963    2.1779 C.3       1 <0>        -0.1402
      7 C6         -0.3794    0.6367    2.1436 C.3       1 <0>         0.0225
      8 H2          0.0680    0.2667    3.0661 H         1 <0>         0.1354
      9 N1          0.2057   -0.0705    0.9981 N.4       1 <0>        -0.3759
     10 C7          1.6424    0.2267    0.9236 C.3       1 <0>        -0.0165
     11 C8          2.3414   -0.3191    2.1704 C.3       1 <0>        -0.1625
     12 C9          3.8127    0.1003    2.1550 C.3       1 <0>         0.1245
     13 N2          4.4820   -0.4223    3.3488 N.am      1 <0>        -0.7334
     14 C10         5.7918   -0.1761    3.5492 C.2       1 <0>         0.5276
     15 O1          6.4164    0.4781    2.7413 O.2       1 <0>        -0.5128
     16 C11         6.4803   -0.7138    4.7773 C.3       1 <0>        -0.0216
     17 C12         7.9295   -0.3006    4.7621 C.ar      1 <0>        -0.0775
     18 C13         8.9217   -1.2558    4.8799 C.ar      1 <0>        -0.1084
     19 C14        10.2511   -0.8769    4.8660 C.ar      1 <0>        -0.1208
     20 C15        10.5881    0.4572    4.7339 C.ar      1 <0>        -0.1111
     21 C16         9.5958    1.4124    4.6152 C.ar      1 <0>        -0.1218
     22 C17         8.2666    1.0329    4.6248 C.ar      1 <0>        -0.0818
     23 C18         5.8130   -0.1604    6.0100 C.ar      1 <0>        -0.0827
     24 C19         5.6093    1.2012    6.1335 C.ar      1 <0>        -0.1100
     25 C20         4.9973    1.7088    7.2643 C.ar      1 <0>        -0.1148
     26 C21         4.5885    0.8546    8.2714 C.ar      1 <0>        -0.1135
     27 C22         4.7914   -0.5072    8.1475 C.ar      1 <0>        -0.1146
     28 C23         5.3996   -1.0151    7.0148 C.ar      1 <0>        -0.1095
     29 C24        -0.1051    2.1360    2.0101 C.3       1 <0>        -0.1839
     30 H3          1.7624   -2.0209    0.0014 H         1 <0>         0.0826
     31 H4          0.5558   -3.3245    0.1154 H         1 <0>         0.1057
     32 H5          0.2581   -1.9267   -0.9455 H         1 <0>         0.0820
     33 H6         -1.9213   -1.5170    0.2083 H         1 <0>         0.0881
     34 H7         -1.6218   -2.9149    1.2700 H         1 <0>         0.1115
     35 H8         -3.2340   -1.2870    2.2791 H         1 <0>         0.0958
     36 H9         -1.7560   -1.4656    3.2573 H         1 <0>         0.0810
     37 H10        -2.3387    0.7663    1.2559 H         1 <0>         0.0883
     38 H11        -2.3229    0.9208    3.0298 H         1 <0>         0.1114
     39 H12         2.0650   -0.2428    0.0353 H         1 <0>         0.1374
     40 H13         1.7879    1.3055    0.8685 H         1 <0>         0.1377
     41 H14         1.8588    0.0811    3.0620 H         1 <0>         0.0935
     42 H15         2.2738   -1.4070    2.1779 H         1 <0>         0.0958
     43 H16         4.2953   -0.2999    1.2634 H         1 <0>         0.0787
     44 H17         3.8803    1.1882    2.1475 H         1 <0>         0.0773
     45 H18         3.9824   -0.9456    3.9950 H         1 <0>         0.4034
     46 H19         6.4127   -1.8016    4.7848 H         1 <0>         0.1129
     47 H20         8.6584   -2.2981    4.9831 H         1 <0>         0.1211
     48 H21        11.0263   -1.6231    4.9587 H         1 <0>         0.1252
     49 H22        11.6267    0.7534    4.7237 H         1 <0>         0.1242
     50 H23         9.8592    2.4547    4.5124 H         1 <0>         0.1232
     51 H24         7.4914    1.7787    4.5283 H         1 <0>         0.1179
     52 H25         5.9287    1.8686    5.3467 H         1 <0>         0.1205
     53 H26         4.8388    2.7727    7.3611 H         1 <0>         0.1246
     54 H27         4.1110    1.2512    9.1552 H         1 <0>         0.1253
     55 H28         4.4724   -1.1745    8.9344 H         1 <0>         0.1268
     56 H29         5.5548   -2.0793    6.9163 H         1 <0>         0.1253
     57 H30        -0.6412    2.6744    2.7916 H         1 <0>         0.1058
     58 H31         0.9646    2.3199    2.1104 H         1 <0>         0.0829
     59 H32        -0.4432    2.4816    1.0332 H         1 <0>         0.0811
     60 H33        -0.2437    0.2368    0.1486 H         1 <0>         0.4221
@<TRIPOS>BOND
     1    1    2 1
     2    1   30 1
     3    1   31 1
     4    1   32 1
     5    2    3 1
     6    2    9 1
     7    2    4 1
     8    4    5 1
     9    4   33 1
    10    4   34 1
    11    5    6 1
    12    5   35 1
    13    5   36 1
    14    6    7 1
    15    6   37 1
    16    6   38 1
    17    7    8 1
    18    7    9 1
    19    7   29 1
    20    9   10 1
    21    9   60 1
    22   10   11 1
    23   10   39 1
    24   10   40 1
    25   11   12 1
    26   11   41 1
    27   11   42 1
    28   12   13 1
    29   12   43 1
    30   12   44 1
    31   13   14 am
    32   13   45 1
    33   14   15 2
    34   14   16 1
    35   16   17 1
    36   16   23 1
    37   16   46 1
    38   17   22 ar
    39   17   18 ar
    40   18   19 ar
    41   18   47 1
    42   19   20 ar
    43   19   48 1
    44   20   21 ar
    45   20   49 1
    46   21   22 ar
    47   21   50 1
    48   22   51 1
    49   23   28 ar
    50   23   24 ar
    51   24   25 ar
    52   24   52 1
    53   25   26 ar
    54   25   53 1
    55   26   27 ar
    56   26   54 1
    57   27   28 ar
    58   27   55 1
    59   28   56 1
    60   29   57 1
    61   29   58 1
    62   29   59 1
@<TRIPOS>MOLECULE
ZINC13733893
   60    62     0     0     0
SMALL
USER_CHARGES
N-[3-[(2S,6S)-2,6-dimethyl-1-piperidyl]propyl]-2,2-diphenyl-acetamide
@<TRIPOS>ATOM
      1 C1          5.7509   -0.2752   -4.4154 C.3       1 <0>        -0.1847
      2 C2          4.6800    0.3814   -5.2889 C.3       1 <0>         0.0272
      3 H1          4.7639    1.4655   -5.2128 H         1 <0>         0.1395
      4 C3          4.8785   -0.0444   -6.7454 C.3       1 <0>        -0.1407
      5 C4          3.7928    0.5989   -7.6126 C.3       1 <0>        -0.1401
      6 C5          2.4166    0.1831   -7.0854 C.3       1 <0>        -0.1414
      7 C6          2.2895    0.6023   -5.6191 C.3       1 <0>         0.0275
      8 H2          1.3162    0.2950   -5.2366 H         1 <0>         0.1347
      9 C7          3.1765    0.2291   -3.3977 C.3       1 <0>        -0.0114
     10 C8          1.8861   -0.4307   -2.9073 C.3       1 <0>        -0.1611
     11 C9          1.7733   -0.2654   -1.3905 C.3       1 <0>         0.1246
     12 N1          0.5377   -0.8972   -0.9209 N.am      1 <0>        -0.7335
     13 C10         0.2261   -0.8760    0.3902 C.2       1 <0>         0.5277
     14 O1          0.9686   -0.3339    1.1812 O.2       1 <0>        -0.5134
     15 C11        -1.0448   -1.5260    0.8732 C.3       1 <0>        -0.0216
     16 C12        -2.2280   -0.8720    0.2072 C.ar      1 <0>        -0.0833
     17 C13        -2.3557    0.5043    0.2215 C.ar      1 <0>        -0.1096
     18 C14        -3.4387    1.1044   -0.3932 C.ar      1 <0>        -0.1150
     19 C15        -4.3987    0.3277   -1.0143 C.ar      1 <0>        -0.1133
     20 C16        -4.2737   -1.0490   -1.0241 C.ar      1 <0>        -0.1148
     21 C17        -3.1885   -1.6489   -0.4132 C.ar      1 <0>        -0.1090
     22 C18        -1.1559   -1.3631    2.3672 C.ar      1 <0>        -0.0777
     23 C19        -1.0552   -0.1067    2.9349 C.ar      1 <0>        -0.0813
     24 C20        -1.1615    0.0432    4.3050 C.ar      1 <0>        -0.1220
     25 C21        -1.3595   -1.0643    5.1082 C.ar      1 <0>        -0.1111
     26 C22        -1.4550   -2.3213    4.5409 C.ar      1 <0>        -0.1210
     27 C23        -1.3530   -2.4707    3.1705 C.ar      1 <0>        -0.1083
     28 C24         2.4230    2.1225   -5.5101 C.3       1 <0>        -0.1820
     29 H3          5.5696   -1.3488   -4.3637 H         1 <0>         0.0793
     30 H4          6.7346   -0.0932   -4.8482 H         1 <0>         0.1056
     31 H5          5.7114    0.1487   -3.4119 H         1 <0>         0.0835
     32 H6          4.8084   -1.1296   -6.8201 H         1 <0>         0.0876
     33 H7          5.8599    0.2820   -7.0894 H         1 <0>         0.1113
     34 H8          3.9043    0.2639   -8.6438 H         1 <0>         0.0947
     35 H9          3.8866    1.6840   -7.5699 H         1 <0>         0.0837
     36 H10         2.3078   -0.8985   -7.1655 H         1 <0>         0.0870
     37 H11         1.6387    0.6715   -7.6723 H         1 <0>         0.1112
     38 H12         3.1191    1.3053   -3.2341 H         1 <0>         0.1361
     39 H13         4.0246   -0.1774   -2.8467 H         1 <0>         0.1365
     40 H14         1.9030   -1.4917   -3.1569 H         1 <0>         0.0930
     41 H15         1.0303    0.0423   -3.3890 H         1 <0>         0.0943
     42 H16         1.7564    0.7955   -1.1409 H         1 <0>         0.0778
     43 H17         2.6290   -0.7384   -0.9087 H         1 <0>         0.0782
     44 H18        -0.0561   -1.3308   -1.5536 H         1 <0>         0.4039
     45 H19        -1.0279   -2.5869    0.6236 H         1 <0>         0.1130
     46 H20        -1.6075    1.1110    0.7101 H         1 <0>         0.1203
     47 H21        -3.5361    2.1800   -0.3858 H         1 <0>         0.1245
     48 H22        -5.2462    0.7964   -1.4923 H         1 <0>         0.1253
     49 H23        -5.0238   -1.6559   -1.5094 H         1 <0>         0.1268
     50 H24        -3.0908   -2.7244   -0.4209 H         1 <0>         0.1254
     51 H25        -0.8968    0.7581    2.3077 H         1 <0>         0.1180
     52 H26        -1.0873    1.0253    4.7481 H         1 <0>         0.1231
     53 H27        -1.4399   -0.9475    6.1788 H         1 <0>         0.1242
     54 H28        -1.6096   -3.1866    5.1685 H         1 <0>         0.1251
     55 H29        -1.4276   -3.4528    2.7273 H         1 <0>         0.1212
     56 H30         3.3965    2.4301   -5.8920 H         1 <0>         0.0835
     57 H31         1.6362    2.5992   -6.0946 H         1 <0>         0.1051
     58 H32         2.3315    2.4214   -4.4658 H         1 <0>         0.0794
     59 N2          3.3475   -0.0695   -4.8346 N.4       1 <0>        -0.3872
     60 H33         3.2733   -1.0838   -4.9754 H         1 <0>         0.4236
@<TRIPOS>BOND
     1    1    2 1
     2    1   29 1
     3    1   30 1
     4    1   31 1
     5    2    3 1
     6    2    4 1
     7    2   59 1
     8    4    5 1
     9    4   32 1
    10    4   33 1
    11    5    6 1
    12    5   34 1
    13    5   35 1
    14    6    7 1
    15    6   36 1
    16    6   37 1
    17    7    8 1
    18    7   28 1
    19    7   59 1
    20    9   10 1
    21    9   38 1
    22    9   39 1
    23    9   59 1
    24   10   11 1
    25   10   40 1
    26   10   41 1
    27   11   12 1
    28   11   42 1
    29   11   43 1
    30   12   13 am
    31   12   44 1
    32   13   14 2
    33   13   15 1
    34   15   16 1
    35   15   22 1
    36   15   45 1
    37   16   21 ar
    38   16   17 ar
    39   17   18 ar
    40   17   46 1
    41   18   19 ar
    42   18   47 1
    43   19   20 ar
    44   19   48 1
    45   20   21 ar
    46   20   49 1
    47   21   50 1
    48   22   27 ar
    49   22   23 ar
    50   23   24 ar
    51   23   51 1
    52   24   25 ar
    53   24   52 1
    54   25   26 ar
    55   25   53 1
    56   26   27 ar
    57   26   54 1
    58   27   55 1
    59   28   56 1
    60   28   57 1
    61   28   58 1
    62   59   60 1
@<TRIPOS>MOLECULE
ZINC19360739
   57    60     0     0     0
SMALL
USER_CHARGES

@<TRIPOS>ATOM
      1 C1         -0.5652    1.2485    0.7222 C.ar      1 <0>        -0.0943
      2 C2          0.5404    2.0554    0.9232 C.ar      1 <0>        -0.1192
      3 C3          1.8064    1.5069    0.9299 C.ar      1 <0>        -0.0897
      4 C4          1.9702    0.1352    0.7340 C.ar      1 <0>        -0.1001
      5 C5          0.8509   -0.6733    0.5323 C.ar      1 <0>        -0.0995
      6 C6         -0.4096   -0.1123    0.5274 C.ar      1 <0>        -0.1213
      7 C7          3.3236   -0.4590    0.7395 C.2       1 <0>        -0.0129
      8 C8          3.4760   -1.7626    0.5530 C.2       1 <0>        -0.2547
      9 C9          4.8559   -2.3684    0.5587 C.3       1 <0>         0.0399
     10 N1          4.9108   -3.4522    1.5488 N.4       1 <0>        -0.3851
     11 C10         4.0101   -4.5370    1.1373 C.3       1 <0>        -0.0024
     12 C11         4.0527   -5.6581    2.1781 C.3       1 <0>         0.0240
     13 N2          5.4291   -6.1596    2.2975 N.3       1 <0>        -0.5314
     14 C12         6.3467   -5.0788    2.6848 C.3       1 <0>         0.0243
     15 C13         6.2851   -3.9625    1.6399 C.3       1 <0>        -0.0015
     16 C14         5.5014   -7.2775    3.2479 C.3       1 <0>         0.1826
     17 C15         4.5657   -8.3733    2.8066 C.ar      1 <0>        -0.1088
     18 C16         4.5143   -8.7433    1.4756 C.ar      1 <0>        -0.0655
     19 C17         3.6570   -9.7484    1.0699 C.ar      1 <0>        -0.1560
     20 C18         2.8492  -10.3848    1.9971 C.ar      1 <0>         0.1127
     21 C19         2.9015  -10.0133    3.3299 C.ar      1 <0>        -0.1509
     22 C20         3.7634   -9.0115    3.7341 C.ar      1 <0>        -0.0777
     23 F1          2.0103  -11.3671    1.6015 F         1 <0>        -0.1328
     24 C21         6.9111   -7.8084    3.2926 C.ar      1 <0>        -0.1084
     25 C22         7.6132   -8.0036    2.1178 C.ar      1 <0>        -0.0645
     26 C23         8.9061   -8.4900    2.1575 C.ar      1 <0>        -0.1560
     27 C24         9.4983   -8.7818    3.3746 C.ar      1 <0>         0.1126
     28 C25         8.7941   -8.5859    4.5506 C.ar      1 <0>        -0.1509
     29 C26         7.5032   -8.0944    4.5086 C.ar      1 <0>        -0.0782
     30 F2         10.7620   -9.2578    3.4147 F         1 <0>        -0.1329
     31 H1         -1.5544    1.6820    0.7219 H         1 <0>         0.1310
     32 H2          0.4123    3.1170    1.0747 H         1 <0>         0.1321
     33 H3          2.6688    2.1380    1.0862 H         1 <0>         0.1292
     34 H4          0.9711   -1.7357    0.3797 H         1 <0>         0.1229
     35 H5         -1.2767   -0.7369    0.3711 H         1 <0>         0.1300
     36 H6          4.1884    0.1689    0.8954 H         1 <0>         0.1304
     37 H7          2.6112   -2.3905    0.3971 H         1 <0>         0.1361
     38 H8          5.0814   -2.7678   -0.4301 H         1 <0>         0.1357
     39 H9          5.5877   -1.6029    0.8169 H         1 <0>         0.1303
     40 H10         2.9927   -4.1539    1.0575 H         1 <0>         0.1348
     41 H11         4.3285   -4.9266    0.1704 H         1 <0>         0.1381
     42 H12         3.7213   -5.2722    3.1421 H         1 <0>         0.0629
     43 H13         3.3957   -6.4697    1.8655 H         1 <0>         0.1264
     44 H14         6.0531   -4.6834    3.6572 H         1 <0>         0.0632
     45 H15         7.3633   -5.4679    2.7419 H         1 <0>         0.1267
     46 H16         6.5919   -4.3551    0.6704 H         1 <0>         0.1386
     47 H17         6.9545   -3.1536    1.9326 H         1 <0>         0.1357
     48 H18         5.2123   -6.9303    4.2398 H         1 <0>         0.0722
     49 H19         5.1443   -8.2466    0.7526 H         1 <0>         0.1382
     50 H20         3.6168  -10.0371    0.0300 H         1 <0>         0.1392
     51 H21         2.2716  -10.5087    4.0539 H         1 <0>         0.1406
     52 H22         3.8076   -8.7246    4.7744 H         1 <0>         0.1329
     53 H23         7.1509   -7.7762    1.1685 H         1 <0>         0.1380
     54 H24         9.4543   -8.6427    1.2396 H         1 <0>         0.1391
     55 H25         9.2549   -8.8135    5.5005 H         1 <0>         0.1405
     56 H26         6.9553   -7.9373    5.4260 H         1 <0>         0.1327
     57 H27         4.6228   -3.0997    2.4493 H         1 <0>         0.4211
@<TRIPOS>BOND
     1    1    6 ar
     2    1    2 ar
     3    1   31 1
     4    2    3 ar
     5    2   32 1
     6    3    4 ar
     7    3   33 1
     8    4    5 ar
     9    4    7 1
    10    5    6 ar
    11    5   34 1
    12    6   35 1
    13    7    8 2
    14    7   36 1
    15    8    9 1
    16    8   37 1
    17    9   10 1
    18    9   38 1
    19    9   39 1
    20   10   15 1
    21   10   11 1
    22   10   57 1
    23   11   12 1
    24   11   40 1
    25   11   41 1
    26   12   13 1
    27   12   42 1
    28   12   43 1
    29   13   14 1
    30   13   16 1
    31   14   15 1
    32   14   44 1
    33   14   45 1
    34   15   46 1
    35   15   47 1
    36   16   17 1
    37   16   24 1
    38   16   48 1
    39   17   22 ar
    40   17   18 ar
    41   18   19 ar
    42   18   49 1
    43   19   20 ar
    44   19   50 1
    45   20   21 ar
    46   20   23 1
    47   21   22 ar
    48   21   51 1
    49   22   52 1
    50   24   29 ar
    51   24   25 ar
    52   25   26 ar
    53   25   53 1
    54   26   27 ar
    55   26   54 1
    56   27   28 ar
    57   27   30 1
    58   28   29 ar
    59   28   55 1
    60   29   56 1
@<TRIPOS>MOLECULE
ZINC19360739
   57    60     0     0     0
SMALL
USER_CHARGES

@<TRIPOS>ATOM
      1 C1         -0.0167    1.3792    0.0096 C.ar      1 <0>        -0.1111
      2 C2          1.1683    2.0931    0.0021 C.ar      1 <0>        -0.1174
      3 C3          2.3774    1.4286   -0.0134 C.ar      1 <0>        -0.1032
      4 C4          2.4032    0.0335   -0.0212 C.ar      1 <0>        -0.0719
      5 C5          1.2045   -0.6806   -0.0131 C.ar      1 <0>        -0.1113
      6 C6          0.0021   -0.0041    0.0020 C.ar      1 <0>        -0.1199
      7 C7          3.6950   -0.6848   -0.0384 C.2       1 <0>        -0.0777
      8 C8          3.7162   -2.0103   -0.0457 C.2       1 <0>        -0.1693
      9 C9          5.0332   -2.7426   -0.0633 C.3       1 <0>         0.0894
     10 N1          5.0868   -3.6810    1.0657 N.3       1 <0>        -0.5336
     11 C10         4.0942   -4.7533    0.9069 C.3       1 <0>         0.0249
     12 C11         4.1414   -5.6730    2.1290 C.3       1 <0>        -0.0045
     13 N2          5.4882   -6.2444    2.2603 N.4       1 <0>        -0.3853
     14 C12         6.4652   -5.1629    2.4428 C.3       1 <0>        -0.0043
     15 C13         6.4373   -4.2389    1.2233 C.3       1 <0>         0.0273
     16 C14         5.5281   -7.1413    3.4231 C.3       1 <0>         0.1390
     17 C15         4.5271   -8.2520    3.2353 C.ar      1 <0>        -0.1483
     18 C16         4.3690   -8.8365    1.9925 C.ar      1 <0>        -0.0905
     19 C17         3.4516   -9.8555    1.8192 C.ar      1 <0>        -0.1395
     20 C18         2.6908  -10.2910    2.8909 C.ar      1 <0>         0.1333
     21 C19         2.8500   -9.7049    4.1352 C.ar      1 <0>        -0.1404
     22 C20         3.7717   -8.6896    4.3073 C.ar      1 <0>        -0.0532
     23 F1          1.7934  -11.2868    2.7225 F         1 <0>        -0.1222
     24 C21         6.9097   -7.7277    3.5580 C.ar      1 <0>        -0.1479
     25 C22         7.6094   -8.1138    2.4299 C.ar      1 <0>        -0.0911
     26 C23         8.8766   -8.6513    2.5523 C.ar      1 <0>        -0.1392
     27 C24         9.4456   -8.8030    3.8055 C.ar      1 <0>         0.1332
     28 C25         8.7439   -8.4159    4.9346 C.ar      1 <0>        -0.1401
     29 C26         7.4789   -7.8738    4.8093 C.ar      1 <0>        -0.0534
     30 F2         10.6842   -9.3287    3.9264 F         1 <0>        -0.1221
     31 H1         -0.9604    1.9041    0.0260 H         1 <0>         0.1259
     32 H2          1.1469    3.1729    0.0082 H         1 <0>         0.1273
     33 H3          3.3018    1.9870   -0.0200 H         1 <0>         0.1256
     34 H4          1.2178   -1.7605   -0.0194 H         1 <0>         0.1202
     35 H5         -0.9265   -0.5556    0.0079 H         1 <0>         0.1249
     36 H6          4.6214   -0.1298   -0.0450 H         1 <0>         0.1212
     37 H7          2.7898   -2.5653   -0.0392 H         1 <0>         0.1156
     38 H8          5.1300   -3.2938   -0.9987 H         1 <0>         0.0564
     39 H9          5.8492   -2.0250    0.0217 H         1 <0>         0.0932
     40 H10         3.0991   -4.3175    0.8179 H         1 <0>         0.1259
     41 H11         4.3212   -5.3289    0.0096 H         1 <0>         0.0604
     42 H12         3.9011   -5.0999    3.0245 H         1 <0>         0.1416
     43 H13         3.4159   -6.4772    2.0068 H         1 <0>         0.1365
     44 H14         6.2129   -4.5924    3.3367 H         1 <0>         0.1418
     45 H15         7.4624   -5.5889    2.5531 H         1 <0>         0.1369
     46 H16         6.7029   -4.8061    0.3311 H         1 <0>         0.0602
     47 H17         7.1516   -3.4279    1.3651 H         1 <0>         0.1261
     48 H18         5.2824   -6.5792    4.3241 H         1 <0>         0.1543
     49 H19         4.9623   -8.4964    1.1566 H         1 <0>         0.1248
     50 H20         3.3280  -10.3117    0.8481 H         1 <0>         0.1494
     51 H21         2.2569  -10.0435    4.9717 H         1 <0>         0.1518
     52 H22         3.8993   -8.2353    5.2787 H         1 <0>         0.1457
     53 H23         7.1652   -7.9958    1.4525 H         1 <0>         0.1247
     54 H24         9.4229   -8.9532    1.6709 H         1 <0>         0.1494
     55 H25         9.1866   -8.5340    5.9126 H         1 <0>         0.1518
     56 H26         6.9332   -7.5676    5.6896 H         1 <0>         0.1457
     57 H27         5.7151   -6.7652    1.4264 H         1 <0>         0.4130
@<TRIPOS>BOND
     1    1    6 ar
     2    1    2 ar
     3    1   31 1
     4    2    3 ar
     5    2   32 1
     6    3    4 ar
     7    3   33 1
     8    4    5 ar
     9    4    7 1
    10    5    6 ar
    11    5   34 1
    12    6   35 1
    13    7    8 2
    14    7   36 1
    15    8    9 1
    16    8   37 1
    17    9   10 1
    18    9   38 1
    19    9   39 1
    20   10   15 1
    21   10   11 1
    22   11   12 1
    23   11   40 1
    24   11   41 1
    25   12   13 1
    26   12   42 1
    27   12   43 1
    28   13   14 1
    29   13   16 1
    30   13   57 1
    31   14   15 1
    32   14   44 1
    33   14   45 1
    34   15   46 1
    35   15   47 1
    36   16   17 1
    37   16   24 1
    38   16   48 1
    39   17   22 ar
    40   17   18 ar
    41   18   19 ar
    42   18   49 1
    43   19   20 ar
    44   19   50 1
    45   20   21 ar
    46   20   23 1
    47   21   22 ar
    48   21   51 1
    49   22   52 1
    50   24   29 ar
    51   24   25 ar
    52   25   26 ar
    53   25   53 1
    54   26   27 ar
    55   26   54 1
    56   27   28 ar
    57   27   30 1
    58   28   29 ar
    59   28   55 1
    60   29   56 1
@<TRIPOS>MOLECULE
ZINC19360739
   56    59     0     0     0
SMALL
USER_CHARGES

@<TRIPOS>ATOM
      1 C1         -0.6450    1.2067    0.7385 C.ar      1 <0>        -0.1212
      2 C2          0.4537    2.0253    0.9303 C.ar      1 <0>        -0.1188
      3 C3          1.7253    1.4899    0.9286 C.ar      1 <0>        -0.1101
      4 C4          1.9018    0.1196    0.7332 C.ar      1 <0>        -0.0554
      5 C5          0.7895   -0.7006    0.5408 C.ar      1 <0>        -0.1151
      6 C6         -0.4768   -0.1527    0.5444 C.ar      1 <0>        -0.1183
      7 C7          3.2613   -0.4606    0.7297 C.2       1 <0>        -0.1106
      8 C8          3.4257   -1.7628    0.5439 C.2       1 <0>        -0.1355
      9 C9          4.8118   -2.3544    0.5403 C.3       1 <0>         0.0846
     10 N1          4.8851   -3.4361    1.5314 N.3       1 <0>        -0.5355
     11 C10         4.0261   -4.5640    1.1446 C.3       1 <0>         0.0568
     12 C11         4.0688   -5.6331    2.2389 C.3       1 <0>         0.0566
     13 N2          5.4567   -6.0748    2.4347 N.3       1 <0>        -0.5294
     14 C12         6.3157   -4.9470    2.8216 C.3       1 <0>         0.0574
     15 C13         6.2730   -3.8778    1.7272 C.3       1 <0>         0.0585
     16 C14         5.5300   -7.1566    3.4259 C.3       1 <0>         0.1710
     17 C15         4.6571   -8.3028    2.9839 C.ar      1 <0>        -0.0902
     18 C16         4.6784   -8.7188    1.6657 C.ar      1 <0>        -0.0616
     19 C17         3.8787   -9.7702    1.2594 C.ar      1 <0>        -0.1564
     20 C18         3.0561  -10.4069    2.1731 C.ar      1 <0>         0.1011
     21 C19         3.0356   -9.9894    3.4931 C.ar      1 <0>        -0.1535
     22 C20         3.8401   -8.9412    3.8983 C.ar      1 <0>        -0.0820
     23 F1          2.2736  -11.4345    1.7769 F         1 <0>        -0.1394
     24 C21         6.9556   -7.6292    3.5490 C.ar      1 <0>        -0.0900
     25 C22         7.7154   -7.8360    2.4127 C.ar      1 <0>        -0.0609
     26 C23         9.0230   -8.2690    2.5245 C.ar      1 <0>        -0.1564
     27 C24         9.5721   -8.4957    3.7751 C.ar      1 <0>         0.1010
     28 C25         8.8102   -8.2884    4.9125 C.ar      1 <0>        -0.1536
     29 C26         7.5045   -7.8503    4.7985 C.ar      1 <0>        -0.0822
     30 F2         10.8502   -8.9195    3.8855 F         1 <0>        -0.1394
     31 H1         -1.6385    1.6300    0.7449 H         1 <0>         0.1219
     32 H2          0.3157    3.0857    1.0814 H         1 <0>         0.1233
     33 H3          2.5822    2.1300    1.0777 H         1 <0>         0.1236
     34 H4          0.9195   -1.7619    0.3888 H         1 <0>         0.1224
     35 H5         -1.3385   -0.7864    0.3952 H         1 <0>         0.1228
     36 H6          4.1206    0.1764    0.8785 H         1 <0>         0.1188
     37 H7          2.5664   -2.3998    0.3951 H         1 <0>         0.1136
     38 H8          5.0342   -2.7529   -0.4496 H         1 <0>         0.0473
     39 H9          5.5375   -1.5811    0.7921 H         1 <0>         0.0809
     40 H10         3.0016   -4.2141    1.0178 H         1 <0>         0.0804
     41 H11         4.3842   -4.9889    0.2069 H         1 <0>         0.0440
     42 H12         3.6851   -5.2160    3.1700 H         1 <0>         0.0452
     43 H13         3.4552   -6.4833    1.9409 H         1 <0>         0.0839
     44 H14         5.9575   -4.5220    3.7593 H         1 <0>         0.0455
     45 H15         7.3402   -5.2969    2.9483 H         1 <0>         0.0841
     46 H16         6.6566   -4.2950    0.7961 H         1 <0>         0.0443
     47 H17         6.8865   -3.0277    2.0252 H         1 <0>         0.0807
     48 H18         5.1846   -6.7883    4.3919 H         1 <0>         0.0629
     49 H19         5.3199   -8.2218    0.9531 H         1 <0>         0.1388
     50 H20         3.8952  -10.0948    0.2295 H         1 <0>         0.1357
     51 H21         2.3941  -10.4851    4.2066 H         1 <0>         0.1360
     52 H22         3.8276   -8.6183    4.9288 H         1 <0>         0.1311
     53 H23         7.2867   -7.6593    1.4373 H         1 <0>         0.1386
     54 H24         9.6162   -8.4307    1.6366 H         1 <0>         0.1356
     55 H25         9.2374   -8.4652    5.8885 H         1 <0>         0.1360
     56 H26         6.9114   -7.6842    5.6856 H         1 <0>         0.1310
@<TRIPOS>BOND
     1    1    6 ar
     2    1    2 ar
     3    1   31 1
     4    2    3 ar
     5    2   32 1
     6    3    4 ar
     7    3   33 1
     8    4    5 ar
     9    4    7 1
    10    5    6 ar
    11    5   34 1
    12    6   35 1
    13    7    8 2
    14    7   36 1
    15    8    9 1
    16    8   37 1
    17    9   10 1
    18    9   38 1
    19    9   39 1
    20   10   15 1
    21   10   11 1
    22   11   12 1
    23   11   40 1
    24   11   41 1
    25   12   13 1
    26   12   42 1
    27   12   43 1
    28   13   14 1
    29   13   16 1
    30   14   15 1
    31   14   44 1
    32   14   45 1
    33   15   46 1
    34   15   47 1
    35   16   17 1
    36   16   24 1
    37   16   48 1
    38   17   22 ar
    39   17   18 ar
    40   18   19 ar
    41   18   49 1
    42   19   20 ar
    43   19   50 1
    44   20   21 ar
    45   20   23 1
    46   21   22 ar
    47   21   51 1
    48   22   52 1
    49   24   29 ar
    50   24   25 ar
    51   25   26 ar
    52   25   53 1
    53   26   27 ar
    54   26   54 1
    55   27   28 ar
    56   27   30 1
    57   28   29 ar
    58   28   55 1
    59   29   56 1
@<TRIPOS>MOLECULE
ZINC03137566
   28    29     0     0     0
SMALL
USER_CHARGES

@<TRIPOS>ATOM
      1 C1         -0.0187    1.5258    0.0104 C.3       1 <0>        -0.1573
      2 C2          0.0021   -0.0041    0.0020 C.3       1 <0>        -0.0978
      3 C3          0.7182   -0.4975   -1.2568 C.3       1 <0>        -0.0999
      4 C4         -0.1260   -0.1201   -2.4586 C.2       1 <0>         0.4950
      5 O1         -1.3940   -0.5458   -2.5756 O.3       1 <0>        -0.6244
      6 N1          0.4202    0.6338   -3.3777 N.2       1 <0>        -0.6708
      7 C5          1.6793    1.0760   -3.2937 C.2       1 <0>         0.6714
      8 O2          2.0939    1.7721   -4.2011 O.2       1 <0>        -0.5726
      9 N2          2.5169    0.8090   -2.2839 N.am      1 <0>        -0.6999
     10 C6          2.1358    0.0441   -1.2367 C.2       1 <0>         0.5504
     11 O3          2.8929   -0.1982   -0.3214 O.2       1 <0>        -0.5136
     12 C7          0.7898   -2.0014   -1.1927 C.ar      1 <0>        -0.0386
     13 C8          0.2469   -2.6739   -0.1138 C.ar      1 <0>        -0.1040
     14 C9          0.3126   -4.0534   -0.0550 C.ar      1 <0>        -0.1206
     15 C10         0.9207   -4.7605   -1.0753 C.ar      1 <0>        -0.1270
     16 C11         1.4628   -4.0881   -2.1546 C.ar      1 <0>        -0.1167
     17 C12         1.3934   -2.7089   -2.2155 C.ar      1 <0>        -0.1104
     18 H1          1.0039    1.9031    0.0027 H         1 <0>         0.0475
     19 H2         -0.5459    1.8868   -0.8726 H         1 <0>         0.0629
     20 H3         -0.5289    1.8773    0.9072 H         1 <0>         0.0616
     21 H4          0.5293   -0.3651    0.8851 H         1 <0>         0.0744
     22 H5         -1.0205   -0.3814    0.0098 H         1 <0>         0.0894
     23 H6          3.4162    1.1718   -2.3044 H         1 <0>         0.3993
     24 H7         -0.2282   -2.1214    0.6834 H         1 <0>         0.1285
     25 H8         -0.1109   -4.5787    0.7883 H         1 <0>         0.1209
     26 H9          0.9727   -5.8383   -1.0290 H         1 <0>         0.1186
     27 H10         1.9382   -4.6406   -2.9516 H         1 <0>         0.1202
     28 H11         1.8136   -2.1838   -3.0605 H         1 <0>         0.1140
@<TRIPOS>BOND
     1    1    2 1
     2    1   18 1
     3    1   19 1
     4    1   20 1
     5    2    3 1
     6    2   21 1
     7    2   22 1
     8    3   10 1
     9    3    4 1
    10    3   12 1
    11    4    5 1
    12    4    6 2
    13    6    7 1
    14    7    8 2
    15    7    9 am
    16    9   10 am
    17    9   23 1
    18   10   11 2
    19   12   17 ar
    20   12   13 ar
    21   13   14 ar
    22   13   24 1
    23   14   15 ar
    24   14   25 1
    25   15   16 ar
    26   15   26 1
    27   16   17 ar
    28   16   27 1
    29   17   28 1
@<TRIPOS>MOLECULE
ZINC03137566
   29    30     0     0     0
SMALL
USER_CHARGES

@<TRIPOS>ATOM
      1 C1         -0.0187    1.5258    0.0104 C.3       1 <0>        -0.1670
      2 C2          0.0021   -0.0041    0.0020 C.3       1 <0>        -0.1116
      3 C3         -1.4333   -0.5336    0.0129 C.3       1 <0>        -0.0681
      4 C4         -2.0615   -0.1674    1.3443 C.2       1 <0>         0.5453
      5 O1         -1.5741   -0.5351    2.3917 O.2       1 <0>        -0.4514
      6 N1         -3.1836    0.5826    1.3194 N.am      1 <0>        -0.6668
      7 C5         -3.7341    0.9959    0.1722 C.2       1 <0>         0.7165
      8 O2         -4.7439    1.6678    0.2422 O.2       1 <0>        -0.5208
      9 N2         -3.2536    0.7238   -1.0464 N.am      1 <0>        -0.6669
     10 C6         -2.1375   -0.0140   -1.2262 C.2       1 <0>         0.5459
     11 O3         -1.7140   -0.2529   -2.3368 O.2       1 <0>        -0.4515
     12 C7         -1.3757   -2.0369   -0.0761 C.ar      1 <0>        -0.0830
     13 C8         -0.1534   -2.6790   -0.1432 C.ar      1 <0>        -0.0909
     14 C9         -0.1006   -4.0579   -0.2248 C.ar      1 <0>        -0.1129
     15 C10        -1.2701   -4.7948   -0.2390 C.ar      1 <0>        -0.1047
     16 C11        -2.4924   -4.1527   -0.1710 C.ar      1 <0>        -0.1111
     17 C12        -2.5451   -2.7741   -0.0850 C.ar      1 <0>        -0.1123
     18 H1          1.0039    1.9031    0.0027 H         1 <0>         0.0800
     19 H2         -0.5459    1.8868   -0.8726 H         1 <0>         0.0570
     20 H3         -0.5289    1.8773    0.9072 H         1 <0>         0.0561
     21 H4          0.5123   -0.3556   -0.8948 H         1 <0>         0.1014
     22 H5          0.5293   -0.3651    0.8851 H         1 <0>         0.1009
     23 H6         -3.7213    1.0667   -1.8240 H         1 <0>         0.4376
     24 H7          0.7603   -2.1033   -0.1321 H         1 <0>         0.1358
     25 H8          0.8544   -4.5595   -0.2779 H         1 <0>         0.1316
     26 H9         -1.2288   -5.8721   -0.3035 H         1 <0>         0.1292
     27 H10        -3.4061   -4.7284   -0.1824 H         1 <0>         0.1292
     28 H11        -3.5000   -2.2727   -0.0282 H         1 <0>         0.1150
     29 H12        -3.6035    0.8290    2.1584 H         1 <0>         0.4376
@<TRIPOS>BOND
     1    1    2 1
     2    1   18 1
     3    1   19 1
     4    1   20 1
     5    2    3 1
     6    2   21 1
     7    2   22 1
     8    3   10 1
     9    3    4 1
    10    3   12 1
    11    4    5 2
    12    4    6 am
    13    6    7 am
    14    6   29 1
    15    7    8 2
    16    7    9 am
    17    9   10 am
    18    9   23 1
    19   10   11 2
    20   12   17 ar
    21   12   13 ar
    22   13   14 ar
    23   13   24 1
    24   14   15 ar
    25   14   25 1
    26   15   16 ar
    27   15   26 1
    28   16   17 ar
    29   16   27 1
    30   17   28 1
@<TRIPOS>MOLECULE
ZINC03137566
   28    29     0     0     0
SMALL
USER_CHARGES

@<TRIPOS>ATOM
      1 C1         -0.0187    1.5258    0.0104 C.3       1 <0>        -0.1579
      2 C2          0.0021   -0.0041    0.0020 C.3       1 <0>        -0.0981
      3 C3          0.7182   -0.4975   -1.2568 C.3       1 <0>        -0.1275
      4 C4         -0.1260   -0.1190   -2.4598 C.2       1 <0>         0.5504
      5 O1         -1.2714   -0.4996   -2.5734 O.2       1 <0>        -0.5174
      6 N1          0.4543    0.6603   -3.3991 N.am      1 <0>        -0.6838
      7 C5          1.7389    1.0868   -3.2719 C.2       1 <0>         0.6402
      8 O2          2.2383    1.8597   -4.2531 O.3       1 <0>        -0.6575
      9 N2          2.5269    0.8011   -2.2641 N.2       1 <0>        -0.6770
     10 C6          2.1350    0.0437   -1.2369 C.2       1 <0>         0.5374
     11 O3          2.8886   -0.2043   -0.3167 O.2       1 <0>        -0.5291
     12 C7          0.7895   -2.0015   -1.1932 C.ar      1 <0>        -0.0431
     13 C8          0.2464   -2.6741   -0.1146 C.ar      1 <0>        -0.1056
     14 C9          0.3117   -4.0537   -0.0562 C.ar      1 <0>        -0.1205
     15 C10         0.9198   -4.7606   -1.0767 C.ar      1 <0>        -0.1263
     16 C11         1.4622   -4.0880   -2.1557 C.ar      1 <0>        -0.1157
     17 C12         1.3930   -2.7087   -2.2161 C.ar      1 <0>        -0.1112
     18 H1          1.0039    1.9031    0.0027 H         1 <0>         0.0635
     19 H2         -0.5459    1.8868   -0.8726 H         1 <0>         0.0492
     20 H3         -0.5289    1.8773    0.9072 H         1 <0>         0.0615
     21 H4          0.5293   -0.3651    0.8851 H         1 <0>         0.0855
     22 H5         -1.0205   -0.3814    0.0098 H         1 <0>         0.0756
     23 H6         -0.0568    0.9208   -4.1813 H         1 <0>         0.4015
     24 H7         -0.2287   -2.1218    0.6827 H         1 <0>         0.1284
     25 H8         -0.1120   -4.5792    0.7869 H         1 <0>         0.1212
     26 H9          0.9715   -5.8384   -1.0307 H         1 <0>         0.1192
     27 H10         1.9376   -4.6403   -2.9528 H         1 <0>         0.1211
     28 H11         1.8134   -2.1834   -3.0610 H         1 <0>         0.1159
@<TRIPOS>BOND
     1    1    2 1
     2    1   18 1
     3    1   19 1
     4    1   20 1
     5    2    3 1
     6    2   21 1
     7    2   22 1
     8    3   10 1
     9    3    4 1
    10    3   12 1
    11    4    5 2
    12    4    6 am
    13    6    7 1
    14    6   23 1
    15    7    8 1
    16    7    9 2
    17    9   10 1
    18   10   11 2
    19   12   17 ar
    20   12   13 ar
    21   13   14 ar
    22   13   24 1
    23   14   15 ar
    24   14   25 1
    25   15   16 ar
    26   15   26 1
    27   16   17 ar
    28   16   27 1
    29   17   28 1
@<TRIPOS>MOLECULE
ZINC03137566
   28    29     0     0     0
SMALL
USER_CHARGES

@<TRIPOS>ATOM
      1 C1         -0.0187    1.5258    0.0104 C.3       1 <0>        -0.1571
      2 C2          0.0021   -0.0041    0.0020 C.3       1 <0>        -0.0973
      3 C3          0.7182   -0.4975   -1.2568 C.3       1 <0>        -0.1001
      4 C4          2.1347    0.0437   -1.2367 C.2       1 <0>         0.4959
      5 O1          2.9663   -0.2299   -0.2188 O.3       1 <0>        -0.6244
      6 N1          2.5204    0.7860   -2.2425 N.2       1 <0>        -0.6709
      7 C5          1.7192    1.0789   -3.2721 C.2       1 <0>         0.6713
      8 N2          0.4540    0.6595   -3.3989 N.am      1 <0>        -0.6997
      9 C6         -0.1267   -0.1198   -2.4596 C.2       1 <0>         0.5496
     10 O2         -1.2722   -0.5003   -2.5729 O.2       1 <0>        -0.5136
     11 O3          2.1729    1.7779   -4.1584 O.2       1 <0>        -0.5727
     12 C7          0.7898   -2.0014   -1.1927 C.ar      1 <0>        -0.0385
     13 C8          0.2469   -2.6739   -0.1138 C.ar      1 <0>        -0.1043
     14 C9          0.3126   -4.0534   -0.0550 C.ar      1 <0>        -0.1205
     15 C10         0.9207   -4.7605   -1.0753 C.ar      1 <0>        -0.1271
     16 C11         1.4628   -4.0881   -2.1546 C.ar      1 <0>        -0.1165
     17 C12         1.3934   -2.7089   -2.2155 C.ar      1 <0>        -0.1106
     18 H1          1.0039    1.9031    0.0027 H         1 <0>         0.0655
     19 H2         -0.5459    1.8868   -0.8726 H         1 <0>         0.0463
     20 H3         -0.5289    1.8773    0.9072 H         1 <0>         0.0609
     21 H4          0.5293   -0.3651    0.8851 H         1 <0>         0.0887
     22 H5         -1.0205   -0.3814    0.0098 H         1 <0>         0.0737
     23 H6         -0.0566    0.9207   -4.1811 H         1 <0>         0.3993
     24 H7         -0.2282   -2.1214    0.6834 H         1 <0>         0.1284
     25 H8         -0.1109   -4.5787    0.7883 H         1 <0>         0.1209
     26 H9          0.9727   -5.8383   -1.0290 H         1 <0>         0.1186
     27 H10         1.9382   -4.6406   -2.9516 H         1 <0>         0.1202
     28 H11         1.8136   -2.1838   -3.0605 H         1 <0>         0.1140
@<TRIPOS>BOND
     1    1    2 1
     2    1   18 1
     3    1   19 1
     4    1   20 1
     5    2   21 1
     6    2   22 1
     7    2    3 1
     8    3    4 1
     9    3   12 1
    10    3    9 1
    11    4    5 1
    12    4    6 2
    13    6    7 1
    14    7    8 am
    15    7   11 2
    16    8    9 am
    17    8   23 1
    18    9   10 2
    19   12   17 ar
    20   12   13 ar
    21   13   14 ar
    22   13   24 1
    23   14   15 ar
    24   14   25 1
    25   15   16 ar
    26   15   26 1
    27   16   17 ar
    28   16   27 1
    29   17   28 1
@<TRIPOS>MOLECULE
ZINC03137566
   28    29     0     0     0
SMALL
USER_CHARGES

@<TRIPOS>ATOM
      1 C1         -0.0187    1.5258    0.0104 C.3       1 <0>        -0.1579
      2 C2          0.0021   -0.0041    0.0020 C.3       1 <0>        -0.0981
      3 C3          0.7182   -0.4975   -1.2568 C.3       1 <0>        -0.1275
      4 C4          2.1782   -0.0949   -1.1584 C.2       1 <0>         0.5504
      5 O1          2.8725   -0.4556   -0.2324 O.2       1 <0>        -0.5174
      6 N1          2.6707    0.6835   -2.1473 N.am      1 <0>        -0.6838
      7 C5          1.8919    1.0884   -3.1855 C.2       1 <0>         0.6402
      8 O2          2.4623    1.8612   -4.1272 O.3       1 <0>        -0.6575
      9 N2          0.6267    0.7813   -3.3373 N.2       1 <0>        -0.6771
     10 C6         -0.0387    0.0210   -2.4646 C.2       1 <0>         0.5375
     11 O3         -1.2117   -0.2471   -2.6326 O.2       1 <0>        -0.5290
     12 C7          0.6508   -2.0029   -1.2715 C.ar      1 <0>        -0.0432
     13 C8          0.0083   -2.6760   -0.2492 C.ar      1 <0>        -0.1055
     14 C9         -0.0535   -4.0569   -0.2627 C.ar      1 <0>        -0.1205
     15 C10         0.5267   -4.7647   -1.2987 C.ar      1 <0>        -0.1262
     16 C11         1.1684   -4.0915   -2.3215 C.ar      1 <0>        -0.1158
     17 C12         1.2265   -2.7104   -2.3102 C.ar      1 <0>        -0.1112
     18 H1          1.0039    1.9031    0.0027 H         1 <0>         0.0492
     19 H2         -0.5459    1.8868   -0.8726 H         1 <0>         0.0634
     20 H3         -0.5289    1.8773    0.9072 H         1 <0>         0.0615
     21 H4          0.5293   -0.3651    0.8851 H         1 <0>         0.0756
     22 H5         -1.0205   -0.3814    0.0098 H         1 <0>         0.0855
     23 H6          3.6000    0.9596   -2.1155 H         1 <0>         0.4015
     24 H7         -0.4450   -2.1231    0.5602 H         1 <0>         0.1284
     25 H8         -0.5549   -4.5828    0.5363 H         1 <0>         0.1212
     26 H9          0.4790   -5.8436   -1.3089 H         1 <0>         0.1192
     27 H10         1.6220   -4.6445   -3.1307 H         1 <0>         0.1211
     28 H11         1.7246   -2.1843   -3.1111 H         1 <0>         0.1159
@<TRIPOS>BOND
     1    1    2 1
     2    1   18 1
     3    1   19 1
     4    1   20 1
     5    2    3 1
     6    2   21 1
     7    2   22 1
     8    3   10 1
     9    3    4 1
    10    3   12 1
    11    4    5 2
    12    4    6 am
    13    6    7 1
    14    6   23 1
    15    7    8 1
    16    7    9 2
    17    9   10 1
    18   10   11 2
    19   12   17 ar
    20   12   13 ar
    21   13   14 ar
    22   13   24 1
    23   14   15 ar
    24   14   25 1
    25   15   16 ar
    26   15   26 1
    27   16   17 ar
    28   16   27 1
    29   17   28 1
@<TRIPOS>MOLECULE
ZINC00602172
   53    56     0     0     0
SMALL
USER_CHARGES

@<TRIPOS>ATOM
      1 C1          0.1105    1.5015   -0.0026 C.3       1 <0>        -0.0876
      2 C2          0.0580   -0.0046   -0.0036 C.2       1 <0>        -0.2363
      3 C3         -0.0876   -0.7993   -1.0987 C.2       1 <0>         0.1316
      4 O1         -0.0870   -2.0786   -0.6793 O.3       1 <0>        -0.0582
      5 N1          0.0648   -2.0732    0.7285 N.2       1 <0>        -0.3101
      6 C4          0.1566   -0.8337    1.1232 C.2       1 <0>         0.1050
      7 C5          0.3344   -0.3714    2.5465 C.3       1 <0>        -0.0242
      8 C6         -0.8402   -0.8652    3.3959 C.3       1 <0>        -0.1421
      9 C7         -0.6137   -0.4607    4.8542 C.3       1 <0>        -0.0031
     10 N2          0.6329   -1.0610    5.3442 N.4       1 <0>        -0.3858
     11 C8          1.7718   -0.5370    4.5809 C.3       1 <0>        -0.0093
     12 C9          1.6371   -0.9445    3.1121 C.3       1 <0>        -0.1411
     13 C10         0.8062   -0.7342    6.7659 C.3       1 <0>        -0.0061
     14 C11         2.0379   -1.4608    7.3098 C.3       1 <0>        -0.1003
     15 C12         2.2157   -1.1255    8.7682 C.ar      1 <0>        -0.1085
     16 C13         2.9767   -0.0324    9.1383 C.ar      1 <0>        -0.1103
     17 C14         3.1398    0.2751   10.4761 C.ar      1 <0>        -0.1141
     18 C15         2.5416   -0.5102   11.4438 C.ar      1 <0>        -0.1041
     19 C16         1.7799   -1.6027   11.0736 C.ar      1 <0>        -0.1136
     20 C17         1.6133   -1.9078    9.7357 C.ar      1 <0>        -0.1101
     21 C18        -0.2226   -0.3404   -2.4974 C.ar      1 <0>        -0.0536
     22 C19         0.6493    0.6238   -3.0057 C.ar      1 <0>        -0.0674
     23 C20         0.5184    1.0482   -4.3115 C.ar      1 <0>        -0.1095
     24 C21        -0.4759    0.5200   -5.1177 C.ar      1 <0>        -0.0119
     25 C22        -1.3440   -0.4368   -4.6190 C.ar      1 <0>        -0.1086
     26 C23        -1.2190   -0.8736   -3.3166 C.ar      1 <0>        -0.0682
     27 Cl1        -0.6353    1.0599   -6.7599 Cl        1 <0>        -0.0485
     28 H1          1.1432    1.8291   -0.1220 H         1 <0>         0.0738
     29 H2         -0.4904    1.8865   -0.8264 H         1 <0>         0.0768
     30 H3         -0.2833    1.8781    0.9414 H         1 <0>         0.0695
     31 H4          0.3731    0.7175    2.5739 H         1 <0>         0.1155
     32 H5         -1.7653   -0.4170    3.0334 H         1 <0>         0.1180
     33 H6         -0.9091   -1.9508    3.3258 H         1 <0>         0.0972
     34 H7         -0.5453    0.6250    4.9231 H         1 <0>         0.1330
     35 H8         -1.4483   -0.8106    5.4617 H         1 <0>         0.1364
     36 H9          1.7894    0.5503    4.6557 H         1 <0>         0.1336
     37 H10         2.6983   -0.9433    4.9866 H         1 <0>         0.1374
     38 H11         1.6196   -2.0317    3.0361 H         1 <0>         0.0970
     39 H12         2.4827   -0.5530    2.5467 H         1 <0>         0.1179
     40 H13         0.9403    0.3417    6.8776 H         1 <0>         0.1322
     41 H14        -0.0767   -1.0499    7.3216 H         1 <0>         0.1335
     42 H15         1.9038   -2.5368    7.1980 H         1 <0>         0.0952
     43 H16         2.9209   -1.1451    6.7541 H         1 <0>         0.0949
     44 H17         3.4441    0.5811    8.3823 H         1 <0>         0.1235
     45 H18         3.7349    1.1287   10.7653 H         1 <0>         0.1294
     46 H19         2.6696   -0.2703   12.4890 H         1 <0>         0.1298
     47 H20         1.3128   -2.2164   11.8296 H         1 <0>         0.1295
     48 H21         1.0151   -2.7592    9.4464 H         1 <0>         0.1242
     49 H22         1.4247    1.0369   -2.3776 H         1 <0>         0.1399
     50 H23         1.1925    1.7941   -4.7059 H         1 <0>         0.1465
     51 H24        -2.1176   -0.8452   -5.2524 H         1 <0>         0.1461
     52 H25        -1.8937   -1.6231   -2.9301 H         1 <0>         0.1409
     53 H26         0.5883   -2.0631    5.2346 H         1 <0>         0.4243
@<TRIPOS>BOND
     1    1    2 1
     2    1   28 1
     3    1   29 1
     4    1   30 1
     5    2    6 1
     6    2    3 2
     7    3    4 1
     8    3   21 1
     9    4    5 1
    10    5    6 2
    11    6    7 1
    12    7   12 1
    13    7    8 1
    14    7   31 1
    15    8    9 1
    16    8   32 1
    17    8   33 1
    18    9   10 1
    19    9   34 1
    20    9   35 1
    21   10   11 1
    22   10   13 1
    23   10   53 1
    24   11   12 1
    25   11   36 1
    26   11   37 1
    27   12   38 1
    28   12   39 1
    29   13   14 1
    30   13   40 1
    31   13   41 1
    32   14   15 1
    33   14   42 1
    34   14   43 1
    35   15   20 ar
    36   15   16 ar
    37   16   17 ar
    38   16   44 1
    39   17   18 ar
    40   17   45 1
    41   18   19 ar
    42   18   46 1
    43   19   20 ar
    44   19   47 1
    45   20   48 1
    46   21   26 ar
    47   21   22 ar
    48   22   23 ar
    49   22   49 1
    50   23   24 ar
    51   23   50 1
    52   24   25 ar
    53   24   27 1
    54   25   26 ar
    55   25   51 1
    56   26   52 1
@<TRIPOS>MOLECULE
ZINC53084692
   41    42     0     0     0
SMALL
USER_CHARGES

@<TRIPOS>ATOM
      1 C1         -0.0187    1.5258    0.0104 C.3       1 <0>        -0.1381
      2 C2          0.0021   -0.0041    0.0020 C.3       1 <0>         0.0640
      3 H1          0.5123   -0.3556   -0.8948 H         1 <0>         0.0725
      4 C3          0.7309   -0.5033    1.2229 C.2       1 <0>         0.5158
      5 O1          0.1587   -1.2128    2.0229 O.2       1 <0>        -0.5326
      6 N1          2.0187   -0.1613    1.4257 N.am      1 <0>        -0.8529
      7 N2         -1.3761   -0.5125    0.0124 N.3       1 <0>        -0.6692
      8 C4         -1.9244   -0.5753   -1.3489 C.3       1 <0>         0.1032
      9 C5         -3.3361   -1.1002   -1.2982 C.ar      1 <0>        -0.1230
     10 C6         -3.5702   -2.4602   -1.3837 C.ar      1 <0>        -0.0712
     11 C7         -4.8634   -2.9439   -1.3379 C.ar      1 <0>        -0.1501
     12 C8         -5.9276   -2.0638   -1.2056 C.ar      1 <0>         0.1320
     13 C9         -5.6900   -0.6997   -1.1196 C.ar      1 <0>        -0.2101
     14 C10        -4.3946   -0.2214   -1.1606 C.ar      1 <0>        -0.0536
     15 O2         -7.2007   -2.5372   -1.1608 O.3       1 <0>        -0.3085
     16 C11        -8.2467   -1.5733   -1.0234 C.3       1 <0>         0.1013
     17 C12        -9.5784   -2.2782   -0.9920 C.ar      1 <0>        -0.0687
     18 C13       -10.2613   -2.5178   -2.1702 C.ar      1 <0>        -0.1055
     19 C14       -11.4828   -3.1642   -2.1430 C.ar      1 <0>        -0.0922
     20 C15       -12.0231   -3.5714   -0.9378 C.ar      1 <0>        -0.1431
     21 C16       -11.3403   -3.3320    0.2425 C.ar      1 <0>         0.0970
     22 C17       -10.1137   -2.6897    0.2135 C.ar      1 <0>        -0.1299
     23 F1        -11.8677   -3.7291    1.4211 F         1 <0>        -0.1365
     24 H2          1.0039    1.9031    0.0027 H         1 <0>         0.0615
     25 H3         -0.5459    1.8868   -0.8726 H         1 <0>         0.0686
     26 H4         -0.5289    1.8773    0.9072 H         1 <0>         0.0695
     27 H5          2.4764    0.4061    0.7859 H         1 <0>         0.4024
     28 H6          2.4879   -0.4826    2.2116 H         1 <0>         0.4043
     29 H7         -1.4257   -1.4134    0.4641 H         1 <0>         0.3579
     30 H8         -1.9233    0.4226   -1.7874 H         1 <0>         0.0824
     31 H9         -1.3112   -1.2401   -1.9573 H         1 <0>         0.0402
     32 H10        -2.7414   -3.1449   -1.4867 H         1 <0>         0.1265
     33 H11        -5.0458   -4.0063   -1.4054 H         1 <0>         0.1310
     34 H12        -6.5168   -0.0126   -1.0166 H         1 <0>         0.1283
     35 H13        -4.2089    0.8401   -1.0893 H         1 <0>         0.1267
     36 H14        -8.1084   -1.0166   -0.0965 H         1 <0>         0.0755
     37 H15        -8.2198   -0.8849   -1.8681 H         1 <0>         0.0771
     38 H16        -9.8402   -2.1994   -3.1123 H         1 <0>         0.1328
     39 H17       -12.0153   -3.3508   -3.0639 H         1 <0>         0.1378
     40 H18       -12.9779   -4.0758   -0.9167 H         1 <0>         0.1388
     41 H19        -9.5781   -2.5064    1.1331 H         1 <0>         0.1382
@<TRIPOS>BOND
     1    1    2 1
     2    1   24 1
     3    1   25 1
     4    1   26 1
     5    2    3 1
     6    2    4 1
     7    2    7 1
     8    4    5 2
     9    4    6 am
    10    6   27 1
    11    6   28 1
    12    7    8 1
    13    7   29 1
    14    8    9 1
    15    8   30 1
    16    8   31 1
    17    9   14 ar
    18    9   10 ar
    19   10   11 ar
    20   10   32 1
    21   11   12 ar
    22   11   33 1
    23   12   13 ar
    24   12   15 1
    25   13   14 ar
    26   13   34 1
    27   14   35 1
    28   15   16 1
    29   16   17 1
    30   16   36 1
    31   16   37 1
    32   17   22 ar
    33   17   18 ar
    34   18   19 ar
    35   18   38 1
    36   19   20 ar
    37   19   39 1
    38   20   21 ar
    39   20   40 1
    40   21   22 ar
    41   21   23 1
    42   22   41 1
@<TRIPOS>MOLECULE
ZINC01530811
   44    44     0     0     0
SMALL
USER_CHARGES

@<TRIPOS>ATOM
      1 C1         -0.0187    1.5258    0.0104 C.3       1 <0>        -0.1552
      2 C2          0.0021   -0.0041    0.0020 C.3       1 <0>        -0.1218
      3 C3         -1.4333   -0.5336    0.0129 C.3       1 <0>        -0.1330
      4 C4         -1.4126   -2.0635    0.0045 C.3       1 <0>         0.1126
      5 N1         -2.7870   -2.5706    0.0149 N.pl3     1 <0>        -0.7283
      6 C5         -3.0224   -3.9406    0.0098 C.ar      1 <0>         0.2665
      7 C6         -1.9508   -4.8295    0.0006 C.ar      1 <0>        -0.2115
      8 C7         -2.1795   -6.1814   -0.0040 C.ar      1 <0>         0.0070
      9 C8         -3.4910   -6.6671    0.0005 C.ar      1 <0>        -0.2114
     10 C9         -4.5651   -5.7715    0.0097 C.ar      1 <0>        -0.0097
     11 C10        -4.3293   -4.4208    0.0197 C.ar      1 <0>        -0.2142
     12 C11        -3.7406   -8.1197   -0.0049 C.2       1 <0>         0.5244
     13 O1         -2.8063   -8.8967   -0.0133 O.2       1 <0>        -0.4985
     14 O2         -5.0049   -8.5861   -0.0005 O.3       1 <0>        -0.3704
     15 C12        -5.1729  -10.0052   -0.0062 C.3       1 <0>         0.0311
     16 C13        -6.6653  -10.3421   -0.0000 C.3       1 <0>        -0.0016
     17 N2         -7.2783   -9.8732   -1.2499 N.4       1 <0>        -0.3894
     18 C14        -6.7157  -10.6213   -2.3821 C.3       1 <0>        -0.0551
     19 C15        -8.7304  -10.0884   -1.1940 C.3       1 <0>        -0.0472
     20 H1          1.0039    1.9031    0.0027 H         1 <0>         0.0594
     21 H2         -0.5459    1.8868   -0.8726 H         1 <0>         0.0554
     22 H3         -0.5289    1.8773    0.9072 H         1 <0>         0.0556
     23 H4          0.5123   -0.3556   -0.8948 H         1 <0>         0.0660
     24 H5          0.5293   -0.3651    0.8851 H         1 <0>         0.0663
     25 H6         -1.9435   -0.1821    0.9097 H         1 <0>         0.0711
     26 H7         -1.9605   -0.1726   -0.8702 H         1 <0>         0.0709
     27 H8         -0.9024   -2.4150   -0.8923 H         1 <0>         0.0688
     28 H9         -0.8854   -2.4246    0.8875 H         1 <0>         0.0690
     29 H10        -3.5327   -1.9503    0.0253 H         1 <0>         0.4062
     30 H11        -0.9383   -4.4538   -0.0033 H         1 <0>         0.1354
     31 H12        -1.3478   -6.8704   -0.0115 H         1 <0>         0.1381
     32 H13        -5.5790   -6.1433    0.0133 H         1 <0>         0.1303
     33 H14        -5.1583   -3.7287    0.0309 H         1 <0>         0.1315
     34 H15        -4.7099  -10.4223   -0.9005 H         1 <0>         0.0927
     35 H16        -4.7007  -10.4305    0.8794 H         1 <0>         0.1143
     36 H17        -6.7938  -11.4211    0.0852 H         1 <0>         0.1503
     37 H18        -7.1452   -9.8510    0.8466 H         1 <0>         0.1433
     38 H19        -7.1706  -10.2734   -3.3095 H         1 <0>         0.1275
     39 H20        -5.6383  -10.4617   -2.4236 H         1 <0>         0.1218
     40 H21        -6.9208  -11.6841   -2.2531 H         1 <0>         0.1253
     41 H22        -9.1479   -9.5332   -0.3540 H         1 <0>         0.1249
     42 H23        -9.1853   -9.7404   -2.1214 H         1 <0>         0.1257
     43 H24        -8.9355  -11.1511   -1.0651 H         1 <0>         0.1232
     44 H25        -7.0885   -8.8894   -1.3693 H         1 <0>         0.4327
@<TRIPOS>BOND
     1    1    2 1
     2    1   20 1
     3    1   21 1
     4    1   22 1
     5    2    3 1
     6    2   23 1
     7    2   24 1
     8    3    4 1
     9    3   25 1
    10    3   26 1
    11    4    5 1
    12    4   27 1
    13    4   28 1
    14    5    6 1
    15    5   29 1
    16    6   11 ar
    17    6    7 ar
    18    7    8 ar
    19    7   30 1
    20    8    9 ar
    21    8   31 1
    22    9   10 ar
    23    9   12 1
    24   10   11 ar
    25   10   32 1
    26   11   33 1
    27   12   13 2
    28   12   14 1
    29   14   15 1
    30   15   16 1
    31   15   34 1
    32   15   35 1
    33   16   17 1
    34   16   36 1
    35   16   37 1
    36   17   18 1
    37   17   19 1
    38   17   44 1
    39   18   38 1
    40   18   39 1
    41   18   40 1
    42   19   41 1
    43   19   42 1
    44   19   43 1
@<TRIPOS>MOLECULE
ZINC26506755
   42    43     0     0     0
SMALL
USER_CHARGES
(2R)-2-[[4-[(3-fluorophenyl)methoxy]phenyl]methylamino]propanamide
@<TRIPOS>ATOM
      1 C1          1.8802    2.0746    1.4323 C.3       1 <0>        -0.1799
      2 C2          1.3463    2.0098   -0.0000 C.3       1 <0>         0.0116
      3 H1          1.9664    1.3473   -0.6218 H         1 <0>         0.1595
      4 C3          1.3293    3.3952   -0.5929 C.2       1 <0>         0.5102
      5 O1          0.2838    3.8807   -0.9699 O.2       1 <0>        -0.5393
      6 N1          2.4759    4.0947   -0.7042 N.am      1 <0>        -0.8511
      7 N2         -0.0178    1.4648    0.0101 N.4       1 <0>        -0.5302
      8 C4          0.0021   -0.0041    0.0020 C.3       1 <0>         0.0561
      9 C5         -1.4117   -0.5257    0.0127 C.ar      1 <0>        -0.2076
     10 C6         -2.0458   -0.7764    1.2156 C.ar      1 <0>        -0.0468
     11 C7         -3.3438   -1.2492    1.2281 C.ar      1 <0>        -0.2110
     12 C8         -4.0071   -1.4832    0.0324 C.ar      1 <0>         0.1721
     13 C9         -3.3667   -1.2363   -1.1733 C.ar      1 <0>        -0.1495
     14 C10        -2.0706   -0.7581   -1.1804 C.ar      1 <0>        -0.0488
     15 O2         -5.2822   -1.9532    0.0420 O.3       1 <0>        -0.2987
     16 C11        -5.8787   -2.1846    1.3198 C.3       1 <0>         0.0988
     17 C12        -7.2823   -2.7002    1.1330 C.ar      1 <0>        -0.0788
     18 C13        -7.5120   -4.0603    1.0371 C.ar      1 <0>        -0.1044
     19 C14        -8.7989   -4.5346    0.8657 C.ar      1 <0>        -0.0895
     20 C15        -9.8579   -3.6496    0.7900 C.ar      1 <0>        -0.1369
     21 C16        -9.6292   -2.2876    0.8859 C.ar      1 <0>         0.0999
     22 C17        -8.3401   -1.8138    1.0632 C.ar      1 <0>        -0.1301
     23 F1        -10.6635   -1.4216    0.8124 F         1 <0>        -0.1335
     24 H2          1.8926    1.0634    1.8651 H         1 <0>         0.0953
     25 H3          1.2302    2.7242    2.0368 H         1 <0>         0.0898
     26 H4          2.9016    2.4828    1.4247 H         1 <0>         0.1092
     27 H5          2.4635    5.1059   -1.1370 H         1 <0>         0.4499
     28 H6          3.4242    3.6544   -0.3623 H         1 <0>         0.4340
     29 H7         -0.5420    1.8055    0.9152 H         1 <0>         0.4500
     30 H8          0.5170   -0.3588   -0.9030 H         1 <0>         0.1338
     31 H9          0.5341   -0.3685    0.8931 H         1 <0>         0.1339
     32 H10        -1.5274   -0.5982    2.1461 H         1 <0>         0.1341
     33 H11        -3.8401   -1.4407    2.1680 H         1 <0>         0.1407
     34 H12        -3.8811   -1.4174   -2.1055 H         1 <0>         0.1440
     35 H13        -1.5718   -0.5654   -2.1187 H         1 <0>         0.1380
     36 H14        -5.2854   -2.9282    1.8721 H         1 <0>         0.0835
     37 H15        -5.9066   -1.2428    1.8874 H         1 <0>         0.0810
     38 H16        -6.6852   -4.7526    1.0965 H         1 <0>         0.1329
     39 H17        -8.9771   -5.5972    0.7913 H         1 <0>         0.1408
     40 H18       -10.8634   -4.0204    0.6564 H         1 <0>         0.1425
     41 H19        -8.1610   -0.7517    1.1426 H         1 <0>         0.1374
     42 H20        -0.5593    1.8151   -0.8810 H         1 <0>         0.4568
@<TRIPOS>BOND
     1    1    2 1
     2    1   24 1
     3    1   25 1
     4    1   26 1
     5    2    3 1
     6    2    4 1
     7    2    7 1
     8    4    5 2
     9    4    6 am
    10    6   27 1
    11    6   28 1
    12    7    8 1
    13    7   29 1
    14    7   42 1
    15    8    9 1
    16    8   30 1
    17    8   31 1
    18    9   14 ar
    19    9   10 ar
    20   10   11 ar
    21   10   32 1
    22   11   12 ar
    23   11   33 1
    24   12   13 ar
    25   12   15 1
    26   13   14 ar
    27   13   34 1
    28   14   35 1
    29   15   16 1
    30   16   17 1
    31   16   36 1
    32   16   37 1
    33   17   22 ar
    34   17   18 ar
    35   18   19 ar
    36   18   38 1
    37   19   20 ar
    38   19   39 1
    39   20   21 ar
    40   20   40 1
    41   21   22 ar
    42   21   23 1
    43   22   41 1
@<TRIPOS>MOLECULE
ZINC26506755
   41    42     0     0     0
SMALL
USER_CHARGES
(2R)-2-[[4-[(3-fluorophenyl)methoxy]phenyl]methylamino]propanamide
@<TRIPOS>ATOM
      1 C1          1.8802    2.0746    1.4323 C.3       1 <0>        -0.1787
      2 C2          1.3463    2.0098   -0.0000 C.3       1 <0>         0.0562
      3 H1          1.9664    1.3473   -0.6218 H         1 <0>         0.1025
      4 C3          1.3293    3.3952   -0.5929 C.2       1 <0>         0.5213
      5 O1          0.2838    3.8807   -0.9699 O.2       1 <0>        -0.5276
      6 N1          2.4759    4.0947   -0.7042 N.am      1 <0>        -0.8826
      7 N2         -0.0178    1.4648    0.0101 N.3       1 <0>        -0.6458
      8 C4          0.0021   -0.0041    0.0020 C.3       1 <0>         0.0936
      9 C5         -1.4117   -0.5257    0.0127 C.ar      1 <0>        -0.1190
     10 C6         -2.0458   -0.7764    1.2156 C.ar      1 <0>        -0.0718
     11 C7         -3.3438   -1.2492    1.2281 C.ar      1 <0>        -0.2094
     12 C8         -4.0071   -1.4832    0.0324 C.ar      1 <0>         0.1314
     13 C9         -3.3667   -1.2363   -1.1733 C.ar      1 <0>        -0.1503
     14 C10        -2.0706   -0.7581   -1.1804 C.ar      1 <0>        -0.0541
     15 O2         -5.2822   -1.9532    0.0420 O.3       1 <0>        -0.3080
     16 C11        -5.8787   -2.1846    1.3198 C.3       1 <0>         0.0992
     17 C12        -7.2823   -2.7002    1.1330 C.ar      1 <0>        -0.0681
     18 C13        -7.5120   -4.0603    1.0371 C.ar      1 <0>        -0.1058
     19 C14        -8.7989   -4.5346    0.8657 C.ar      1 <0>        -0.0920
     20 C15        -9.8579   -3.6496    0.7900 C.ar      1 <0>        -0.1432
     21 C16        -9.6292   -2.2876    0.8859 C.ar      1 <0>         0.0972
     22 C17        -8.3401   -1.8138    1.0632 C.ar      1 <0>        -0.1302
     23 F1        -10.6635   -1.4216    0.8124 F         1 <0>        -0.1365
     24 H2          1.8926    1.0634    1.8651 H         1 <0>         0.0674
     25 H3          1.2302    2.7242    2.0368 H         1 <0>         0.0668
     26 H4          2.9016    2.4828    1.4247 H         1 <0>         0.0688
     27 H5          2.4635    5.1059   -1.1370 H         1 <0>         0.4216
     28 H6          3.4242    3.6544   -0.3623 H         1 <0>         0.4158
     29 H7          0.5170   -0.3588   -0.9030 H         1 <0>         0.0809
     30 H8          0.5341   -0.3685    0.8931 H         1 <0>         0.0414
     31 H9         -1.5274   -0.5982    2.1461 H         1 <0>         0.1221
     32 H10        -3.8401   -1.4407    2.1680 H         1 <0>         0.1275
     33 H11        -3.8811   -1.4174   -2.1055 H         1 <0>         0.1312
     34 H12        -1.5718   -0.5654   -2.1187 H         1 <0>         0.1301
     35 H13        -5.2854   -2.9282    1.8721 H         1 <0>         0.0776
     36 H14        -5.9066   -1.2428    1.8874 H         1 <0>         0.0761
     37 H15        -6.6852   -4.7526    1.0965 H         1 <0>         0.1326
     38 H16        -8.9771   -5.5972    0.7913 H         1 <0>         0.1378
     39 H17       -10.8634   -4.0204    0.6564 H         1 <0>         0.1389
     40 H18        -8.1610   -0.7517    1.1426 H         1 <0>         0.1382
     41 H19        -0.5420    1.8055    0.9152 H         1 <0>         0.3472
@<TRIPOS>BOND
     1    1    2 1
     2    1   24 1
     3    1   25 1
     4    1   26 1
     5    2    3 1
     6    2    4 1
     7    2    7 1
     8    4    5 2
     9    4    6 am
    10    6   27 1
    11    6   28 1
    12    7    8 1
    13    7   41 1
    14    8    9 1
    15    8   29 1
    16    8   30 1
    17    9   14 ar
    18    9   10 ar
    19   10   11 ar
    20   10   31 1
    21   11   12 ar
    22   11   32 1
    23   12   13 ar
    24   12   15 1
    25   13   14 ar
    26   13   33 1
    27   14   34 1
    28   15   16 1
    29   16   17 1
    30   16   35 1
    31   16   36 1
    32   17   22 ar
    33   17   18 ar
    34   18   19 ar
    35   18   37 1
    36   19   20 ar
    37   19   38 1
    38   20   21 ar
    39   20   39 1
    40   21   22 ar
    41   21   23 1
    42   22   40 1
@<TRIPOS>MOLECULE
ZINC22034381
   72    75     0     0     0
SMALL
USER_CHARGES

@<TRIPOS>ATOM
      1 C1          2.8879    0.8272    3.2756 C.3       1 <0>        -0.1059
      2 C2          2.1160    1.5296    2.1885 C.ar      1 <0>        -0.0686
      3 C3          2.3303    1.1994    0.8647 C.ar      1 <0>        -0.1146
      4 C4          1.6228    1.8438   -0.1335 C.ar      1 <0>        -0.1081
      5 C5          0.6985    2.8201    0.1900 C.ar      1 <0>        -0.1141
      6 C6          0.4793    3.1547    1.5120 C.ar      1 <0>        -0.0899
      7 C7          1.1844    2.5057    2.5171 C.ar      1 <0>         0.1251
      8 N1          0.9605    2.8382    3.8576 N.am      1 <0>        -0.6700
      9 C8          0.6338    1.8776    4.7447 C.2       1 <0>         0.5127
     10 O1          0.4700    0.7359    4.3695 O.2       1 <0>        -0.5041
     11 C9          0.4719    2.2220    6.2029 C.3       1 <0>         0.0359
     12 N2          0.1175    1.0113    6.9556 N.3       1 <0>        -0.5207
     13 C10        -1.2125    0.5206    6.5680 C.3       1 <0>         0.0195
     14 C11        -1.5180   -0.7714    7.3291 C.3       1 <0>         0.0016
     15 N3         -1.4754   -0.5104    8.7739 N.4       1 <0>        -0.3873
     16 C12        -0.1341   -0.0445    9.1498 C.3       1 <0>        -0.0044
     17 C13         0.1829    1.2535    8.4038 C.3       1 <0>         0.0268
     18 C14        -1.7865   -1.7466    9.5039 C.3       1 <0>        -0.0094
     19 C15        -1.8649   -1.4480   11.0024 C.3       1 <0>        -0.1501
     20 C16        -2.1889   -2.7356   11.7627 C.3       1 <0>        -0.1092
     21 C17        -2.2674   -2.4370   13.2613 C.3       1 <0>         0.0021
     22 C18        -3.4274   -1.5131   13.5293 C.ar      1 <0>        -0.0950
     23 C19        -4.6899   -1.8382   13.0694 C.ar      1 <0>        -0.0886
     24 C20        -5.7545   -0.9920   13.3150 C.ar      1 <0>        -0.1501
     25 C21        -5.5563    0.1819   14.0220 C.ar      1 <0>         0.1032
     26 C22        -4.2914    0.5064   14.4822 C.ar      1 <0>        -0.1496
     27 C23        -3.2293   -0.3440   14.2399 C.ar      1 <0>        -0.0849
     28 F1         -6.5962    1.0101   14.2624 F         1 <0>        -0.1347
     29 C24        -2.4644   -3.7240   14.0203 C.ar      1 <0>        -0.0977
     30 C25        -3.4814   -4.5888   13.6613 C.ar      1 <0>        -0.0867
     31 C26        -3.6628   -5.7694   14.3563 C.ar      1 <0>        -0.1502
     32 C27        -2.8253   -6.0860   15.4125 C.ar      1 <0>         0.1059
     33 C28        -1.8070   -5.2191   15.7711 C.ar      1 <0>        -0.1488
     34 C29        -1.6243   -4.0415   15.0713 C.ar      1 <0>        -0.0810
     35 F2         -3.0019   -7.2397   16.0929 F         1 <0>        -0.1343
     36 C30        -0.5278    4.2192    1.8636 C.3       1 <0>        -0.1111
     37 H1          2.4056   -0.1221    3.5084 H         1 <0>         0.0813
     38 H2          3.9074    0.6433    2.9366 H         1 <0>         0.0648
     39 H3          2.9091    1.4525    4.1682 H         1 <0>         0.0536
     40 H4          3.0515    0.4372    0.6088 H         1 <0>         0.1277
     41 H5          1.7927    1.5842   -1.1680 H         1 <0>         0.1283
     42 H6          0.1478    3.3218   -0.5919 H         1 <0>         0.1287
     43 H7          1.0404    3.7601    4.1485 H         1 <0>         0.4087
     44 H8          1.4082    2.6274    6.5866 H         1 <0>         0.1199
     45 H9         -0.3185    2.9642    6.3154 H         1 <0>         0.0783
     46 H10        -1.9630    1.2725    6.8119 H         1 <0>         0.0568
     47 H11        -1.2294    0.3238    5.4960 H         1 <0>         0.1398
     48 H12        -2.5100   -1.1294    7.0536 H         1 <0>         0.1354
     49 H13        -0.7752   -1.5274    7.0744 H         1 <0>         0.1400
     50 H14        -0.1001    0.1363   10.2241 H         1 <0>         0.1379
     51 H15         0.6016   -0.8042    8.8858 H         1 <0>         0.1394
     52 H16         1.1841    1.5914    8.6712 H         1 <0>         0.1251
     53 H17        -0.5445    2.0175    8.6780 H         1 <0>         0.0623
     54 H18        -2.7436   -2.1399    9.1612 H         1 <0>         0.1315
     55 H19        -1.0043   -2.4833    9.3207 H         1 <0>         0.1323
     56 H20        -0.9079   -1.0547   11.3452 H         1 <0>         0.0894
     57 H21        -2.6471   -0.7113   11.1857 H         1 <0>         0.0896
     58 H22        -3.1460   -3.1289   11.4200 H         1 <0>         0.0797
     59 H23        -1.4068   -3.4723   11.5795 H         1 <0>         0.0845
     60 H24        -1.3418   -1.9617   13.5860 H         1 <0>         0.0945
     61 H25        -4.8442   -2.7537   12.5176 H         1 <0>         0.1321
     62 H26        -6.7406   -1.2460   12.9553 H         1 <0>         0.1379
     63 H27        -4.1355    1.4219   15.0336 H         1 <0>         0.1386
     64 H28        -2.2434   -0.0932   14.6026 H         1 <0>         0.1334
     65 H29        -4.1347   -4.3414   12.8376 H         1 <0>         0.1302
     66 H30        -4.4576   -6.4447   14.0759 H         1 <0>         0.1384
     67 H31        -1.1534   -5.4649   16.5950 H         1 <0>         0.1396
     68 H32        -0.8273   -3.3672   15.3480 H         1 <0>         0.1335
     69 H33        -1.4841    3.7515    2.0978 H         1 <0>         0.0695
     70 H34        -0.1761    4.7803    2.7294 H         1 <0>         0.0610
     71 H35        -0.6516    4.8957    1.0180 H         1 <0>         0.0729
     72 H36        -2.1550    0.1979    9.0077 H         1 <0>         0.4194
@<TRIPOS>BOND
     1    1    2 1
     2    1   37 1
     3    1   38 1
     4    1   39 1
     5    2    7 ar
     6    2    3 ar
     7    3    4 ar
     8    3   40 1
     9    4    5 ar
    10    4   41 1
    11    5    6 ar
    12    5   42 1
    13    6    7 ar
    14    6   36 1
    15    7    8 1
    16    8    9 am
    17    8   43 1
    18    9   10 2
    19    9   11 1
    20   11   12 1
    21   11   44 1
    22   11   45 1
    23   12   17 1
    24   12   13 1
    25   13   14 1
    26   13   46 1
    27   13   47 1
    28   14   15 1
    29   14   48 1
    30   14   49 1
    31   15   16 1
    32   15   18 1
    33   15   72 1
    34   16   17 1
    35   16   50 1
    36   16   51 1
    37   17   52 1
    38   17   53 1
    39   18   19 1
    40   18   54 1
    41   18   55 1
    42   19   20 1
    43   19   56 1
    44   19   57 1
    45   20   21 1
    46   20   58 1
    47   20   59 1
    48   21   22 1
    49   21   29 1
    50   21   60 1
    51   22   27 ar
    52   22   23 ar
    53   23   24 ar
    54   23   61 1
    55   24   25 ar
    56   24   62 1
    57   25   26 ar
    58   25   28 1
    59   26   27 ar
    60   26   63 1
    61   27   64 1
    62   29   34 ar
    63   29   30 ar
    64   30   31 ar
    65   30   65 1
    66   31   32 ar
    67   31   66 1
    68   32   33 ar
    69   32   35 1
    70   33   34 ar
    71   33   67 1
    72   34   68 1
    73   36   69 1
    74   36   70 1
    75   36   71 1
@<TRIPOS>MOLECULE
ZINC22034381
   72    75     0     0     0
SMALL
USER_CHARGES

@<TRIPOS>ATOM
      1 C1          2.6923    1.0341    3.2042 C.3       1 <0>        -0.1099
      2 C2          1.8864    1.7064    2.1227 C.ar      1 <0>        -0.0659
      3 C3          2.1050    1.3858    0.7972 C.ar      1 <0>        -0.1135
      4 C4          1.3662    2.0026   -0.1958 C.ar      1 <0>        -0.0983
      5 C5          0.4063    2.9415    0.1346 C.ar      1 <0>        -0.1120
      6 C6          0.1826    3.2662    1.4583 C.ar      1 <0>        -0.0801
      7 C7          0.9192    2.6447    2.4582 C.ar      1 <0>         0.1090
      8 N1          0.6909    2.9672    3.8005 N.am      1 <0>        -0.6439
      9 C8          0.4080    1.9938    4.6887 C.2       1 <0>         0.4988
     10 O1          0.2870    0.8468    4.3133 O.2       1 <0>        -0.5081
     11 C9          0.2421    2.3305    6.1482 C.3       1 <0>        -0.0294
     12 N2         -0.0595    1.1062    6.9019 N.4       1 <0>        -0.3723
     13 C10        -1.3604    0.5757    6.4735 C.3       1 <0>        -0.0128
     14 C11        -1.6664   -0.7099    7.2449 C.3       1 <0>         0.0306
     15 N3         -1.6865   -0.4203    8.6857 N.3       1 <0>        -0.5387
     16 C12        -0.3984    0.1349    9.1245 C.3       1 <0>         0.0227
     17 C13        -0.1029    1.4136    8.3376 C.3       1 <0>        -0.0026
     18 C14        -2.0335   -1.6201    9.4591 C.3       1 <0>         0.0540
     19 C15        -2.2886   -1.2312   10.9167 C.3       1 <0>        -0.1171
     20 C16        -2.6500   -2.4809   11.7221 C.3       1 <0>        -0.1115
     21 C17        -2.9051   -2.0920   13.1797 C.3       1 <0>        -0.0001
     22 C18        -4.1193   -1.2028   13.2572 C.ar      1 <0>        -0.0853
     23 C19        -5.3107   -1.6091   12.6856 C.ar      1 <0>        -0.0857
     24 C20        -6.4249   -0.7947   12.7565 C.ar      1 <0>        -0.1495
     25 C21        -6.3478    0.4287   13.4003 C.ar      1 <0>         0.0992
     26 C22        -5.1541    0.8346   13.9724 C.ar      1 <0>        -0.1502
     27 C23        -4.0425    0.0162   13.9049 C.ar      1 <0>        -0.0851
     28 F1         -7.4363    1.2258   13.4698 F         1 <0>        -0.1376
     29 C24        -3.1403   -3.3357   13.9977 C.ar      1 <0>        -0.0921
     30 C25        -4.0802   -4.2635   13.5892 C.ar      1 <0>        -0.0863
     31 C26        -4.2964   -5.4046   14.3382 C.ar      1 <0>        -0.1503
     32 C27        -3.5711   -5.6184   15.4982 C.ar      1 <0>         0.1015
     33 C28        -2.6300   -4.6884   15.9063 C.ar      1 <0>        -0.1498
     34 C29        -2.4118   -3.5506   15.1528 C.ar      1 <0>        -0.0835
     35 F2         -3.7819   -6.7333   16.2314 F         1 <0>        -0.1363
     36 C30        -0.8634    4.2900    1.8174 C.3       1 <0>        -0.1152
     37 H1          2.2493    0.0663    3.4391 H         1 <0>         0.0817
     38 H2          3.7160    0.8907    2.8584 H         1 <0>         0.0719
     39 H3          2.6946    1.6591    4.0972 H         1 <0>         0.0488
     40 H4          2.8540    0.6529    0.5359 H         1 <0>         0.1313
     41 H5          1.5396    1.7507   -1.2316 H         1 <0>         0.1324
     42 H6         -0.1688    3.4217   -0.6432 H         1 <0>         0.1332
     43 H7          0.7363    3.8913    4.0918 H         1 <0>         0.4162
     44 H8          1.1641    2.7721    6.5263 H         1 <0>         0.1623
     45 H9         -0.5762    3.0408    6.2665 H         1 <0>         0.1624
     46 H10        -2.1374    1.3134    6.6740 H         1 <0>         0.1344
     47 H11        -1.3310    0.3602    5.4054 H         1 <0>         0.1514
     48 H12        -2.6385   -1.0957    6.9379 H         1 <0>         0.1234
     49 H13        -0.8969   -1.4526    7.0340 H         1 <0>         0.0618
     50 H14        -0.4454    0.3655   10.1888 H         1 <0>         0.1277
     51 H15         0.3920   -0.5938    8.9445 H         1 <0>         0.0614
     52 H16         0.8589    1.8193    8.6515 H         1 <0>         0.1371
     53 H17        -0.8863    2.1470    8.5286 H         1 <0>         0.1406
     54 H18        -2.9321   -2.0742    9.0415 H         1 <0>         0.0886
     55 H19        -1.2105   -2.3333    9.4120 H         1 <0>         0.0473
     56 H20        -1.3900   -0.7771   11.3342 H         1 <0>         0.0641
     57 H21        -3.1116   -0.5181   10.9637 H         1 <0>         0.0805
     58 H22        -3.5486   -2.9350   11.3046 H         1 <0>         0.0720
     59 H23        -1.8270   -3.1940   11.6751 H         1 <0>         0.0725
     60 H24        -2.0386   -1.5586   13.5705 H         1 <0>         0.0906
     61 H25        -5.3705   -2.5633   12.1832 H         1 <0>         0.1312
     62 H26        -7.3554   -1.1122   12.3095 H         1 <0>         0.1363
     63 H27        -5.0927    1.7888   14.4745 H         1 <0>         0.1363
     64 H28        -3.1125    0.3307   14.3549 H         1 <0>         0.1315
     65 H29        -4.6460   -4.0963   12.6846 H         1 <0>         0.1311
     66 H30        -5.0310   -6.1291   14.0192 H         1 <0>         0.1373
     67 H31        -2.0639   -4.8540   16.8110 H         1 <0>         0.1379
     68 H32        -1.6746   -2.8272   15.4685 H         1 <0>         0.1326
     69 H33        -1.7990    3.7848    2.0572 H         1 <0>         0.0733
     70 H34        -0.5284    4.8638    2.6814 H         1 <0>         0.0616
     71 H35        -1.0192    4.9617    0.9733 H         1 <0>         0.0771
     72 H36         0.6578    0.4185    6.7270 H         1 <0>         0.4271
@<TRIPOS>BOND
     1    1    2 1
     2    1   37 1
     3    1   38 1
     4    1   39 1
     5    2    7 ar
     6    2    3 ar
     7    3    4 ar
     8    3   40 1
     9    4    5 ar
    10    4   41 1
    11    5    6 ar
    12    5   42 1
    13    6    7 ar
    14    6   36 1
    15    7    8 1
    16    8    9 am
    17    8   43 1
    18    9   10 2
    19    9   11 1
    20   11   12 1
    21   11   44 1
    22   11   45 1
    23   12   17 1
    24   12   13 1
    25   12   72 1
    26   13   14 1
    27   13   46 1
    28   13   47 1
    29   14   15 1
    30   14   48 1
    31   14   49 1
    32   15   16 1
    33   15   18 1
    34   16   17 1
    35   16   50 1
    36   16   51 1
    37   17   52 1
    38   17   53 1
    39   18   19 1
    40   18   54 1
    41   18   55 1
    42   19   20 1
    43   19   56 1
    44   19   57 1
    45   20   21 1
    46   20   58 1
    47   20   59 1
    48   21   22 1
    49   21   29 1
    50   21   60 1
    51   22   27 ar
    52   22   23 ar
    53   23   24 ar
    54   23   61 1
    55   24   25 ar
    56   24   62 1
    57   25   26 ar
    58   25   28 1
    59   26   27 ar
    60   26   63 1
    61   27   64 1
    62   29   34 ar
    63   29   30 ar
    64   30   31 ar
    65   30   65 1
    66   31   32 ar
    67   31   66 1
    68   32   33 ar
    69   32   35 1
    70   33   34 ar
    71   33   67 1
    72   34   68 1
    73   36   69 1
    74   36   70 1
    75   36   71 1
