@<TRIPOS>MOLECULE
ZINC34271593
   57    58     0     0     0
SMALL
USER_CHARGES

@<TRIPOS>ATOM
      1 C1         -0.2231    1.5933    0.1239 C.ar      1 <0>        -0.0754
      2 C2          0.9418    2.3357    0.1365 C.ar      1 <0>        -0.1466
      3 C3          2.1717    1.6940    0.1530 C.ar      1 <0>         0.1251
      4 C4          2.2283    0.3079    0.1568 C.ar      1 <0>        -0.2079
      5 C5          1.0605   -0.4300    0.1442 C.ar      1 <0>        -0.0762
      6 C6         -0.1640    0.2119    0.1277 C.ar      1 <0>        -0.1203
      7 C7         -1.4364   -0.5955    0.1144 C.3       1 <0>        -0.0760
      8 C8         -1.8499   -0.8720   -1.3325 C.3       1 <0>        -0.1100
      9 C9         -3.1417   -1.6917   -1.3459 C.3       1 <0>        -0.1317
     10 C10        -3.5552   -1.9682   -2.7928 C.3       1 <0>         0.1050
     11 N1         -4.7922   -2.7531   -2.8057 N.pl3     1 <0>        -0.7437
     12 C11        -5.3540   -3.1211   -3.9930 C.2       1 <0>         0.7007
     13 N2         -4.8221   -2.6742   -5.1669 N.pl3     1 <0>        -0.8243
     14 N3         -6.4155   -3.9121   -4.0060 N.2       1 <0>        -0.6699
     15 C12        -7.0043   -4.2629   -2.8534 C.2       1 <0>         0.5992
     16 O1         -7.4284   -3.4042   -2.0998 O.2       1 <0>        -0.5522
     17 C13        -7.1390   -5.6899   -2.4973 C.ar      1 <0>        -0.1020
     18 C14        -7.6458   -6.0562   -1.2409 C.ar      1 <0>         0.4626
     19 N4         -7.7651   -7.3402   -0.9262 N.ar      1 <0>        -0.5665
     20 C15        -7.4053   -8.2718   -1.7997 C.ar      1 <0>         0.4591
     21 C16        -6.8999   -7.9030   -3.0515 C.ar      1 <0>        -0.0071
     22 N5         -6.7848   -6.6317   -3.3703 N.ar      1 <0>        -0.2987
     23 Cl1        -6.4302   -9.1266   -4.1899 Cl        1 <0>        -0.0263
     24 N6         -7.5296   -9.6116   -1.4718 N.pl3     1 <0>        -0.8181
     25 N7         -8.0196   -5.0815   -0.3324 N.pl3     1 <0>        -0.8099
     26 O2          3.3192    2.4221    0.1649 O.3       1 <0>        -0.3022
     27 C17         4.5490    1.6946    0.1816 C.3       1 <0>         0.0309
     28 C18         5.7223    2.6765    0.1932 C.3       1 <0>         0.1093
     29 H1          5.6125    3.3639    1.0320 H         1 <0>         0.1170
     30 C19         7.0340    1.9021    0.3368 C.3       1 <0>         0.0489
     31 O3          8.1192    2.8229    0.4646 O.3       1 <0>        -0.5601
     32 O4          5.7369    3.4157   -1.0297 O.3       1 <0>        -0.5412
     33 H2         -1.1809    2.0923    0.1156 H         1 <0>         0.1297
     34 H3          0.8951    3.4146    0.1331 H         1 <0>         0.1319
     35 H4          3.1846   -0.1940    0.1693 H         1 <0>         0.1254
     36 H5          1.1040   -1.5091    0.1472 H         1 <0>         0.1239
     37 H6         -1.2725   -1.5405    0.6324 H         1 <0>         0.0719
     38 H7         -2.2261   -0.0375    0.6177 H         1 <0>         0.0737
     39 H8         -2.0138    0.0730   -1.8504 H         1 <0>         0.0693
     40 H9         -1.0603   -1.4300   -1.8357 H         1 <0>         0.0675
     41 H10        -2.9779   -2.6367   -0.8280 H         1 <0>         0.0717
     42 H11        -3.9314   -1.1337   -0.8427 H         1 <0>         0.0750
     43 H12        -3.7191   -1.0232   -3.3108 H         1 <0>         0.0706
     44 H13        -2.7656   -2.5262   -3.2961 H         1 <0>         0.0699
     45 H14        -5.2216   -2.9360   -6.0111 H         1 <0>         0.4256
     46 H15        -4.0443   -2.0947   -5.1574 H         1 <0>         0.4100
     47 H16        -5.2116   -3.0110   -1.9700 H         1 <0>         0.4175
     48 H17        -7.8795   -9.8682   -0.6043 H         1 <0>         0.4130
     49 H18        -7.2668  -10.2934   -2.1097 H         1 <0>         0.4179
     50 H19        -8.0066   -4.1467   -0.5912 H         1 <0>         0.4282
     51 H20        -8.2945   -5.3330    0.5632 H         1 <0>         0.4027
     52 H21         4.5894    1.0697    1.0738 H         1 <0>         0.0739
     53 H22         4.6108    1.0650   -0.7060 H         1 <0>         0.0683
     54 H23         6.9875    1.2699    1.2235 H         1 <0>         0.0591
     55 H24         7.1872    1.2802   -0.5452 H         1 <0>         0.0534
     56 H25         8.9840    2.4009    0.5598 H         1 <0>         0.3846
     57 H26         5.8321    2.8666   -1.8200 H         1 <0>         0.3734
@<TRIPOS>BOND
     1    1    6 ar
     2    1    2 ar
     3    1   33 1
     4    2    3 ar
     5    2   34 1
     6    3    4 ar
     7    3   26 1
     8    4    5 ar
     9    4   35 1
    10    5    6 ar
    11    5   36 1
    12    6    7 1
    13    7    8 1
    14    7   37 1
    15    7   38 1
    16    8    9 1
    17    8   39 1
    18    8   40 1
    19    9   10 1
    20    9   41 1
    21    9   42 1
    22   10   43 1
    23   10   44 1
    24   10   11 1
    25   11   12 1
    26   11   47 1
    27   12   13 1
    28   12   14 2
    29   13   46 1
    30   13   45 1
    31   14   15 1
    32   15   16 2
    33   15   17 1
    34   17   22 ar
    35   17   18 ar
    36   18   19 ar
    37   18   25 1
    38   19   20 ar
    39   20   21 ar
    40   20   24 1
    41   21   22 ar
    42   21   23 1
    43   24   48 1
    44   24   49 1
    45   25   50 1
    46   25   51 1
    47   26   27 1
    48   27   28 1
    49   27   52 1
    50   27   53 1
    51   28   29 1
    52   28   30 1
    53   28   32 1
    54   30   31 1
    55   30   54 1
    56   30   55 1
    57   31   56 1
    58   32   57 1
@<TRIPOS>MOLECULE
ZINC34271593
   57    58     0     0     0
SMALL
USER_CHARGES

@<TRIPOS>ATOM
      1 C1         -0.2559    1.2424    0.1259 C.ar      1 <0>        -0.0755
      2 C2          0.9690    1.8770    0.1982 C.ar      1 <0>        -0.1469
      3 C3          2.1298    1.1289    0.3312 C.ar      1 <0>         0.1250
      4 C4          2.0570   -0.2552    0.3913 C.ar      1 <0>        -0.2081
      5 C5          0.8297   -0.8850    0.3186 C.ar      1 <0>        -0.0761
      6 C6         -0.3257   -0.1372    0.1860 C.ar      1 <0>        -0.1205
      7 C7         -1.6633   -0.8268    0.1074 C.3       1 <0>        -0.0758
      8 C8         -1.9963   -1.1288   -1.3550 C.3       1 <0>        -0.1108
      9 C9         -3.3543   -1.8290   -1.4348 C.3       1 <0>        -0.1312
     10 C10        -3.6873   -2.1310   -2.8973 C.3       1 <0>         0.1111
     11 N1         -4.9876   -2.8014   -2.9737 N.pl3     1 <0>        -0.7032
     12 C11        -5.4949   -3.1697   -4.1852 C.2       1 <0>         0.7012
     13 N2         -6.6699   -3.7756   -4.2542 N.2       1 <0>        -0.6746
     14 C12        -7.2105   -4.0560   -5.4489 C.2       1 <0>         0.6010
     15 O1         -6.6030   -4.7509   -6.2446 O.2       1 <0>        -0.5527
     16 C13        -8.5422   -3.5227   -5.8003 C.ar      1 <0>        -0.1012
     17 C14        -9.0575   -3.7135   -7.0918 C.ar      1 <0>         0.4627
     18 N3        -10.2549   -3.2320   -7.4023 N.ar      1 <0>        -0.5667
     19 C15       -10.9596   -2.5729   -6.4918 C.ar      1 <0>         0.4594
     20 C16       -10.4428   -2.3844   -5.2049 C.ar      1 <0>        -0.0069
     21 N4         -9.2588   -2.8644   -4.8905 N.ar      1 <0>        -0.2974
     22 Cl1       -11.3697   -1.5210   -4.0178 Cl        1 <0>        -0.0260
     23 N5        -12.2087   -2.0700   -6.8154 N.pl3     1 <0>        -0.8180
     24 N6         -8.3191   -4.4012   -8.0389 N.pl3     1 <0>        -0.8099
     25 N7         -4.7915   -2.9138   -5.3255 N.pl3     1 <0>        -0.8665
     26 O2          3.3360    1.7508    0.4020 O.3       1 <0>        -0.3023
     27 C17         4.4887    0.9173    0.5384 C.3       1 <0>         0.0309
     28 C18         5.7442    1.7894    0.6013 C.3       1 <0>         0.1092
     29 H1          5.6391    2.5203    1.4030 H         1 <0>         0.1170
     30 C19         6.9648    0.9075    0.8720 C.3       1 <0>         0.0489
     31 O3          8.1189    1.7319    1.0464 O.3       1 <0>        -0.5601
     32 O4          5.9147    2.4694   -0.6439 O.3       1 <0>        -0.5413
     33 H2         -1.1601    1.8246    0.0269 H         1 <0>         0.1297
     34 H3          1.0231    2.9546    0.1508 H         1 <0>         0.1317
     35 H4          2.9593   -0.8398    0.4944 H         1 <0>         0.1253
     36 H5          0.7726   -1.9625    0.3653 H         1 <0>         0.1243
     37 H6         -1.6252   -1.7589    0.6713 H         1 <0>         0.0729
     38 H7         -2.4317   -0.1785    0.5286 H         1 <0>         0.0742
     39 H8         -2.0343   -0.1968   -1.9189 H         1 <0>         0.0686
     40 H9         -1.2279   -1.7772   -1.7762 H         1 <0>         0.0674
     41 H10        -3.3162   -2.7610   -0.8709 H         1 <0>         0.0759
     42 H11        -4.1227   -1.1807   -1.0137 H         1 <0>         0.0770
     43 H12        -3.7253   -1.1990   -3.4612 H         1 <0>         0.0701
     44 H13        -2.9189   -2.7793   -3.3185 H         1 <0>         0.0694
     45 H14        -5.4878   -2.9835   -2.1628 H         1 <0>         0.4256
     46 H15       -12.5676   -2.1998   -7.7072 H         1 <0>         0.4131
     47 H16       -12.7247   -1.5879   -6.1504 H         1 <0>         0.4180
     48 H17        -7.4809   -4.8208   -7.7894 H         1 <0>         0.4281
     49 H18        -8.6398   -4.4637   -8.9522 H         1 <0>         0.4028
     50 H19        -3.8982   -2.5398   -5.2707 H         1 <0>         0.4006
     51 H20        -5.1846   -3.1058   -6.1912 H         1 <0>         0.4180
     52 H21         4.4071    0.3314    1.4539 H         1 <0>         0.0741
     53 H22         4.5551    0.2461   -0.3179 H         1 <0>         0.0682
     54 H23         6.7966    0.3219    1.7758 H         1 <0>         0.0591
     55 H24         7.1221    0.2359    0.0280 H         1 <0>         0.0534
     56 H25         8.9318    1.2385    1.2221 H         1 <0>         0.3846
     57 H26         6.0147    1.8796   -1.4037 H         1 <0>         0.3733
@<TRIPOS>BOND
     1    1    6 ar
     2    1    2 ar
     3    1   33 1
     4    2    3 ar
     5    2   34 1
     6    3    4 ar
     7    3   26 1
     8    4    5 ar
     9    4   35 1
    10    5    6 ar
    11    5   36 1
    12    6    7 1
    13    7    8 1
    14    7   37 1
    15    7   38 1
    16    8    9 1
    17    8   39 1
    18    8   40 1
    19    9   10 1
    20    9   41 1
    21    9   42 1
    22   10   11 1
    23   10   43 1
    24   10   44 1
    25   11   12 1
    26   11   45 1
    27   12   13 2
    28   12   25 1
    29   13   14 1
    30   14   15 2
    31   14   16 1
    32   16   21 ar
    33   16   17 ar
    34   17   18 ar
    35   17   24 1
    36   18   19 ar
    37   19   20 ar
    38   19   23 1
    39   20   21 ar
    40   20   22 1
    41   23   46 1
    42   23   47 1
    43   24   48 1
    44   24   49 1
    45   25   50 1
    46   25   51 1
    47   26   27 1
    48   27   28 1
    49   27   52 1
    50   27   53 1
    51   28   29 1
    52   28   30 1
    53   28   32 1
    54   30   31 1
    55   30   54 1
    56   30   55 1
    57   31   56 1
    58   32   57 1
@<TRIPOS>MOLECULE
ZINC34271593
   58    59     0     0     0
SMALL
USER_CHARGES

@<TRIPOS>ATOM
      1 C1          0.0310    1.3370    0.0044 C.ar      1 <0>        -0.0747
      2 C2          1.2207    2.0392   -0.0059 C.ar      1 <0>        -0.1469
      3 C3          2.4279    1.3559   -0.0250 C.ar      1 <0>         0.1315
      4 C4          2.4371   -0.0313   -0.0337 C.ar      1 <0>        -0.2082
      5 C5          1.2447   -0.7289   -0.0233 C.ar      1 <0>        -0.0750
      6 C6          0.0428   -0.0455   -0.0043 C.ar      1 <0>        -0.1296
      7 C7         -1.2564   -0.8090    0.0075 C.3       1 <0>        -0.0738
      8 C8         -1.7144   -1.0584   -1.4308 C.3       1 <0>        -0.1120
      9 C9         -3.0335   -1.8335   -1.4189 C.3       1 <0>        -0.1326
     10 C10        -3.4916   -2.0829   -2.8572 C.3       1 <0>         0.0772
     11 N1         -4.7546   -2.8251   -2.8458 N.pl3     1 <0>        -0.6586
     12 C11        -5.3623   -3.1659   -4.0307 C.cat     1 <0>         0.7306
     13 N2         -4.8736   -2.7386   -5.1595 N.pl3     1 <0>        -0.7572
     14 N3         -6.4905   -3.9610   -4.0240 N.am      1 <0>        -0.6464
     15 C12        -7.0585   -4.3150   -2.8542 C.2       1 <0>         0.6325
     16 O1         -6.5211   -4.0209   -1.8038 O.2       1 <0>        -0.5072
     17 C13        -8.3302   -5.0581   -2.8480 C.ar      1 <0>        -0.1469
     18 C14        -8.9838   -5.3245   -1.6336 C.ar      1 <0>         0.4959
     19 N4        -10.1299   -5.9943   -1.6344 N.ar      1 <0>        -0.5583
     20 C15       -10.6533   -6.4091   -2.7806 C.ar      1 <0>         0.4850
     21 C16        -9.9991   -6.1418   -3.9900 C.ar      1 <0>         0.0256
     22 N5         -8.8662   -5.4744   -3.9957 N.ar      1 <0>        -0.3333
     23 Cl1       -10.6896   -6.6875   -5.4863 Cl        1 <0>         0.0040
     24 N6        -11.8480   -7.1077   -2.7815 N.pl3     1 <0>        -0.7938
     25 N7         -8.4347   -4.8908   -0.4409 N.pl3     1 <0>        -0.7974
     26 O2          3.5996    2.0444   -0.0357 O.3       1 <0>        -0.3006
     27 C17         4.8038    1.2753   -0.0553 C.3       1 <0>         0.0308
     28 C18         6.0100    2.2165   -0.0649 C.3       1 <0>         0.1086
     29 H1          5.9444    2.8998    0.7818 H         1 <0>         0.1180
     30 C19         7.2975    1.3967    0.0399 C.3       1 <0>         0.0492
     31 O3          8.4165    2.2788    0.1481 O.3       1 <0>        -0.5595
     32 O4          6.0200    2.9656   -1.2819 O.3       1 <0>        -0.5405
     33 H2         -0.9090    1.8685    0.0239 H         1 <0>         0.1288
     34 H3          1.2109    3.1191    0.0005 H         1 <0>         0.1336
     35 H4          3.3756   -0.5655   -0.0490 H         1 <0>         0.1272
     36 H5          1.2513   -1.8088   -0.0300 H         1 <0>         0.1234
     37 H6         -1.1124   -1.7635    0.5137 H         1 <0>         0.0739
     38 H7         -2.0139   -0.2289    0.5346 H         1 <0>         0.0749
     39 H8         -1.8585   -0.1038   -1.9370 H         1 <0>         0.0728
     40 H9         -0.9570   -1.6385   -1.9580 H         1 <0>         0.0716
     41 H10        -2.8895   -2.7880   -0.9127 H         1 <0>         0.0832
     42 H11        -3.7910   -1.2534   -0.8918 H         1 <0>         0.0832
     43 H12        -3.6356   -1.1284   -3.3634 H         1 <0>         0.0949
     44 H13        -2.7341   -2.6630   -3.3843 H         1 <0>         0.0960
     45 H14        -5.3423   -2.9176   -5.9897 H         1 <0>         0.4456
     46 H15        -6.8745   -4.2650   -4.8612 H         1 <0>         0.4548
     47 H16       -12.3017   -7.2936   -1.9446 H         1 <0>         0.4235
     48 H17       -12.2316   -7.4115   -3.6191 H         1 <0>         0.4255
     49 H18        -7.6406   -4.3339   -0.4466 H         1 <0>         0.4272
     50 H19        -8.8438   -5.1436    0.4016 H         1 <0>         0.4164
     51 H20         4.8446    0.6415    0.8305 H         1 <0>         0.0752
     52 H21         4.8223    0.6519   -0.9492 H         1 <0>         0.0687
     53 H22         7.2512    0.7586    0.9224 H         1 <0>         0.0591
     54 H23         7.4076    0.7777   -0.8506 H         1 <0>         0.0531
     55 H24         9.2684    1.8267    0.2184 H         1 <0>         0.3861
     56 H25         6.0769    2.4206   -2.0787 H         1 <0>         0.3730
     57 H26        -5.1621   -3.0760   -2.0020 H         1 <0>         0.4458
     58 H27        -4.0409   -2.2412   -5.1702 H         1 <0>         0.4461
@<TRIPOS>BOND
     1    1    6 ar
     2    1    2 ar
     3    1   33 1
     4    2    3 ar
     5    2   34 1
     6    3    4 ar
     7    3   26 1
     8    4    5 ar
     9    4   35 1
    10    5    6 ar
    11    5   36 1
    12    6    7 1
    13    7    8 1
    14    7   37 1
    15    7   38 1
    16    8    9 1
    17    8   39 1
    18    8   40 1
    19    9   10 1
    20    9   41 1
    21    9   42 1
    22   10   11 1
    23   10   43 1
    24   10   44 1
    25   11   12 1
    26   11   57 1
    27   12   13 2
    28   12   14 1
    29   13   45 1
    30   13   58 1
    31   14   15 am
    32   14   46 1
    33   15   16 2
    34   15   17 1
    35   17   22 ar
    36   17   18 ar
    37   18   19 ar
    38   18   25 1
    39   19   20 ar
    40   20   21 ar
    41   20   24 1
    42   21   22 ar
    43   21   23 1
    44   24   47 1
    45   24   48 1
    46   25   49 1
    47   25   50 1
    48   26   27 1
    49   27   28 1
    50   27   51 1
    51   27   52 1
    52   28   29 1
    53   28   30 1
    54   28   32 1
    55   30   31 1
    56   30   53 1
    57   30   54 1
    58   31   55 1
    59   32   56 1
@<TRIPOS>MOLECULE
ZINC34271593
   58    59     0     0     0
SMALL
USER_CHARGES

@<TRIPOS>ATOM
      1 C1          0.0433    1.5109   -0.4104 C.ar      1 <0>        -0.0744
      2 C2          1.2118    2.2425   -0.4977 C.ar      1 <0>        -0.1470
      3 C3          2.4326    1.5896   -0.5874 C.ar      1 <0>         0.1322
      4 C4          2.4765    0.2029   -0.5891 C.ar      1 <0>        -0.2083
      5 C5          1.3051   -0.5241   -0.5015 C.ar      1 <0>        -0.0747
      6 C6          0.0897    0.1290   -0.4123 C.ar      1 <0>        -0.1310
      7 C7         -1.1866   -0.6666   -0.3164 C.3       1 <0>        -0.0732
      8 C8         -1.7255   -0.9375   -1.7225 C.3       1 <0>        -0.1130
      9 C9         -3.0213   -1.7453   -1.6251 C.3       1 <0>        -0.1366
     10 C10        -3.5602   -2.0161   -3.0312 C.3       1 <0>         0.0773
     11 N1         -4.8009   -2.7896   -2.9380 N.pl3     1 <0>        -0.6400
     12 C11        -5.4360   -3.1346   -4.0212 C.cat     1 <0>         0.7338
     13 N2         -4.9423   -2.7731   -5.2521 N.pl3     1 <0>        -0.7805
     14 N3         -6.6049   -3.8633   -3.9334 N.am      1 <0>        -0.6479
     15 C12        -7.1876   -4.3398   -5.0514 C.2       1 <0>         0.6325
     16 O1         -6.6306   -4.2200   -6.1256 O.2       1 <0>        -0.5079
     17 C13        -8.4990   -5.0057   -4.9720 C.ar      1 <0>        -0.1474
     18 C14        -9.1595   -5.4017   -6.1466 C.ar      1 <0>         0.4958
     19 N4        -10.3412   -6.0014   -6.0687 N.ar      1 <0>        -0.5584
     20 C15       -10.8935   -6.2243   -4.8833 C.ar      1 <0>         0.4849
     21 C16       -10.2323   -5.8281   -3.7138 C.ar      1 <0>         0.0253
     22 N5         -9.0591   -5.2387   -3.7846 N.ar      1 <0>        -0.3333
     23 Cl1       -10.9607   -6.1228   -2.1658 Cl        1 <0>         0.0035
     24 N6        -12.1257   -6.8491   -4.8021 N.pl3     1 <0>        -0.7940
     25 N7         -8.5807   -5.1672   -7.3804 N.pl3     1 <0>        -0.7978
     26 O2          3.5835    2.3071   -0.6739 O.3       1 <0>        -0.3004
     27 C17         4.8034    1.5683   -0.7634 C.3       1 <0>         0.0307
     28 C18         5.9824    2.5393   -0.8524 C.3       1 <0>         0.1086
     29 H1          5.9516    3.2267   -0.0070 H         1 <0>         0.1180
     30 C19         7.2944    1.7527   -0.8226 C.3       1 <0>         0.0491
     31 O3          8.3951    2.6634   -0.7882 O.3       1 <0>        -0.5595
     32 O4          5.8986    3.2799   -2.0716 O.3       1 <0>        -0.5404
     33 H2         -0.9070    2.0187   -0.3360 H         1 <0>         0.1289
     34 H3          1.1750    3.3219   -0.4966 H         1 <0>         0.1337
     35 H4          3.4256   -0.3077   -0.6592 H         1 <0>         0.1274
     36 H5          1.3387   -1.6036   -0.5028 H         1 <0>         0.1235
     37 H6         -0.9875   -1.6137    0.1851 H         1 <0>         0.0741
     38 H7         -1.9248   -0.1021    0.2532 H         1 <0>         0.0752
     39 H8         -1.9246    0.0096   -2.2240 H         1 <0>         0.0741
     40 H9         -0.9873   -1.5021   -2.2920 H         1 <0>         0.0729
     41 H10        -2.8222   -2.6924   -1.1237 H         1 <0>         0.0855
     42 H11        -3.7595   -1.1807   -1.0556 H         1 <0>         0.0860
     43 H12        -3.7593   -1.0690   -3.5327 H         1 <0>         0.1051
     44 H13        -2.8220   -2.5807   -3.6008 H         1 <0>         0.1059
     45 H14        -4.1584   -2.2049   -5.3124 H         1 <0>         0.4308
     46 H15        -7.0071   -4.0325   -3.0670 H         1 <0>         0.4544
     47 H16       -12.5847   -7.1235   -5.6114 H         1 <0>         0.4234
     48 H17       -12.5305   -7.0125   -3.9358 H         1 <0>         0.4254
     49 H18        -7.6851   -4.7986   -7.4338 H         1 <0>         0.4278
     50 H19        -9.0703   -5.3714   -8.1925 H         1 <0>         0.4160
     51 H20         4.9146    0.9419    0.1217 H         1 <0>         0.0754
     52 H21         4.7828    0.9393   -1.6534 H         1 <0>         0.0688
     53 H22         7.3185    1.1199    0.0646 H         1 <0>         0.0591
     54 H23         7.3653    1.1305   -1.7147 H         1 <0>         0.0531
     55 H24         9.2609    2.2333   -0.7680 H         1 <0>         0.3862
     56 H25         5.9204    2.7310   -2.8675 H         1 <0>         0.3731
     57 H26        -5.3779   -3.0860   -6.0603 H         1 <0>         0.4464
     58 H27        -5.1493   -3.0447   -2.0694 H         1 <0>         0.4418
@<TRIPOS>BOND
     1    1    6 ar
     2    1    2 ar
     3    1   33 1
     4    2    3 ar
     5    2   34 1
     6    3    4 ar
     7    3   26 1
     8    4    5 ar
     9    4   35 1
    10    5    6 ar
    11    5   36 1
    12    6    7 1
    13    7    8 1
    14    7   37 1
    15    7   38 1
    16    8    9 1
    17    8   39 1
    18    8   40 1
    19    9   10 1
    20    9   41 1
    21    9   42 1
    22   10   11 1
    23   10   43 1
    24   10   44 1
    25   11   12 2
    26   11   58 1
    27   12   13 1
    28   12   14 1
    29   13   45 1
    30   13   57 1
    31   14   15 am
    32   14   46 1
    33   15   16 2
    34   15   17 1
    35   17   22 ar
    36   17   18 ar
    37   18   19 ar
    38   18   25 1
    39   19   20 ar
    40   20   21 ar
    41   20   24 1
    42   21   22 ar
    43   21   23 1
    44   24   47 1
    45   24   48 1
    46   25   49 1
    47   25   50 1
    48   26   27 1
    49   27   28 1
    50   27   51 1
    51   27   52 1
    52   28   29 1
    53   28   30 1
    54   28   32 1
    55   30   31 1
    56   30   53 1
    57   30   54 1
    58   31   55 1
    59   32   56 1
@<TRIPOS>MOLECULE
ZINC13110453
   33    34     0     0     0
SMALL
USER_CHARGES

@<TRIPOS>ATOM
      1 C1          5.3692    2.4203   -0.1709 C.ar      1 <0>        -0.1269
      2 C2          5.4091    1.2168   -0.8508 C.ar      1 <0>        -0.1002
      3 C3          4.5728    0.1831   -0.4775 C.ar      1 <0>        -0.0883
      4 C4          3.6911    0.3533    0.5821 C.ar      1 <0>         0.1509
      5 C5          3.6536    1.5633    1.2629 C.ar      1 <0>        -0.1391
      6 C6          4.4925    2.5930    0.8845 C.ar      1 <0>        -0.1053
      7 N1          2.8425   -0.6915    0.9625 N.pl3     1 <0>        -0.6416
      8 C7          3.2963   -1.9795    0.9481 C.2       1 <0>         0.6955
      9 N2          2.4338   -3.0095    1.1871 N.pl3     1 <0>        -0.8559
     10 N3          4.5728   -2.2288    0.7022 N.2       1 <0>        -0.6432
     11 C8          4.9897   -3.4927    0.5380 C.2       1 <0>         0.5797
     12 O1          4.1809   -4.4043    0.5251 O.2       1 <0>        -0.5731
     13 C9          6.4289   -3.7801    0.3729 C.ar      1 <0>        -0.0743
     14 C10         6.8553   -5.0819    0.0676 C.ar      1 <0>         0.4602
     15 N4          8.1501   -5.3345   -0.0802 N.ar      1 <0>        -0.5643
     16 C11         9.0355   -4.3566    0.0610 C.ar      1 <0>         0.4549
     17 C12         8.6068   -3.0596    0.3655 C.ar      1 <0>        -0.0041
     18 N5          7.3242   -2.8030    0.5080 N.ar      1 <0>        -0.2955
     19 Cl1         9.7702   -1.7844    0.5497 Cl        1 <0>        -0.0263
     20 N6         10.3864   -4.6198   -0.0926 N.pl3     1 <0>        -0.8194
     21 N7          5.9287   -6.0993   -0.0785 N.pl3     1 <0>        -0.8120
     22 H1          6.0274    3.2256   -0.4619 H         1 <0>         0.1222
     23 H2          6.0946    1.0853   -1.6749 H         1 <0>         0.1241
     24 H3          4.6041   -0.7565   -1.0091 H         1 <0>         0.1302
     25 H4          2.9689    1.6989    2.0870 H         1 <0>         0.1227
     26 H5          4.4639    3.5342    1.4134 H         1 <0>         0.1250
     27 H6          2.7436   -3.8043    1.6490 H         1 <0>         0.4273
     28 H7          1.5108   -2.9469    0.8953 H         1 <0>         0.3989
     29 H8          1.9317   -0.5012    1.2365 H         1 <0>         0.4184
     30 H9         10.6845   -5.5185   -0.3033 H         1 <0>         0.4125
     31 H10        11.0345   -3.9055    0.0105 H         1 <0>         0.4176
     32 H11         4.9928   -5.8865   -0.2188 H         1 <0>         0.4268
     33 H12         6.2151   -7.0253   -0.0407 H         1 <0>         0.4027
@<TRIPOS>BOND
     1    1    6 ar
     2    1    2 ar
     3    1   22 1
     4    2    3 ar
     5    2   23 1
     6    3    4 ar
     7    3   24 1
     8    4    5 ar
     9    4    7 1
    10    5    6 ar
    11    5   25 1
    12    6   26 1
    13    7    8 1
    14    7   29 1
    15    8    9 1
    16    8   10 2
    17    9   28 1
    18    9   27 1
    19   10   11 1
    20   11   12 2
    21   11   13 1
    22   13   18 ar
    23   13   14 ar
    24   14   15 ar
    25   14   21 1
    26   15   16 ar
    27   16   17 ar
    28   16   20 1
    29   17   18 ar
    30   17   19 1
    31   20   30 1
    32   20   31 1
    33   21   32 1
    34   21   33 1
@<TRIPOS>MOLECULE
ZINC13110453
   32    33     0     0     0
SMALL
USER_CHARGES

@<TRIPOS>ATOM
      1 C1         -0.0698    1.3205   -0.1242 C.ar      1 <0>        -0.1649
      2 C2          1.0169    1.8953    0.5090 C.ar      1 <0>        -0.1103
      3 C3          2.2288    1.2338    0.5412 C.ar      1 <0>        -0.1740
      4 C4          2.3554   -0.0102   -0.0633 C.ar      1 <0>         0.2021
      5 C5          1.2620   -0.5848   -0.6984 C.ar      1 <0>        -0.1061
      6 C6          0.0529    0.0820   -0.7270 C.ar      1 <0>        -0.1126
      7 N1          3.5814   -0.6827   -0.0329 N.pl3     1 <0>        -0.6512
      8 C7          3.6112   -2.0439    0.0743 C.2       1 <0>         0.6222
      9 N2          4.7705   -2.6745    0.1770 N.2       1 <0>        -0.7766
     10 C8          4.8075   -4.0149    0.1709 C.2       1 <0>         0.5924
     11 O1          4.3483   -4.6329   -0.7737 O.2       1 <0>        -0.5949
     12 C9          5.4047   -4.7422    1.3091 C.ar      1 <0>        -0.0530
     13 C10         5.5635   -6.1354    1.2478 C.ar      1 <0>         0.4445
     14 N3          6.1013   -6.7840    2.2734 N.ar      1 <0>        -0.5715
     15 C11         6.4864   -6.1139    3.3518 C.ar      1 <0>         0.4367
     16 C12         6.3267   -4.7248    3.4096 C.ar      1 <0>        -0.0164
     17 N4          5.7988   -4.0765    2.3936 N.ar      1 <0>        -0.3015
     18 Cl1         6.8326   -3.8536    4.8234 Cl        1 <0>        -0.0468
     19 N5          7.0471   -6.7904    4.4223 N.pl3     1 <0>        -0.8324
     20 N6          5.1600   -6.8308    0.1214 N.pl3     1 <0>        -0.8105
     21 N7          2.4460   -2.7538    0.0755 N.2       1 <0>        -0.9271
     22 H1         -1.0176    1.8379   -0.1440 H         1 <0>         0.1074
     23 H2          0.9179    2.8629    0.9786 H         1 <0>         0.1110
     24 H3          3.0772    1.6834    1.0356 H         1 <0>         0.1136
     25 H4          1.3573   -1.5519   -1.1697 H         1 <0>         0.1540
     26 H5         -0.7976   -0.3642   -1.2208 H         1 <0>         0.1115
     27 H6          4.4106   -0.1822   -0.0880 H         1 <0>         0.4039
     28 H7          7.1580   -7.7532    4.3832 H         1 <0>         0.4057
     29 H8          7.3290   -6.3013    5.2111 H         1 <0>         0.4122
     30 H9          4.8509   -6.3487   -0.6615 H         1 <0>         0.4291
     31 H10         5.1864   -7.8004    0.1147 H         1 <0>         0.3928
     32 H11         2.4688   -3.7235    0.0799 H         1 <0>         0.3104
@<TRIPOS>BOND
     1    1    6 ar
     2    1    2 ar
     3    1   22 1
     4    2    3 ar
     5    2   23 1
     6    3    4 ar
     7    3   24 1
     8    4    5 ar
     9    4    7 1
    10    5    6 ar
    11    5   25 1
    12    6   26 1
    13    7    8 1
    14    7   27 1
    15    8    9 2
    16    8   21 1
    17    9   10 1
    18   10   11 2
    19   10   12 1
    20   12   17 ar
    21   12   13 ar
    22   13   14 ar
    23   13   20 1
    24   14   15 ar
    25   15   16 ar
    26   15   19 1
    27   16   17 ar
    28   16   18 1
    29   19   28 1
    30   19   29 1
    31   20   30 1
    32   20   31 1
    33   21   32 1
@<TRIPOS>MOLECULE
ZINC13110453
   32    33     0     0     0
SMALL
USER_CHARGES

@<TRIPOS>ATOM
      1 C1         -0.0196    1.3829    0.0864 C.ar      1 <0>        -0.1828
      2 C2          1.1451    2.0717    0.3715 C.ar      1 <0>        -0.1073
      3 C3          2.3368    1.3879    0.5121 C.ar      1 <0>        -0.1907
      4 C4          2.3645    0.0069    0.3669 C.ar      1 <0>         0.1861
      5 C5          1.1930   -0.6819    0.0806 C.ar      1 <0>        -0.1915
      6 C6          0.0046    0.0079   -0.0589 C.ar      1 <0>        -0.1091
      7 N1          3.5698   -0.6886    0.5082 N.pl3     1 <0>        -0.6582
      8 C7          3.6263   -2.0224    0.2201 C.2       1 <0>         0.6086
      9 N2          4.7896   -2.6540    0.2348 N.2       1 <0>        -0.6973
     10 C8          5.9300   -1.9563    0.3393 C.2       1 <0>         0.5408
     11 O1          5.9042   -0.7383    0.3078 O.2       1 <0>        -0.6439
     12 C9          7.2171   -2.6640    0.4926 C.ar      1 <0>        -0.0347
     13 C10         8.4065   -1.9348    0.6456 C.ar      1 <0>         0.4459
     14 N3          9.5606   -2.5759    0.7834 N.ar      1 <0>        -0.5716
     15 C11         9.5857   -3.9024    0.7762 C.ar      1 <0>         0.4368
     16 C12         8.3978   -4.6265    0.6234 C.ar      1 <0>        -0.0166
     17 N4          7.2507   -3.9957    0.4915 N.ar      1 <0>        -0.3013
     18 Cl1         8.4372   -6.3620    0.6147 Cl        1 <0>        -0.0452
     19 N5         10.7896   -4.5717    0.9195 N.pl3     1 <0>        -0.8321
     20 N6          8.3762   -0.5512    0.6522 N.pl3     1 <0>        -0.8103
     21 N7          2.4837   -2.7040   -0.0828 N.2       1 <0>        -0.8474
     22 H1         -0.9509    1.9194   -0.0186 H         1 <0>         0.1020
     23 H2          1.1229    3.1456    0.4840 H         1 <0>         0.1066
     24 H3          3.2461    1.9264    0.7344 H         1 <0>         0.1078
     25 H4          1.2113   -1.7557   -0.0333 H         1 <0>         0.2266
     26 H5         -0.9067   -0.5271   -0.2816 H         1 <0>         0.1078
     27 H6          4.3655   -0.2237    0.8108 H         1 <0>         0.4179
     28 H7         11.6135   -4.0708    1.0251 H         1 <0>         0.4059
     29 H8         10.8090   -5.5415    0.9143 H         1 <0>         0.4125
     30 H9          7.5283   -0.0844    0.5894 H         1 <0>         0.4295
     31 H10         9.2029   -0.0483    0.7196 H         1 <0>         0.3922
     32 H11         2.5239   -3.6514   -0.2874 H         1 <0>         0.3131
@<TRIPOS>BOND
     1    1    6 ar
     2    1    2 ar
     3    1   22 1
     4    2    3 ar
     5    2   23 1
     6    3    4 ar
     7    3   24 1
     8    4    5 ar
     9    4    7 1
    10    5    6 ar
    11    5   25 1
    12    6   26 1
    13    7    8 1
    14    7   27 1
    15    8    9 2
    16    8   21 1
    17    9   10 1
    18   10   11 2
    19   10   12 1
    20   12   17 ar
    21   12   13 ar
    22   13   14 ar
    23   13   20 1
    24   14   15 ar
    25   15   16 ar
    26   15   19 1
    27   16   17 ar
    28   16   18 1
    29   19   28 1
    30   19   29 1
    31   20   30 1
    32   20   31 1
    33   21   32 1
@<TRIPOS>MOLECULE
ZINC34663723
   57    58     0     0     0
SMALL
USER_CHARGES

@<TRIPOS>ATOM
      1 C1         -0.2231    1.5933    0.1239 C.ar      1 <0>        -0.0754
      2 C2          0.9418    2.3357    0.1365 C.ar      1 <0>        -0.1466
      3 C3          2.1717    1.6940    0.1530 C.ar      1 <0>         0.1252
      4 C4          2.2283    0.3079    0.1568 C.ar      1 <0>        -0.2079
      5 C5          1.0605   -0.4300    0.1442 C.ar      1 <0>        -0.0762
      6 C6         -0.1640    0.2119    0.1277 C.ar      1 <0>        -0.1203
      7 C7         -1.4364   -0.5955    0.1144 C.3       1 <0>        -0.0760
      8 C8         -1.8499   -0.8720   -1.3325 C.3       1 <0>        -0.1100
      9 C9         -3.1417   -1.6917   -1.3459 C.3       1 <0>        -0.1317
     10 C10        -3.5552   -1.9682   -2.7928 C.3       1 <0>         0.1050
     11 N1         -4.7922   -2.7531   -2.8057 N.pl3     1 <0>        -0.7437
     12 C11        -5.3540   -3.1211   -3.9930 C.2       1 <0>         0.7007
     13 N2         -4.8221   -2.6742   -5.1669 N.pl3     1 <0>        -0.8243
     14 N3         -6.4155   -3.9121   -4.0060 N.2       1 <0>        -0.6699
     15 C12        -7.0043   -4.2629   -2.8534 C.2       1 <0>         0.5992
     16 O1         -7.4284   -3.4042   -2.0998 O.2       1 <0>        -0.5522
     17 C13        -7.1390   -5.6899   -2.4973 C.ar      1 <0>        -0.1020
     18 C14        -7.6458   -6.0562   -1.2409 C.ar      1 <0>         0.4627
     19 N4         -7.7651   -7.3402   -0.9262 N.ar      1 <0>        -0.5665
     20 C15        -7.4053   -8.2718   -1.7997 C.ar      1 <0>         0.4592
     21 C16        -6.8999   -7.9030   -3.0515 C.ar      1 <0>        -0.0071
     22 N5         -6.7848   -6.6317   -3.3703 N.ar      1 <0>        -0.2987
     23 Cl1        -6.4302   -9.1266   -4.1899 Cl        1 <0>        -0.0263
     24 N6         -7.5296   -9.6116   -1.4718 N.pl3     1 <0>        -0.8181
     25 N7         -8.0196   -5.0815   -0.3324 N.pl3     1 <0>        -0.8099
     26 O2          3.3192    2.4221    0.1649 O.3       1 <0>        -0.3022
     27 C17         4.5490    1.6946    0.1816 C.3       1 <0>         0.0308
     28 C18         5.7223    2.6765    0.1932 C.3       1 <0>         0.1093
     29 H1          5.6328    3.3595   -0.6515 H         1 <0>         0.1170
     30 C19         7.0370    1.9014    0.0854 C.3       1 <0>         0.0489
     31 O3          8.1251    2.8217   -0.0211 O.3       1 <0>        -0.5601
     32 O4          5.7075    3.4220    1.4122 O.3       1 <0>        -0.5413
     33 H2         -1.1809    2.0923    0.1156 H         1 <0>         0.1297
     34 H3          0.8951    3.4146    0.1331 H         1 <0>         0.1319
     35 H4          3.1846   -0.1940    0.1693 H         1 <0>         0.1254
     36 H5          1.1040   -1.5091    0.1472 H         1 <0>         0.1239
     37 H6         -1.2725   -1.5405    0.6324 H         1 <0>         0.0719
     38 H7         -2.2261   -0.0375    0.6177 H         1 <0>         0.0738
     39 H8         -2.0138    0.0730   -1.8504 H         1 <0>         0.0693
     40 H9         -1.0603   -1.4300   -1.8357 H         1 <0>         0.0675
     41 H10        -2.9779   -2.6367   -0.8280 H         1 <0>         0.0718
     42 H11        -3.9314   -1.1337   -0.8427 H         1 <0>         0.0750
     43 H12        -3.7191   -1.0232   -3.3108 H         1 <0>         0.0706
     44 H13        -2.7656   -2.5262   -3.2961 H         1 <0>         0.0699
     45 H14        -5.2216   -2.9360   -6.0111 H         1 <0>         0.4256
     46 H15        -4.0443   -2.0947   -5.1574 H         1 <0>         0.4100
     47 H16        -5.2116   -3.0110   -1.9700 H         1 <0>         0.4175
     48 H17        -7.8795   -9.8682   -0.6043 H         1 <0>         0.4130
     49 H18        -7.2668  -10.2934   -2.1097 H         1 <0>         0.4179
     50 H19        -8.0066   -4.1467   -0.5912 H         1 <0>         0.4282
     51 H20        -8.2945   -5.3330    0.5632 H         1 <0>         0.4027
     52 H21         4.5894    1.0697    1.0738 H         1 <0>         0.0682
     53 H22         4.6108    1.0650   -0.7060 H         1 <0>         0.0740
     54 H23         7.1688    1.2841    0.9740 H         1 <0>         0.0535
     55 H24         7.0119    1.2647   -0.7989 H         1 <0>         0.0591
     56 H25         8.9919    2.3992   -0.0931 H         1 <0>         0.3846
     57 H26         5.7835    2.8772    2.2075 H         1 <0>         0.3735
@<TRIPOS>BOND
     1    1    6 ar
     2    1    2 ar
     3    1   33 1
     4    2    3 ar
     5    2   34 1
     6    3    4 ar
     7    3   26 1
     8    4    5 ar
     9    4   35 1
    10    5    6 ar
    11    5   36 1
    12    6    7 1
    13    7    8 1
    14    7   37 1
    15    7   38 1
    16    8    9 1
    17    8   39 1
    18    8   40 1
    19    9   10 1
    20    9   41 1
    21    9   42 1
    22   10   43 1
    23   10   44 1
    24   10   11 1
    25   11   12 1
    26   11   47 1
    27   12   13 1
    28   12   14 2
    29   13   46 1
    30   13   45 1
    31   14   15 1
    32   15   16 2
    33   15   17 1
    34   17   22 ar
    35   17   18 ar
    36   18   19 ar
    37   18   25 1
    38   19   20 ar
    39   20   21 ar
    40   20   24 1
    41   21   22 ar
    42   21   23 1
    43   24   48 1
    44   24   49 1
    45   25   50 1
    46   25   51 1
    47   26   27 1
    48   27   28 1
    49   27   52 1
    50   27   53 1
    51   28   29 1
    52   28   30 1
    53   28   32 1
    54   30   31 1
    55   30   54 1
    56   30   55 1
    57   31   56 1
    58   32   57 1
@<TRIPOS>MOLECULE
ZINC34663723
   57    58     0     0     0
SMALL
USER_CHARGES

@<TRIPOS>ATOM
      1 C1         -0.2559    1.2424    0.1259 C.ar      1 <0>        -0.0755
      2 C2          0.9690    1.8770    0.1982 C.ar      1 <0>        -0.1469
      3 C3          2.1298    1.1289    0.3312 C.ar      1 <0>         0.1250
      4 C4          2.0570   -0.2552    0.3913 C.ar      1 <0>        -0.2081
      5 C5          0.8297   -0.8850    0.3186 C.ar      1 <0>        -0.0761
      6 C6         -0.3257   -0.1372    0.1860 C.ar      1 <0>        -0.1205
      7 C7         -1.6633   -0.8268    0.1074 C.3       1 <0>        -0.0758
      8 C8         -1.9963   -1.1288   -1.3550 C.3       1 <0>        -0.1108
      9 C9         -3.3543   -1.8290   -1.4348 C.3       1 <0>        -0.1312
     10 C10        -3.6873   -2.1310   -2.8973 C.3       1 <0>         0.1111
     11 N1         -4.9876   -2.8014   -2.9737 N.pl3     1 <0>        -0.7032
     12 C11        -5.4949   -3.1697   -4.1852 C.2       1 <0>         0.7012
     13 N2         -6.6699   -3.7756   -4.2542 N.2       1 <0>        -0.6746
     14 C12        -7.2105   -4.0560   -5.4489 C.2       1 <0>         0.6010
     15 O1         -6.6030   -4.7509   -6.2446 O.2       1 <0>        -0.5527
     16 C13        -8.5422   -3.5227   -5.8003 C.ar      1 <0>        -0.1012
     17 C14        -9.0575   -3.7135   -7.0918 C.ar      1 <0>         0.4627
     18 N3        -10.2549   -3.2320   -7.4023 N.ar      1 <0>        -0.5667
     19 C15       -10.9596   -2.5729   -6.4918 C.ar      1 <0>         0.4594
     20 C16       -10.4428   -2.3844   -5.2049 C.ar      1 <0>        -0.0069
     21 N4         -9.2588   -2.8644   -4.8905 N.ar      1 <0>        -0.2974
     22 Cl1       -11.3697   -1.5210   -4.0178 Cl        1 <0>        -0.0260
     23 N5        -12.2087   -2.0700   -6.8154 N.pl3     1 <0>        -0.8180
     24 N6         -8.3191   -4.4012   -8.0389 N.pl3     1 <0>        -0.8099
     25 N7         -4.7915   -2.9138   -5.3255 N.pl3     1 <0>        -0.8665
     26 O2          3.3360    1.7508    0.4020 O.3       1 <0>        -0.3023
     27 C17         4.4887    0.9173    0.5384 C.3       1 <0>         0.0309
     28 C18         5.7442    1.7894    0.6013 C.3       1 <0>         0.1093
     29 H1          5.7791    2.4396   -0.2728 H         1 <0>         0.1169
     30 C19         6.9857    0.8954    0.6217 C.3       1 <0>         0.0489
     31 O3          8.1593    1.7086    0.5629 O.3       1 <0>        -0.5602
     32 O4          5.7116    2.5865    1.7869 O.3       1 <0>        -0.5413
     33 H2         -1.1601    1.8246    0.0269 H         1 <0>         0.1297
     34 H3          1.0231    2.9546    0.1508 H         1 <0>         0.1317
     35 H4          2.9593   -0.8398    0.4944 H         1 <0>         0.1253
     36 H5          0.7726   -1.9625    0.3653 H         1 <0>         0.1243
     37 H6         -1.6252   -1.7589    0.6713 H         1 <0>         0.0729
     38 H7         -2.4317   -0.1785    0.5286 H         1 <0>         0.0742
     39 H8         -2.0343   -0.1968   -1.9189 H         1 <0>         0.0686
     40 H9         -1.2279   -1.7772   -1.7762 H         1 <0>         0.0674
     41 H10        -3.3162   -2.7610   -0.8709 H         1 <0>         0.0760
     42 H11        -4.1227   -1.1807   -1.0137 H         1 <0>         0.0770
     43 H12        -3.7253   -1.1990   -3.4612 H         1 <0>         0.0701
     44 H13        -2.9189   -2.7793   -3.3185 H         1 <0>         0.0694
     45 H14        -5.4878   -2.9835   -2.1628 H         1 <0>         0.4256
     46 H15       -12.5676   -2.1998   -7.7072 H         1 <0>         0.4131
     47 H16       -12.7247   -1.5879   -6.1504 H         1 <0>         0.4180
     48 H17        -7.4809   -4.8208   -7.7894 H         1 <0>         0.4281
     49 H18        -8.6398   -4.4637   -8.9522 H         1 <0>         0.4028
     50 H19        -3.8982   -2.5398   -5.2707 H         1 <0>         0.4006
     51 H20        -5.1846   -3.1058   -6.1912 H         1 <0>         0.4180
     52 H21         4.4071    0.3314    1.4539 H         1 <0>         0.0684
     53 H22         4.5551    0.2461   -0.3179 H         1 <0>         0.0739
     54 H23         6.9958    0.3087    1.5403 H         1 <0>         0.0535
     55 H24         6.9648    0.2250   -0.2374 H         1 <0>         0.0590
     56 H25         8.9861    1.2072    0.5721 H         1 <0>         0.3846
     57 H26         5.6798    2.0727    2.6055 H         1 <0>         0.3736
@<TRIPOS>BOND
     1    1    6 ar
     2    1    2 ar
     3    1   33 1
     4    2    3 ar
     5    2   34 1
     6    3    4 ar
     7    3   26 1
     8    4    5 ar
     9    4   35 1
    10    5    6 ar
    11    5   36 1
    12    6    7 1
    13    7    8 1
    14    7   37 1
    15    7   38 1
    16    8    9 1
    17    8   39 1
    18    8   40 1
    19    9   10 1
    20    9   41 1
    21    9   42 1
    22   10   11 1
    23   10   43 1
    24   10   44 1
    25   11   12 1
    26   11   45 1
    27   12   13 2
    28   12   25 1
    29   13   14 1
    30   14   15 2
    31   14   16 1
    32   16   21 ar
    33   16   17 ar
    34   17   18 ar
    35   17   24 1
    36   18   19 ar
    37   19   20 ar
    38   19   23 1
    39   20   21 ar
    40   20   22 1
    41   23   46 1
    42   23   47 1
    43   24   48 1
    44   24   49 1
    45   25   50 1
    46   25   51 1
    47   26   27 1
    48   27   28 1
    49   27   52 1
    50   27   53 1
    51   28   29 1
    52   28   30 1
    53   28   32 1
    54   30   31 1
    55   30   54 1
    56   30   55 1
    57   31   56 1
    58   32   57 1
@<TRIPOS>MOLECULE
ZINC34663723
   58    59     0     0     0
SMALL
USER_CHARGES

@<TRIPOS>ATOM
      1 C1          0.0310    1.3370    0.0044 C.ar      1 <0>        -0.0747
      2 C2          1.2207    2.0392   -0.0059 C.ar      1 <0>        -0.1469
      3 C3          2.4279    1.3559   -0.0250 C.ar      1 <0>         0.1315
      4 C4          2.4371   -0.0313   -0.0337 C.ar      1 <0>        -0.2082
      5 C5          1.2447   -0.7289   -0.0233 C.ar      1 <0>        -0.0750
      6 C6          0.0428   -0.0455   -0.0043 C.ar      1 <0>        -0.1296
      7 C7         -1.2564   -0.8090    0.0075 C.3       1 <0>        -0.0738
      8 C8         -1.7144   -1.0584   -1.4308 C.3       1 <0>        -0.1119
      9 C9         -3.0335   -1.8335   -1.4189 C.3       1 <0>        -0.1326
     10 C10        -3.4916   -2.0829   -2.8572 C.3       1 <0>         0.0772
     11 N1         -4.7546   -2.8251   -2.8458 N.pl3     1 <0>        -0.6586
     12 C11        -5.3623   -3.1659   -4.0307 C.cat     1 <0>         0.7307
     13 N2         -4.8736   -2.7386   -5.1595 N.pl3     1 <0>        -0.7572
     14 N3         -6.4905   -3.9610   -4.0240 N.am      1 <0>        -0.6464
     15 C12        -7.0585   -4.3150   -2.8542 C.2       1 <0>         0.6325
     16 O1         -6.5211   -4.0209   -1.8038 O.2       1 <0>        -0.5072
     17 C13        -8.3302   -5.0581   -2.8480 C.ar      1 <0>        -0.1469
     18 C14        -8.9838   -5.3245   -1.6336 C.ar      1 <0>         0.4960
     19 N4        -10.1299   -5.9943   -1.6344 N.ar      1 <0>        -0.5583
     20 C15       -10.6533   -6.4091   -2.7806 C.ar      1 <0>         0.4850
     21 C16        -9.9991   -6.1418   -3.9900 C.ar      1 <0>         0.0256
     22 N5         -8.8662   -5.4744   -3.9957 N.ar      1 <0>        -0.3333
     23 Cl1       -10.6896   -6.6875   -5.4863 Cl        1 <0>         0.0039
     24 N6        -11.8480   -7.1077   -2.7815 N.pl3     1 <0>        -0.7938
     25 N7         -8.4347   -4.8908   -0.4409 N.pl3     1 <0>        -0.7974
     26 O2          3.5996    2.0444   -0.0357 O.3       1 <0>        -0.3006
     27 C17         4.8038    1.2753   -0.0553 C.3       1 <0>         0.0306
     28 C18         6.0100    2.2165   -0.0649 C.3       1 <0>         0.1089
     29 H1          5.9233    2.9096   -0.9017 H         1 <0>         0.1172
     30 C19         7.2944    1.3981   -0.2116 C.3       1 <0>         0.0490
     31 O3          8.4104    2.2817   -0.3375 O.3       1 <0>        -0.5595
     32 O4          6.0506    2.9513    1.1600 O.3       1 <0>        -0.5405
     33 H2         -0.9090    1.8685    0.0239 H         1 <0>         0.1288
     34 H3          1.2109    3.1191    0.0005 H         1 <0>         0.1336
     35 H4          3.3756   -0.5655   -0.0490 H         1 <0>         0.1272
     36 H5          1.2513   -1.8088   -0.0300 H         1 <0>         0.1234
     37 H6         -1.1124   -1.7635    0.5137 H         1 <0>         0.0739
     38 H7         -2.0139   -0.2289    0.5346 H         1 <0>         0.0749
     39 H8         -1.8585   -0.1038   -1.9370 H         1 <0>         0.0727
     40 H9         -0.9570   -1.6385   -1.9580 H         1 <0>         0.0716
     41 H10        -2.8895   -2.7880   -0.9127 H         1 <0>         0.0832
     42 H11        -3.7910   -1.2534   -0.8918 H         1 <0>         0.0832
     43 H12        -3.6356   -1.1284   -3.3634 H         1 <0>         0.0949
     44 H13        -2.7341   -2.6630   -3.3843 H         1 <0>         0.0960
     45 H14        -5.3423   -2.9176   -5.9897 H         1 <0>         0.4456
     46 H15        -6.8745   -4.2650   -4.8612 H         1 <0>         0.4548
     47 H16       -12.3017   -7.2936   -1.9446 H         1 <0>         0.4235
     48 H17       -12.2316   -7.4115   -3.6191 H         1 <0>         0.4255
     49 H18        -7.6406   -4.3339   -0.4466 H         1 <0>         0.4272
     50 H19        -8.8438   -5.1436    0.4016 H         1 <0>         0.4164
     51 H20         4.8446    0.6415    0.8305 H         1 <0>         0.0694
     52 H21         4.8223    0.6519   -0.9492 H         1 <0>         0.0744
     53 H22         7.4267    0.7689    0.6686 H         1 <0>         0.0537
     54 H23         7.2258    0.7704   -1.1000 H         1 <0>         0.0584
     55 H24         9.2602    1.8306   -0.4345 H         1 <0>         0.3860
     56 H25         6.1274    2.3971    1.9487 H         1 <0>         0.3741
     57 H26        -5.1621   -3.0760   -2.0020 H         1 <0>         0.4459
     58 H27        -4.0409   -2.2412   -5.1702 H         1 <0>         0.4461
@<TRIPOS>BOND
     1    1    6 ar
     2    1    2 ar
     3    1   33 1
     4    2    3 ar
     5    2   34 1
     6    3    4 ar
     7    3   26 1
     8    4    5 ar
     9    4   35 1
    10    5    6 ar
    11    5   36 1
    12    6    7 1
    13    7    8 1
    14    7   37 1
    15    7   38 1
    16    8    9 1
    17    8   39 1
    18    8   40 1
    19    9   10 1
    20    9   41 1
    21    9   42 1
    22   10   11 1
    23   10   43 1
    24   10   44 1
    25   11   12 1
    26   11   57 1
    27   12   13 2
    28   12   14 1
    29   13   45 1
    30   13   58 1
    31   14   15 am
    32   14   46 1
    33   15   16 2
    34   15   17 1
    35   17   22 ar
    36   17   18 ar
    37   18   19 ar
    38   18   25 1
    39   19   20 ar
    40   20   21 ar
    41   20   24 1
    42   21   22 ar
    43   21   23 1
    44   24   47 1
    45   24   48 1
    46   25   49 1
    47   25   50 1
    48   26   27 1
    49   27   28 1
    50   27   51 1
    51   27   52 1
    52   28   29 1
    53   28   30 1
    54   28   32 1
    55   30   31 1
    56   30   53 1
    57   30   54 1
    58   31   55 1
    59   32   56 1
@<TRIPOS>MOLECULE
ZINC34663723
   58    59     0     0     0
SMALL
USER_CHARGES

@<TRIPOS>ATOM
      1 C1          0.0433    1.5109   -0.4104 C.ar      1 <0>        -0.0744
      2 C2          1.2118    2.2425   -0.4977 C.ar      1 <0>        -0.1470
      3 C3          2.4326    1.5896   -0.5874 C.ar      1 <0>         0.1322
      4 C4          2.4765    0.2029   -0.5891 C.ar      1 <0>        -0.2083
      5 C5          1.3051   -0.5241   -0.5015 C.ar      1 <0>        -0.0747
      6 C6          0.0897    0.1290   -0.4123 C.ar      1 <0>        -0.1310
      7 C7         -1.1866   -0.6666   -0.3164 C.3       1 <0>        -0.0732
      8 C8         -1.7255   -0.9375   -1.7225 C.3       1 <0>        -0.1130
      9 C9         -3.0213   -1.7453   -1.6251 C.3       1 <0>        -0.1366
     10 C10        -3.5602   -2.0161   -3.0312 C.3       1 <0>         0.0773
     11 N1         -4.8009   -2.7896   -2.9380 N.pl3     1 <0>        -0.6400
     12 C11        -5.4360   -3.1346   -4.0212 C.cat     1 <0>         0.7338
     13 N2         -4.9423   -2.7731   -5.2521 N.pl3     1 <0>        -0.7805
     14 N3         -6.6049   -3.8633   -3.9334 N.am      1 <0>        -0.6479
     15 C12        -7.1876   -4.3398   -5.0514 C.2       1 <0>         0.6325
     16 O1         -6.6306   -4.2200   -6.1256 O.2       1 <0>        -0.5079
     17 C13        -8.4990   -5.0057   -4.9720 C.ar      1 <0>        -0.1474
     18 C14        -9.1595   -5.4017   -6.1466 C.ar      1 <0>         0.4958
     19 N4        -10.3412   -6.0014   -6.0687 N.ar      1 <0>        -0.5584
     20 C15       -10.8935   -6.2243   -4.8833 C.ar      1 <0>         0.4849
     21 C16       -10.2323   -5.8281   -3.7138 C.ar      1 <0>         0.0253
     22 N5         -9.0591   -5.2387   -3.7846 N.ar      1 <0>        -0.3333
     23 Cl1       -10.9607   -6.1228   -2.1658 Cl        1 <0>         0.0035
     24 N6        -12.1257   -6.8491   -4.8021 N.pl3     1 <0>        -0.7940
     25 N7         -8.5807   -5.1672   -7.3804 N.pl3     1 <0>        -0.7978
     26 O2          3.5835    2.3071   -0.6739 O.3       1 <0>        -0.3004
     27 C17         4.8034    1.5683   -0.7634 C.3       1 <0>         0.0305
     28 C18         5.9824    2.5393   -0.8524 C.3       1 <0>         0.1089
     29 H1          5.8269    3.2242   -1.6860 H         1 <0>         0.1173
     30 C19         7.2758    1.7524   -1.0733 C.3       1 <0>         0.0490
     31 O3          8.3591    2.6627   -1.2725 O.3       1 <0>        -0.5595
     32 O4          6.0794    3.2834    0.3637 O.3       1 <0>        -0.5405
     33 H2         -0.9070    2.0187   -0.3360 H         1 <0>         0.1289
     34 H3          1.1750    3.3219   -0.4966 H         1 <0>         0.1337
     35 H4          3.4256   -0.3077   -0.6592 H         1 <0>         0.1274
     36 H5          1.3387   -1.6036   -0.5028 H         1 <0>         0.1235
     37 H6         -0.9875   -1.6137    0.1851 H         1 <0>         0.0741
     38 H7         -1.9248   -0.1021    0.2532 H         1 <0>         0.0753
     39 H8         -1.9246    0.0096   -2.2240 H         1 <0>         0.0740
     40 H9         -0.9873   -1.5021   -2.2920 H         1 <0>         0.0729
     41 H10        -2.8222   -2.6924   -1.1237 H         1 <0>         0.0856
     42 H11        -3.7595   -1.1807   -1.0556 H         1 <0>         0.0860
     43 H12        -3.7593   -1.0690   -3.5327 H         1 <0>         0.1051
     44 H13        -2.8220   -2.5807   -3.6008 H         1 <0>         0.1059
     45 H14        -4.1584   -2.2049   -5.3124 H         1 <0>         0.4308
     46 H15        -7.0071   -4.0325   -3.0670 H         1 <0>         0.4544
     47 H16       -12.5847   -7.1235   -5.6114 H         1 <0>         0.4234
     48 H17       -12.5305   -7.0125   -3.9358 H         1 <0>         0.4254
     49 H18        -7.6851   -4.7986   -7.4338 H         1 <0>         0.4278
     50 H19        -9.0703   -5.3714   -8.1925 H         1 <0>         0.4160
     51 H20         4.9146    0.9419    0.1217 H         1 <0>         0.0696
     52 H21         4.7828    0.9393   -1.6534 H         1 <0>         0.0745
     53 H22         7.4778    1.1327   -0.1996 H         1 <0>         0.0537
     54 H23         7.1688    1.1169   -1.9525 H         1 <0>         0.0584
     55 H24         9.2126    2.2323   -1.4191 H         1 <0>         0.3861
     56 H25         6.2186    2.7369    1.1492 H         1 <0>         0.3742
     57 H26        -5.3779   -3.0860   -6.0603 H         1 <0>         0.4464
     58 H27        -5.1493   -3.0447   -2.0694 H         1 <0>         0.4419
@<TRIPOS>BOND
     1    1    6 ar
     2    1    2 ar
     3    1   33 1
     4    2    3 ar
     5    2   34 1
     6    3    4 ar
     7    3   26 1
     8    4    5 ar
     9    4   35 1
    10    5    6 ar
    11    5   36 1
    12    6    7 1
    13    7    8 1
    14    7   37 1
    15    7   38 1
    16    8    9 1
    17    8   39 1
    18    8   40 1
    19    9   10 1
    20    9   41 1
    21    9   42 1
    22   10   11 1
    23   10   43 1
    24   10   44 1
    25   11   12 2
    26   11   58 1
    27   12   13 1
    28   12   14 1
    29   13   45 1
    30   13   57 1
    31   14   15 am
    32   14   46 1
    33   15   16 2
    34   15   17 1
    35   17   22 ar
    36   17   18 ar
    37   18   19 ar
    38   18   25 1
    39   19   20 ar
    40   20   21 ar
    41   20   24 1
    42   21   22 ar
    43   21   23 1
    44   24   47 1
    45   24   48 1
    46   25   49 1
    47   25   50 1
    48   26   27 1
    49   27   28 1
    50   27   51 1
    51   27   52 1
    52   28   29 1
    53   28   30 1
    54   28   32 1
    55   30   31 1
    56   30   53 1
    57   30   54 1
    58   31   55 1
    59   32   56 1
@<TRIPOS>MOLECULE
ZINC13548421
   36    37     0     0     0
SMALL
USER_CHARGES

@<TRIPOS>ATOM
      1 C1         -0.1765    1.2216    0.0848 C.ar      1 <0>        -0.1073
      2 C2          0.9912    1.9603    0.0417 C.ar      1 <0>        -0.1216
      3 C3          2.2146    1.3178    0.0061 C.ar      1 <0>        -0.0991
      4 C4          2.2704   -0.0634    0.0140 C.ar      1 <0>        -0.1148
      5 C5          1.1028   -0.8021    0.0579 C.ar      1 <0>        -0.0960
      6 C6         -0.1206   -0.1597    0.0921 C.ar      1 <0>        -0.1208
      7 C7          3.6042   -0.7639   -0.0259 C.3       1 <0>         0.1495
      8 N1          4.0827   -0.9811    1.3416 N.pl3     1 <0>        -0.7392
      9 C8          5.2780   -1.6027    1.5553 C.2       1 <0>         0.7006
     10 N2          5.9797   -2.1120    0.5022 N.pl3     1 <0>        -0.8245
     11 N3          5.7569   -1.7117    2.7845 N.2       1 <0>        -0.6684
     12 C9          5.0191   -1.3099    3.8297 C.2       1 <0>         0.5990
     13 O1          3.9182   -1.7963    4.0213 O.2       1 <0>        -0.5510
     14 C10         5.5405   -0.2780    4.7487 C.ar      1 <0>        -0.1019
     15 C11         4.7245    0.2296    5.7716 C.ar      1 <0>         0.4629
     16 N4          5.1984    1.1566    6.5950 N.ar      1 <0>        -0.5666
     17 C12         6.4404    1.5997    6.4483 C.ar      1 <0>         0.4592
     18 C13         7.2511    1.0917    5.4269 C.ar      1 <0>        -0.0072
     19 N5          6.7879    0.1688    4.6115 N.ar      1 <0>        -0.2986
     20 Cl1         8.8751    1.6759    5.2396 Cl        1 <0>        -0.0264
     21 N6          6.9352    2.5669    7.3071 N.pl3     1 <0>        -0.8182
     22 N7          3.4295   -0.2348    5.9211 N.pl3     1 <0>        -0.8096
     23 H1         -1.1322    1.7235    0.1171 H         1 <0>         0.1252
     24 H2          0.9475    3.0394    0.0356 H         1 <0>         0.1256
     25 H3          3.1268    1.8949   -0.0282 H         1 <0>         0.1238
     26 H4          1.1465   -1.8812    0.0637 H         1 <0>         0.1254
     27 H5         -1.0329   -0.7368    0.1260 H         1 <0>         0.1263
     28 H6          3.4952   -1.7243   -0.5296 H         1 <0>         0.0786
     29 H7          4.3217   -0.1484   -0.5684 H         1 <0>         0.0786
     30 H8          5.6287   -2.0321   -0.3985 H         1 <0>         0.4099
     31 H9          3.5496   -0.6830    2.0951 H         1 <0>         0.4189
     32 H10         6.8297   -2.5540    0.6542 H         1 <0>         0.4260
     33 H11         6.3739    2.9198    8.0151 H         1 <0>         0.4130
     34 H12         7.8430    2.8914    7.2006 H         1 <0>         0.4178
     35 H13         3.1103   -0.9670    5.3707 H         1 <0>         0.4282
     36 H14         2.8411    0.1718    6.5762 H         1 <0>         0.4026
@<TRIPOS>BOND
     1    1    6 ar
     2    1    2 ar
     3    1   23 1
     4    2    3 ar
     5    2   24 1
     6    3    4 ar
     7    3   25 1
     8    4    5 ar
     9    4    7 1
    10    5    6 ar
    11    5   26 1
    12    6   27 1
    13    7   28 1
    14    7   29 1
    15    7    8 1
    16    8   31 1
    17    8    9 1
    18    9   10 1
    19    9   11 2
    20   10   30 1
    21   10   32 1
    22   11   12 1
    23   12   13 2
    24   12   14 1
    25   14   19 ar
    26   14   15 ar
    27   15   16 ar
    28   15   22 1
    29   16   17 ar
    30   17   18 ar
    31   17   21 1
    32   18   19 ar
    33   18   20 1
    34   21   33 1
    35   21   34 1
    36   22   35 1
    37   22   36 1
@<TRIPOS>MOLECULE
ZINC04340269
   23    23     0     0     0
SMALL
USER_CHARGES

@<TRIPOS>ATOM
      1 C1          0.0541    1.3093    0.0511 C.ar      1 <0>        -0.0998
      2 C2          1.2379    2.0581   -0.0359 C.ar      1 <0>         0.4638
      3 N1          2.4129    1.4496    0.0702 N.ar      1 <0>        -0.5674
      4 C3          2.4640    0.1373    0.2579 C.ar      1 <0>         0.4601
      5 C4          1.2815   -0.6064    0.3442 C.ar      1 <0>        -0.0071
      6 N2          0.1144   -0.0080    0.2397 N.ar      1 <0>        -0.2998
      7 Cl1         1.3549   -2.3233    0.5899 Cl        1 <0>        -0.0262
      8 N3          3.6896   -0.4980    0.3683 N.pl3     1 <0>        -0.8179
      9 N4          1.1804    3.4267   -0.2323 N.pl3     1 <0>        -0.8085
     10 C5         -1.2563    1.9814   -0.0602 C.2       1 <0>         0.5976
     11 O1         -1.3142    3.1971   -0.1232 O.2       1 <0>        -0.5581
     12 N5         -2.3824    1.2540   -0.0918 N.2       1 <0>        -0.6703
     13 C6         -3.3650    1.5181    0.7551 C.2       1 <0>         0.7012
     14 N6         -3.1890    2.4512    1.7344 N.pl3     1 <0>        -0.8655
     15 N7         -4.5534    0.8571    0.6484 N.pl3     1 <0>        -0.8245
     16 H1          4.5097    0.0166    0.3083 H         1 <0>         0.4132
     17 H2          3.7280   -1.4575    0.5055 H         1 <0>         0.4179
     18 H3          0.3235    3.8812   -0.2317 H         1 <0>         0.4284
     19 H4          1.9971    3.9316   -0.3704 H         1 <0>         0.4028
     20 H5         -5.2734    1.0506    1.2690 H         1 <0>         0.4111
     21 H6         -2.3709    2.9712    1.7674 H         1 <0>         0.4205
     22 H7         -4.6786    0.1935   -0.0480 H         1 <0>         0.4267
     23 H8         -3.8820    2.5947    2.3977 H         1 <0>         0.4016
@<TRIPOS>BOND
     1    1    6 ar
     2    1    2 ar
     3    1   10 1
     4    2    3 ar
     5    2    9 1
     6    3    4 ar
     7    4    5 ar
     8    4    8 1
     9    5    6 ar
    10    5    7 1
    11    8   16 1
    12    8   17 1
    13    9   18 1
    14    9   19 1
    15   10   12 1
    16   10   11 2
    17   12   13 2
    18   13   14 1
    19   13   15 1
    20   14   21 1
    21   14   23 1
    22   15   22 1
    23   15   20 1
