@<TRIPOS>MOLECULE
ZINC29343783
   39    41     0     0     0
SMALL
USER_CHARGES
N-(3-phenylpropyl)isoquinolin-1-amine
@<TRIPOS>ATOM
      1 C1         -2.0785    2.5007   -3.4529 C.ar      1 <0>        -0.1156
      2 C2         -1.0663    3.2585   -2.8942 C.ar      1 <0>        -0.1159
      3 C3         -0.3980    2.8008   -1.7740 C.ar      1 <0>        -0.1162
      4 C4         -0.7416    1.5850   -1.2129 C.ar      1 <0>        -0.0963
      5 C5         -1.7499    0.8246   -1.7750 C.ar      1 <0>        -0.1162
      6 C6         -2.4217    1.2848   -2.8921 C.ar      1 <0>        -0.1159
      7 C7         -0.0127    1.0858    0.0080 C.3       1 <0>        -0.0758
      8 C8         -0.7288    1.5792    1.2668 C.3       1 <0>        -0.1268
      9 C9          0.0111    1.0724    2.5063 C.3       1 <0>         0.0819
     10 N1         -0.6746    1.5449    3.7117 N.pl3     1 <0>        -0.6951
     11 C10        -0.1852    1.2102    4.9625 C.ar      1 <0>         0.5069
     12 C11        -0.8408    1.6691    6.1271 C.ar      1 <0>        -0.1342
     13 C12        -1.9971    2.4575    6.0675 C.ar      1 <0>        -0.0702
     14 C13        -2.5920    2.8664    7.2237 C.ar      1 <0>        -0.1001
     15 C14        -2.0707    2.5091    8.4648 C.ar      1 <0>        -0.0515
     16 C15        -0.9497    1.7396    8.5596 C.ar      1 <0>        -0.1102
     17 C16        -0.3130    1.3015    7.3902 C.ar      1 <0>         0.0229
     18 C17         0.8480    0.5040    7.4219 C.ar      1 <0>        -0.1346
     19 C18         1.4105    0.1162    6.2456 C.ar      1 <0>         0.0871
     20 N2          0.8986    0.4659    5.0726 N.ar      1 <0>        -0.5382
     21 H1         -2.6009    2.8585   -4.3278 H         1 <0>         0.1256
     22 H2         -0.7979    4.2083   -3.3326 H         1 <0>         0.1252
     23 H3          0.3927    3.3928   -1.3375 H         1 <0>         0.1207
     24 H4         -2.0153   -0.1273   -1.3392 H         1 <0>         0.1207
     25 H5         -3.2122    0.6925   -3.3288 H         1 <0>         0.1252
     26 H6          0.0022   -0.0141    0.0019 H         1 <0>         0.0795
     27 H7          1.0193    1.4665    0.0002 H         1 <0>         0.0795
     28 H8         -0.7437    2.6791    1.2728 H         1 <0>         0.0837
     29 H9         -1.7608    1.1985    1.2746 H         1 <0>         0.0837
     30 H10         0.0260   -0.0275    2.5003 H         1 <0>         0.0884
     31 H11         1.0431    1.4531    2.4985 H         1 <0>         0.0884
     32 H12        -1.5784    2.1656    3.6228 H         1 <0>         0.4640
     33 H13        -2.4125    2.7421    5.1121 H         1 <0>         0.1387
     34 H14        -3.4813    3.4773    7.1767 H         1 <0>         0.1481
     35 H15        -2.5617    2.8470    9.3654 H         1 <0>         0.1485
     36 H16        -0.5550    1.4699    9.5280 H         1 <0>         0.1532
     37 H17         1.2841    0.2060    8.3639 H         1 <0>         0.1747
     38 H18         2.3005   -0.4952    6.2672 H         1 <0>         0.1959
     39 H19         1.4152    0.1096    4.1692 H         1 <0>         0.4702
@<TRIPOS>BOND
     1    1    6 ar
     2    1    2 ar
     3    1   21 1
     4    2    3 ar
     5    2   22 1
     6    3    4 ar
     7    3   23 1
     8    4    5 ar
     9    4    7 1
    10    5    6 ar
    11    5   24 1
    12    6   25 1
    13    7    8 1
    14    7   26 1
    15    7   27 1
    16    8    9 1
    17    8   28 1
    18    8   29 1
    19    9   10 1
    20    9   30 1
    21    9   31 1
    22   10   11 1
    23   10   32 1
    24   11   20 ar
    25   11   12 ar
    26   12   17 ar
    27   12   13 ar
    28   13   14 ar
    29   13   33 1
    30   14   15 ar
    31   14   34 1
    32   15   16 ar
    33   15   35 1
    34   16   17 ar
    35   16   36 1
    36   17   18 ar
    37   18   19 ar
    38   18   37 1
    39   19   20 ar
    40   19   38 1
    41   20   39 1
@<TRIPOS>MOLECULE
ZINC29343783
   38    40     0     0     0
SMALL
USER_CHARGES
N-(3-phenylpropyl)isoquinolin-1-amine
@<TRIPOS>ATOM
      1 C1         -2.0785    2.5007   -3.4529 C.ar      1 <0>        -0.1244
      2 C2         -1.0663    3.2585   -2.8942 C.ar      1 <0>        -0.1181
      3 C3         -0.3980    2.8008   -1.7740 C.ar      1 <0>        -0.1176
      4 C4         -0.7416    1.5850   -1.2129 C.ar      1 <0>        -0.0826
      5 C5         -1.7499    0.8246   -1.7750 C.ar      1 <0>        -0.1176
      6 C6         -2.4217    1.2848   -2.8921 C.ar      1 <0>        -0.1181
      7 C7         -0.0127    1.0858    0.0080 C.3       1 <0>        -0.0780
      8 C8         -0.7288    1.5792    1.2668 C.3       1 <0>        -0.1268
      9 C9          0.0111    1.0724    2.5063 C.3       1 <0>         0.1333
     10 N1         -0.6746    1.5449    3.7117 N.pl3     1 <0>        -0.7232
     11 C10        -0.1852    1.2102    4.9625 C.ar      1 <0>         0.4431
     12 C11        -0.8408    1.6691    6.1271 C.ar      1 <0>        -0.1478
     13 C12        -1.9971    2.4575    6.0675 C.ar      1 <0>        -0.0786
     14 C13        -2.5920    2.8664    7.2237 C.ar      1 <0>        -0.1356
     15 C14        -2.0707    2.5091    8.4648 C.ar      1 <0>        -0.0901
     16 C15        -0.9497    1.7396    8.5596 C.ar      1 <0>        -0.1225
     17 C16        -0.3130    1.3015    7.3902 C.ar      1 <0>         0.0139
     18 C17         0.8480    0.5040    7.4219 C.ar      1 <0>        -0.2325
     19 C18         1.4105    0.1162    6.2456 C.ar      1 <0>         0.1395
     20 N2          0.8986    0.4659    5.0726 N.ar      1 <0>        -0.5662
     21 H1         -2.6009    2.8585   -4.3278 H         1 <0>         0.1212
     22 H2         -0.7979    4.2083   -3.3326 H         1 <0>         0.1217
     23 H3          0.3927    3.3928   -1.3375 H         1 <0>         0.1211
     24 H4         -2.0153   -0.1273   -1.3392 H         1 <0>         0.1211
     25 H5         -3.2122    0.6925   -3.3288 H         1 <0>         0.1217
     26 H6          0.0022   -0.0141    0.0019 H         1 <0>         0.0771
     27 H7          1.0193    1.4665    0.0002 H         1 <0>         0.0771
     28 H8         -0.7437    2.6791    1.2728 H         1 <0>         0.0706
     29 H9         -1.7608    1.1985    1.2746 H         1 <0>         0.0706
     30 H10         0.0260   -0.0275    2.5003 H         1 <0>         0.0666
     31 H11         1.0431    1.4531    2.4985 H         1 <0>         0.0666
     32 H12        -1.5784    2.1656    3.6228 H         1 <0>         0.4274
     33 H13        -2.4125    2.7421    5.1121 H         1 <0>         0.1225
     34 H14        -3.4813    3.4773    7.1767 H         1 <0>         0.1253
     35 H15        -2.5617    2.8470    9.3654 H         1 <0>         0.1259
     36 H16        -0.5550    1.4699    9.5280 H         1 <0>         0.1308
     37 H17         1.2841    0.2060    8.3639 H         1 <0>         0.1324
     38 H18         2.3005   -0.4952    6.2672 H         1 <0>         0.1503
@<TRIPOS>BOND
     1    1    6 ar
     2    1    2 ar
     3    1   21 1
     4    2    3 ar
     5    2   22 1
     6    3    4 ar
     7    3   23 1
     8    4    5 ar
     9    4    7 1
    10    5    6 ar
    11    5   24 1
    12    6   25 1
    13    7    8 1
    14    7   26 1
    15    7   27 1
    16    8    9 1
    17    8   28 1
    18    8   29 1
    19    9   10 1
    20    9   30 1
    21    9   31 1
    22   10   11 1
    23   10   32 1
    24   11   20 ar
    25   11   12 ar
    26   12   17 ar
    27   12   13 ar
    28   13   14 ar
    29   13   33 1
    30   14   15 ar
    31   14   34 1
    32   15   16 ar
    33   15   35 1
    34   16   17 ar
    35   16   36 1
    36   17   18 ar
    37   18   19 ar
    38   18   37 1
    39   19   20 ar
    40   19   38 1
@<TRIPOS>MOLECULE
ZINC02989649
   36    37     0     0     0
SMALL
USER_CHARGES

@<TRIPOS>ATOM
      1 C1         -0.0167    1.3781    0.0096 C.ar      1 <0>        -0.1240
      2 C2          1.1709    2.0855    0.0021 C.ar      1 <0>        -0.1182
      3 C3          2.3773    1.4107   -0.0130 C.ar      1 <0>        -0.1175
      4 C4          2.3960    0.0285   -0.0201 C.ar      1 <0>        -0.0836
      5 C5          1.2084   -0.6789   -0.0117 C.ar      1 <0>        -0.1173
      6 C6          0.0021   -0.0041    0.0020 C.ar      1 <0>        -0.1180
      7 C7          3.7112   -0.7071   -0.0376 C.3       1 <0>        -0.0779
      8 C8          4.1714   -0.9633    1.3989 C.3       1 <0>        -0.1255
      9 C9          5.5066   -1.7102    1.3812 C.3       1 <0>         0.1191
     10 N1          5.9472   -1.9554    2.7567 N.am      1 <0>        -0.7302
     11 C10         7.1061   -2.6035    2.9876 C.2       1 <0>         0.5576
     12 O1          7.7860   -2.9846    2.0543 O.2       1 <0>        -0.5197
     13 C11         7.5499   -2.8505    4.3728 C.ar      1 <0>        -0.1702
     14 C12         6.7690   -2.4195    5.4481 C.ar      1 <0>        -0.0718
     15 C13         7.1888   -2.6537    6.7394 C.ar      1 <0>        -0.1380
     16 C14         8.3827   -3.3152    6.9772 C.ar      1 <0>        -0.0750
     17 C15         9.1640   -3.7465    5.9238 C.ar      1 <0>        -0.1563
     18 C16         8.7542   -3.5240    4.6175 C.ar      1 <0>         0.1698
     19 O2          9.5183   -3.9518    3.5815 O.3       1 <0>        -0.4780
     20 H1         -0.9591    1.9053    0.0259 H         1 <0>         0.1213
     21 H2          1.1563    3.1654    0.0076 H         1 <0>         0.1219
     22 H3          3.3051    1.9634   -0.0196 H         1 <0>         0.1213
     23 H4          1.2231   -1.7588   -0.0176 H         1 <0>         0.1214
     24 H5         -0.9258   -0.5567    0.0082 H         1 <0>         0.1220
     25 H6          3.5884   -1.6586   -0.5549 H         1 <0>         0.0773
     26 H7          4.4573   -0.1052   -0.5563 H         1 <0>         0.0772
     27 H8          4.2941   -0.0118    1.9163 H         1 <0>         0.0717
     28 H9          3.4252   -1.5652    1.9176 H         1 <0>         0.0718
     29 H10         5.3838   -2.6617    0.8639 H         1 <0>         0.0705
     30 H11         6.2527   -1.1082    0.8625 H         1 <0>         0.0703
     31 H12         5.4048   -1.6514    3.5012 H         1 <0>         0.3990
     32 H13         5.8378   -1.9031    5.2675 H         1 <0>         0.1289
     33 H14         6.5846   -2.3198    7.5699 H         1 <0>         0.1328
     34 H15         8.7043   -3.4942    7.9925 H         1 <0>         0.1333
     35 H16        10.0934   -4.2615    6.1172 H         1 <0>         0.1373
     36 H17        10.1711   -3.3048    3.2807 H         1 <0>         0.3967
@<TRIPOS>BOND
     1    1    6 ar
     2    1    2 ar
     3    1   20 1
     4    2    3 ar
     5    2   21 1
     6    3    4 ar
     7    3   22 1
     8    4    5 ar
     9    4    7 1
    10    5    6 ar
    11    5   23 1
    12    6   24 1
    13    7    8 1
    14    7   25 1
    15    7   26 1
    16    8    9 1
    17    8   27 1
    18    8   28 1
    19    9   10 1
    20    9   29 1
    21    9   30 1
    22   10   11 am
    23   10   31 1
    24   11   12 2
    25   11   13 1
    26   13   18 ar
    27   13   14 ar
    28   14   15 ar
    29   14   32 1
    30   15   16 ar
    31   15   33 1
    32   16   17 ar
    33   16   34 1
    34   17   18 ar
    35   17   35 1
    36   18   19 1
    37   19   36 1
@<TRIPOS>MOLECULE
ZINC12502774
   33    34     0     0     0
SMALL
USER_CHARGES
N-[(1R)-1-(4-bromophenyl)ethyl]-5-fluoro-2-hydroxy-benzamide
@<TRIPOS>ATOM
      1 C1         -3.0732    0.9254    1.4422 C.3       1 <0>        -0.1596
      2 C2         -2.5136    0.9791    0.0192 C.3       1 <0>         0.1836
      3 H1         -2.3330   -0.0346   -0.3386 H         1 <0>         0.1034
      4 C3         -1.2191    1.7506    0.0173 C.ar      1 <0>        -0.0787
      5 C4         -0.0126    1.0758    0.0080 C.ar      1 <0>        -0.0995
      6 C5          1.1750    1.7830    0.0004 C.ar      1 <0>        -0.0845
      7 C6          1.1561    3.1661    0.0076 C.ar      1 <0>        -0.0894
      8 C7         -0.0514    3.8408    0.0223 C.ar      1 <0>        -0.0849
      9 C8         -1.2384    3.1328    0.0298 C.ar      1 <0>        -0.1106
     10 Br1         2.7804    4.1343   -0.0034 Br        1 <0>        -0.0453
     11 N1         -3.4790    1.6428   -0.8604 N.am      1 <0>        -0.7238
     12 C9         -4.4799    0.9339   -1.4192 C.2       1 <0>         0.5634
     13 O1         -4.5816   -0.2564   -1.1932 O.2       1 <0>        -0.5105
     14 C10        -5.4520    1.6023   -2.3051 C.ar      1 <0>        -0.1413
     15 C11        -5.3420    2.9712   -2.5628 C.ar      1 <0>        -0.1079
     16 C12        -6.2521    3.5892   -3.3957 C.ar      1 <0>         0.0849
     17 C13        -7.2816    2.8585   -3.9707 C.ar      1 <0>        -0.1079
     18 C14        -7.4031    1.5065   -3.7189 C.ar      1 <0>        -0.1246
     19 C15        -6.4939    0.8691   -2.8879 C.ar      1 <0>         0.1630
     20 O2         -6.6133   -0.4597   -2.6399 O.3       1 <0>        -0.4731
     21 F1         -6.1426    4.9117   -3.6489 F         1 <0>        -0.1324
     22 H2         -3.2538    1.9390    1.8001 H         1 <0>         0.0607
     23 H3         -4.0096    0.3674    1.4436 H         1 <0>         0.0686
     24 H4         -2.3550    0.4316    2.0967 H         1 <0>         0.0717
     25 H5          0.0021   -0.0041    0.0020 H         1 <0>         0.1366
     26 H6          2.1175    1.2558   -0.0114 H         1 <0>         0.1371
     27 H7         -0.0666    4.9207    0.0282 H         1 <0>         0.1361
     28 H8         -2.1812    3.6595    0.0413 H         1 <0>         0.1291
     29 H9         -3.3978    2.5924   -1.0408 H         1 <0>         0.3985
     30 H10        -4.5441    3.5438   -2.1135 H         1 <0>         0.1409
     31 H11        -7.9923    3.3500   -4.6186 H         1 <0>         0.1476
     32 H12        -8.2076    0.9444   -4.1695 H         1 <0>         0.1496
     33 H13        -7.1617   -0.6686   -1.8713 H         1 <0>         0.3992
@<TRIPOS>BOND
     1    1    2 1
     2    1   22 1
     3    1   23 1
     4    1   24 1
     5    2    3 1
     6    2    4 1
     7    2   11 1
     8    4    9 ar
     9    4    5 ar
    10    5    6 ar
    11    5   25 1
    12    6    7 ar
    13    6   26 1
    14    7    8 ar
    15    7   10 1
    16    8    9 ar
    17    8   27 1
    18    9   28 1
    19   11   12 am
    20   11   29 1
    21   12   13 2
    22   12   14 1
    23   14   19 ar
    24   14   15 ar
    25   15   16 ar
    26   15   30 1
    27   16   17 ar
    28   16   21 1
    29   17   18 ar
    30   17   31 1
    31   18   19 ar
    32   18   32 1
    33   19   20 1
    34   20   33 1
@<TRIPOS>MOLECULE
ZINC13476428
   37    39     0     0     0
SMALL
USER_CHARGES
N-(3-phenylpropyl)quinazolin-4-amine
@<TRIPOS>ATOM
      1 C1         -2.0785    2.5007   -3.4529 C.ar      1 <0>        -0.1236
      2 C2         -1.0663    3.2585   -2.8942 C.ar      1 <0>        -0.1181
      3 C3         -0.3980    2.8008   -1.7740 C.ar      1 <0>        -0.1173
      4 C4         -0.7416    1.5850   -1.2129 C.ar      1 <0>        -0.0843
      5 C5         -1.7499    0.8246   -1.7750 C.ar      1 <0>        -0.1173
      6 C6         -2.4217    1.2848   -2.8921 C.ar      1 <0>        -0.1181
      7 C7         -0.0127    1.0858    0.0080 C.3       1 <0>        -0.0761
      8 C8         -0.7288    1.5792    1.2668 C.3       1 <0>        -0.1280
      9 C9          0.0111    1.0724    2.5063 C.3       1 <0>         0.1257
     10 N1         -0.6746    1.5449    3.7117 N.pl3     1 <0>        -0.6973
     11 C10        -0.1872    1.2116    4.9573 C.ar      1 <0>         0.4740
     12 C11        -0.8349    1.6578    6.1354 C.ar      1 <0>        -0.1995
     13 C12        -1.9875    2.4501    6.0962 C.ar      1 <0>        -0.0711
     14 C13        -2.5674    2.8504    7.2639 C.ar      1 <0>        -0.1343
     15 C14        -2.0281    2.4814    8.4931 C.ar      1 <0>        -0.0746
     16 C15        -0.9062    1.7104    8.5651 C.ar      1 <0>        -0.1105
     17 C16        -0.2846    1.2814    7.3846 C.ar      1 <0>         0.1872
     18 N2          0.8211    0.5219    7.3992 N.ar      1 <0>        -0.5558
     19 C17         1.3788    0.1375    6.2759 C.ar      1 <0>         0.3493
     20 N3          0.8977    0.4597    5.0856 N.ar      1 <0>        -0.5977
     21 H1         -2.6009    2.8585   -4.3278 H         1 <0>         0.1215
     22 H2         -0.7979    4.2083   -3.3326 H         1 <0>         0.1221
     23 H3          0.3927    3.3928   -1.3375 H         1 <0>         0.1213
     24 H4         -2.0153   -0.1273   -1.3392 H         1 <0>         0.1213
     25 H5         -3.2122    0.6925   -3.3288 H         1 <0>         0.1221
     26 H6          0.0021   -0.0041    0.0020 H         1 <0>         0.0777
     27 H7          1.0099    1.4631    0.0003 H         1 <0>         0.0776
     28 H8         -0.7436    2.6691    1.2728 H         1 <0>         0.0716
     29 H9         -1.7514    1.2020    1.2746 H         1 <0>         0.0716
     30 H10         0.0259   -0.0175    2.5003 H         1 <0>         0.0736
     31 H11         1.0337    1.4497    2.4986 H         1 <0>         0.0735
     32 H12        -1.4715    2.0922    3.6332 H         1 <0>         0.4112
     33 H13        -2.4146    2.7427    5.1483 H         1 <0>         0.1243
     34 H14        -3.4569    3.4622    7.2346 H         1 <0>         0.1302
     35 H15        -2.5057    2.8114    9.4038 H         1 <0>         0.1334
     36 H16        -0.4989    1.4321    9.5259 H         1 <0>         0.1399
     37 H17         2.2681   -0.4733    6.3244 H         1 <0>         0.1944
@<TRIPOS>BOND
     1    1    6 ar
     2    1    2 ar
     3    1   21 1
     4    2    3 ar
     5    2   22 1
     6    3    4 ar
     7    3   23 1
     8    4    5 ar
     9    4    7 1
    10    5    6 ar
    11    5   24 1
    12    6   25 1
    13    7    8 1
    14    7   26 1
    15    7   27 1
    16    8    9 1
    17    8   28 1
    18    8   29 1
    19    9   10 1
    20    9   30 1
    21    9   31 1
    22   10   11 1
    23   10   32 1
    24   11   20 ar
    25   11   12 ar
    26   12   17 ar
    27   12   13 ar
    28   13   14 ar
    29   13   33 1
    30   14   15 ar
    31   14   34 1
    32   15   16 ar
    33   15   35 1
    34   16   17 ar
    35   16   36 1
    36   17   18 ar
    37   18   19 ar
    38   19   20 ar
    39   19   37 1
@<TRIPOS>MOLECULE
ZINC26577365
   26    26     0     0     0
SMALL
USER_CHARGES
5-fluoro-2-hydroxy-N-isopropyl-benzamide
@<TRIPOS>ATOM
      1 C1          3.3999    7.4395   -0.6007 C.3       1 <0>        -0.1614
      2 C2          3.6452    6.0537   -0.0002 C.3       1 <0>         0.1398
      3 C3          4.1595    6.2027    1.4330 C.3       1 <0>        -0.1649
      4 N1          2.3915    5.2959    0.0072 N.am      1 <0>        -0.7390
      5 C4          2.4185    3.9484    0.0002 C.2       1 <0>         0.5628
      6 O1          3.4834    3.3618   -0.0123 O.2       1 <0>        -0.5174
      7 C5          1.1559    3.1852    0.0077 C.ar      1 <0>        -0.1577
      8 C6         -0.0700    3.8555    0.0225 C.ar      1 <0>        -0.0801
      9 C7         -1.2471    3.1355    0.0299 C.ar      1 <0>         0.0462
     10 C8         -1.2181    1.7486    0.0173 C.ar      1 <0>        -0.0840
     11 C9         -0.0126    1.0758    0.0080 C.ar      1 <0>        -0.1962
     12 C10         1.1796    1.7843    0.0004 C.ar      1 <0>         0.2086
     13 O2          2.3646    1.1233   -0.0145 O.3       1 <0>        -0.4697
     14 F1         -2.4323    3.7838    0.0438 F         1 <0>        -0.1374
     15 H1          3.0301    7.3324   -1.6311 H         1 <0>         0.0622
     16 H2          4.3413    8.0086   -0.6062 H         1 <0>         0.0741
     17 H3          2.6520    7.9738    0.0036 H         1 <0>         0.0622
     18 H4          4.3627    5.4876   -0.6123 H         1 <0>         0.0880
     19 H5          4.3358    5.2064    1.8647 H         1 <0>         0.0603
     20 H6          3.4116    6.7370    2.0372 H         1 <0>         0.0573
     21 H7          5.1008    6.7718    1.4274 H         1 <0>         0.0665
     22 H8          1.4281    5.8266    0.0185 H         1 <0>         0.4137
     23 H9         -0.0961    4.9351    0.0278 H         1 <0>         0.1435
     24 H10        -2.1436    1.1920    0.0190 H         1 <0>         0.1432
     25 H11         0.0021   -0.0041    0.0020 H         1 <0>         0.1452
     26 H12         2.3808    0.0234   -0.0202 H         1 <0>         0.4341
@<TRIPOS>BOND
     1    1    2 1
     2    1   15 1
     3    1   16 1
     4    1   17 1
     5    2    3 1
     6    2    4 1
     7    2   18 1
     8    3   19 1
     9    3   20 1
    10    3   21 1
    11    4    5 am
    12    4   22 1
    13    5    6 2
    14    5    7 1
    15    7   12 ar
    16    7    8 ar
    17    8    9 ar
    18    8   23 1
    19    9   10 ar
    20    9   14 1
    21   10   11 ar
    22   10   24 1
    23   11   12 ar
    24   11   25 1
    25   12   13 1
    26   13   26 1
