@<TRIPOS>MOLECULE
ZINC13545968
   48    48     0     0     0
SMALL
USER_CHARGES

@<TRIPOS>ATOM
      1 C1         -0.6445    1.2375   -0.7056 C.3       1 <0>        -0.1432
      2 C2         -0.3365   -0.2342   -0.4227 C.3       1 <0>        -0.1568
      3 H1          0.3304   -0.6368   -1.1851 H         1 <0>         0.1246
      4 C3         -1.6435   -1.0578   -0.3574 C.3       1 <0>         0.1205
      5 H2         -1.8321   -1.5659   -1.3031 H         1 <0>         0.0987
      6 C4         -1.3203   -2.0733    0.7610 C.3       1 <0>         0.1133
      7 N1         -0.3016   -1.4256    1.5956 N.am      1 <0>        -0.7136
      8 C5          0.2744   -0.3924    0.9522 C.2       1 <0>         0.5306
      9 O1          1.1525    0.3097    1.4072 O.2       1 <0>        -0.5155
     10 C6         -0.7673   -3.3663    0.1584 C.3       1 <0>         0.1213
     11 H3         -1.5577   -3.8787   -0.3902 H         1 <0>         0.1265
     12 C7         -0.2542   -4.2727    1.2792 C.3       1 <0>        -0.1268
     13 C8         -1.4331   -4.7474    2.1311 C.3       1 <0>        -0.1585
     14 C9          0.4557   -5.4839    0.6709 C.3       1 <0>        -0.1382
     15 O2          0.3063   -3.0558   -0.7322 O.3       1 <0>        -0.5453
     16 C10        -2.5548   -2.3627    1.5754 C.2       1 <0>         0.3118
     17 O3         -3.3012   -3.2613    1.2474 O.2       1 <0>        -0.4509
     18 S1         -2.8936   -1.4519    2.9212 S.3       1 <0>        -0.0599
     19 C11        -4.4407   -2.1589    3.5515 C.3       1 <0>        -0.0891
     20 C12        -4.8723   -1.4018    4.8091 C.3       1 <0>         0.0931
     21 H4         -5.0259   -0.3506    4.5655 H         1 <0>         0.0948
     22 C13        -6.1576   -1.9892    5.3327 C.2       1 <0>         0.5005
     23 O4         -6.1263   -2.9021    6.1402 O.co2     1 <0>        -0.6796
     24 O5         -7.2288   -1.5514    4.9487 O.co2     1 <0>        -0.6819
     25 N2         -3.8297   -1.5190    5.8315 N.am      1 <0>        -0.6982
     26 C14        -3.7178   -0.5787    6.7906 C.2       1 <0>         0.5077
     27 O6         -4.4802    0.3644    6.8072 O.2       1 <0>        -0.5520
     28 C15        -2.6453   -0.6992    7.8424 C.3       1 <0>        -0.1647
     29 O7         -2.7512   -0.2313    0.0059 O.3       1 <0>        -0.5422
     30 H5          0.2844    1.8078   -0.7157 H         1 <0>         0.0731
     31 H6         -1.1358    1.3262   -1.6746 H         1 <0>         0.0679
     32 H7         -1.3016    1.6272    0.0719 H         1 <0>         0.0722
     33 H8         -0.0712   -1.7067    2.4949 H         1 <0>         0.4171
     34 H9          0.4453   -3.7175    1.9040 H         1 <0>         0.0737
     35 H10        -1.8160   -3.9130    2.7187 H         1 <0>         0.0520
     36 H11        -2.2219   -5.1262    1.4812 H         1 <0>         0.0745
     37 H12        -1.1013   -5.5411    2.8005 H         1 <0>         0.0602
     38 H13         1.2956   -5.1457    0.0640 H         1 <0>         0.0609
     39 H14         0.8212   -6.1296    1.4694 H         1 <0>         0.0566
     40 H15        -0.2438   -6.0392    0.0461 H         1 <0>         0.0574
     41 H16         1.0466   -2.5978   -0.3111 H         1 <0>         0.3717
     42 H17        -5.2165   -2.0717    2.7907 H         1 <0>         0.1086
     43 H18        -4.2871   -3.2102    3.7950 H         1 <0>         0.0970
     44 H19        -3.2200   -2.2732    5.8183 H         1 <0>         0.3937
     45 H20        -2.0630   -1.6035    7.6657 H         1 <0>         0.0711
     46 H21        -1.9897    0.1703    7.7941 H         1 <0>         0.0877
     47 H22        -3.1074   -0.7515    8.8282 H         1 <0>         0.0899
     48 H23        -2.9322    0.4819   -0.6216 H         1 <0>         0.3873
@<TRIPOS>BOND
     1    1    2 1
     2    1   30 1
     3    1   31 1
     4    1   32 1
     5    2    3 1
     6    2    8 1
     7    2    4 1
     8    4    5 1
     9    4    6 1
    10    4   29 1
    11    6    7 1
    12    6   10 1
    13    6   16 1
    14    7    8 am
    15    7   33 1
    16    8    9 2
    17   10   11 1
    18   10   12 1
    19   10   15 1
    20   12   13 1
    21   12   14 1
    22   12   34 1
    23   13   35 1
    24   13   36 1
    25   13   37 1
    26   14   38 1
    27   14   39 1
    28   14   40 1
    29   15   41 1
    30   16   17 2
    31   16   18 1
    32   18   19 1
    33   19   20 1
    34   19   42 1
    35   19   43 1
    36   20   21 1
    37   20   22 1
    38   20   25 1
    39   22   23 2
    40   22   24 1
    41   25   26 am
    42   25   44 1
    43   26   27 2
    44   26   28 1
    45   28   45 1
    46   28   46 1
    47   28   47 1
    48   29   48 1
@<TRIPOS>MOLECULE
ZINC05579377
   44    44     0     0     0
SMALL
USER_CHARGES

@<TRIPOS>ATOM
      1 C1          0.0163    0.8704   -0.6224 C.3       1 <0>        -0.1382
      2 C2          0.1984   -0.5975   -0.2312 C.3       1 <0>        -0.1146
      3 H1         -0.7690   -1.0995   -0.2438 H         1 <0>         0.1076
      4 C3          0.7887   -0.6789    1.1530 C.2       1 <0>        -0.0924
      5 C4          0.0754   -1.2000    2.1527 C.2       1 <0>        -0.1248
      6 C5         -1.3645   -1.5849    1.9302 C.3       1 <0>        -0.1253
      7 C6          0.6913   -1.3981    3.4654 C.2       1 <0>        -0.0018
      8 C7         -0.0314   -1.9261    4.4783 C.2       1 <0>        -0.2188
      9 C8          0.5841   -2.1240    5.7903 C.2       1 <0>         0.5599
     10 O1          1.7472   -1.8132    5.9699 O.2       1 <0>        -0.5263
     11 N1         -0.1365   -2.6506    6.8002 N.am      1 <0>        -0.5945
     12 O2          0.4595   -2.8422    8.0703 O.3       1 <0>        -0.3168
     13 C9          1.1251   -1.2677   -1.2126 C.2       1 <0>         0.4107
     14 O3          2.3095   -1.3556   -0.9656 O.2       1 <0>        -0.4581
     15 C10         0.5946   -1.8139   -2.4671 C.ar      1 <0>        -0.2376
     16 C11        -0.7721   -1.7083   -2.7570 C.ar      1 <0>        -0.0197
     17 C12        -1.2614   -2.2176   -3.9257 C.ar      1 <0>        -0.2150
     18 C13        -0.4039   -2.8414   -4.8291 C.ar      1 <0>         0.2501
     19 C14         0.9557   -2.9486   -4.5449 C.ar      1 <0>        -0.2148
     20 C15         1.4543   -2.4374   -3.3810 C.ar      1 <0>        -0.0053
     21 N2         -0.9059   -3.3584   -6.0164 N.pl3     1 <0>        -0.6264
     22 C16        -2.3354   -3.2472   -6.3172 C.3       1 <0>         0.0859
     23 C17        -0.0060   -4.0149   -6.9680 C.3       1 <0>         0.0853
     24 H2          0.9837    1.3725   -0.6098 H         1 <0>         0.0651
     25 H3         -0.4106    0.9293   -1.6236 H         1 <0>         0.0678
     26 H4         -0.6539    1.3552    0.0874 H         1 <0>         0.0712
     27 H5          1.7891   -0.3153    1.3357 H         1 <0>         0.1273
     28 H6         -1.4116   -2.5915    1.5147 H         1 <0>         0.0719
     29 H7         -1.8986   -1.5586    2.8801 H         1 <0>         0.0699
     30 H8         -1.8250   -0.8829    1.2350 H         1 <0>         0.0721
     31 H9          1.7232   -1.1223    3.6248 H         1 <0>         0.1353
     32 H10        -1.0634   -2.2019    4.3189 H         1 <0>         0.1355
     33 H11        -1.0633   -2.8983    6.6570 H         1 <0>         0.4090
     34 H12        -0.1350   -3.2249    8.7300 H         1 <0>         0.3880
     35 H13        -1.4377   -1.2251   -2.0571 H         1 <0>         0.1299
     36 H14        -2.3148   -2.1369   -4.1498 H         1 <0>         0.1291
     37 H15         1.6170   -3.4333   -5.2479 H         1 <0>         0.1289
     38 H16         2.5092   -2.5170   -3.1635 H         1 <0>         0.1322
     39 H17        -2.5223   -2.3180   -6.8554 H         1 <0>         0.0543
     40 H18        -2.6439   -4.0921   -6.9331 H         1 <0>         0.0711
     41 H19        -2.9036   -3.2490   -5.3871 H         1 <0>         0.0730
     42 H20         0.0495   -5.0794   -6.7405 H         1 <0>         0.0545
     43 H21        -0.3861   -3.8791   -7.9805 H         1 <0>         0.0713
     44 H22         0.9881   -3.5745   -6.8910 H         1 <0>         0.0733
@<TRIPOS>BOND
     1    1    2 1
     2    1   24 1
     3    1   25 1
     4    1   26 1
     5    2    3 1
     6    2    4 1
     7    2   13 1
     8    4    5 2
     9    4   27 1
    10    5    6 1
    11    5    7 1
    12    6   28 1
    13    6   29 1
    14    6   30 1
    15    7    8 2
    16    7   31 1
    17    8    9 1
    18    8   32 1
    19    9   10 2
    20    9   11 am
    21   11   12 1
    22   11   33 1
    23   12   34 1
    24   13   14 2
    25   13   15 1
    26   15   20 ar
    27   15   16 ar
    28   16   17 ar
    29   16   35 1
    30   17   18 ar
    31   17   36 1
    32   18   19 ar
    33   18   21 1
    34   19   20 ar
    35   19   37 1
    36   20   38 1
    37   21   22 1
    38   21   23 1
    39   22   39 1
    40   22   40 1
    41   22   41 1
    42   23   42 1
    43   23   43 1
    44   23   44 1
@<TRIPOS>MOLECULE
ZINC05579377
   44    44     0     0     0
SMALL
USER_CHARGES

@<TRIPOS>ATOM
      1 C1         -0.0492    1.9543   -0.7649 C.3       1 <0>        -0.1371
      2 C2         -0.1970    0.4706   -0.4219 C.3       1 <0>        -0.1146
      3 H1         -1.2419    0.1768   -0.5224 H         1 <0>         0.1068
      4 C3          0.6480   -0.3491   -1.3627 C.2       1 <0>        -0.0922
      5 C4          0.0955   -1.3410   -2.0632 C.2       1 <0>        -0.1239
      6 C5         -1.3398   -1.7287   -1.8172 C.3       1 <0>        -0.1255
      7 C6          0.8833   -2.0526   -3.0704 C.2       1 <0>        -0.0021
      8 C7          0.3236   -3.0577   -3.7802 C.2       1 <0>        -0.2183
      9 C8          1.1110   -3.7689   -4.7869 C.2       1 <0>         0.5601
     10 O1          2.2703   -3.4558   -4.9856 O.2       1 <0>        -0.5264
     11 N1          0.5528   -4.7710   -5.4945 N.am      1 <0>        -0.5945
     12 O2          1.3151   -5.4596   -6.4691 O.3       1 <0>        -0.3168
     13 C9          0.2569    0.2350    0.9957 C.2       1 <0>         0.4096
     14 O3          1.4170   -0.0363    1.2239 O.2       1 <0>        -0.4577
     15 C10        -0.7046    0.3339    2.1000 C.ar      1 <0>        -0.2382
     16 C11        -2.0461    0.6415    1.8381 C.ar      1 <0>        -0.0203
     17 C12        -2.9375    0.7320    2.8685 C.ar      1 <0>        -0.2146
     18 C13        -2.5146    0.5191    4.1787 C.ar      1 <0>         0.2502
     19 C14        -1.1816    0.2130    4.4437 C.ar      1 <0>        -0.2147
     20 C15        -0.2847    0.1153    3.4187 C.ar      1 <0>        -0.0054
     21 N2         -3.4245    0.6126    5.2239 N.pl3     1 <0>        -0.6263
     22 C16        -4.8267    0.9348    4.9477 C.3       1 <0>         0.0858
     23 C17        -2.9821    0.3891    6.6025 C.3       1 <0>         0.0852
     24 H2          0.9957    2.2481   -0.6644 H         1 <0>         0.0652
     25 H3         -0.3775    2.1247   -1.7902 H         1 <0>         0.0716
     26 H4         -0.6604    2.5472   -0.0844 H         1 <0>         0.0675
     27 H5          1.7008   -0.1336   -1.4699 H         1 <0>         0.1268
     28 H6         -1.9953   -1.0898   -2.4090 H         1 <0>         0.0735
     29 H7         -1.4896   -2.7692   -2.1053 H         1 <0>         0.0699
     30 H8         -1.5727   -1.6076   -0.7593 H         1 <0>         0.0703
     31 H9          1.9120   -1.7748   -3.2467 H         1 <0>         0.1354
     32 H10        -0.7051   -3.3356   -3.6039 H         1 <0>         0.1356
     33 H11        -0.3711   -5.0206   -5.3362 H         1 <0>         0.4091
     34 H12         0.8299   -6.1613   -6.9244 H         1 <0>         0.3881
     35 H13        -2.3747    0.8070    0.8227 H         1 <0>         0.1300
     36 H14        -3.9717    0.9694    2.6675 H         1 <0>         0.1292
     37 H15        -0.8579    0.0491    5.4609 H         1 <0>         0.1289
     38 H16         0.7476   -0.1264    3.6246 H         1 <0>         0.1321
     39 H17        -5.3859    0.0135    4.7847 H         1 <0>         0.0542
     40 H18        -5.2502    1.4716    5.7966 H         1 <0>         0.0711
     41 H19        -4.8873    1.5591    4.0562 H         1 <0>         0.0731
     42 H20        -2.6609    1.3349    7.0388 H         1 <0>         0.0546
     43 H21        -3.8065   -0.0193    7.1869 H         1 <0>         0.0713
     44 H22        -2.1497   -0.3145    6.6073 H         1 <0>         0.0732
@<TRIPOS>BOND
     1    1    2 1
     2    1   24 1
     3    1   25 1
     4    1   26 1
     5    2    3 1
     6    2    4 1
     7    2   13 1
     8    4    5 2
     9    4   27 1
    10    5    6 1
    11    5    7 1
    12    6   28 1
    13    6   29 1
    14    6   30 1
    15    7    8 2
    16    7   31 1
    17    8    9 1
    18    8   32 1
    19    9   10 2
    20    9   11 am
    21   11   12 1
    22   11   33 1
    23   12   34 1
    24   13   14 2
    25   13   15 1
    26   15   20 ar
    27   15   16 ar
    28   16   17 ar
    29   16   35 1
    30   17   18 ar
    31   17   36 1
    32   18   19 ar
    33   18   21 1
    34   19   20 ar
    35   19   37 1
    36   20   38 1
    37   21   22 1
    38   21   23 1
    39   22   39 1
    40   22   40 1
    41   22   41 1
    42   23   42 1
    43   23   43 1
    44   23   44 1
