@<TRIPOS>MOLECULE
ZINC08457049
   21    23     0     0     0
SMALL
USER_CHARGES

@<TRIPOS>ATOM
      1 C1         -0.0168    1.3869    0.0097 C.ar      1 <0>        -0.1377
      2 C2          1.1354    2.1202    0.0026 C.ar      1 <0>        -0.0433
      3 C3          2.3830    1.4725   -0.0095 C.ar      1 <0>        -0.0744
      4 C4          3.6000    2.1761   -0.0091 C.ar      1 <0>        -0.0432
      5 C5          4.7842    1.4957   -0.0151 C.ar      1 <0>        -0.1377
      6 C6          4.8283    0.1054   -0.0243 C.ar      1 <0>         0.0013
      7 C7          3.6515   -0.6239   -0.0280 C.ar      1 <0>        -0.1904
      8 C8          2.4149    0.0635   -0.0194 C.ar      1 <0>         0.0139
      9 C9          1.2107   -0.6792   -0.0146 C.ar      1 <0>        -0.1904
     10 C10         0.0021   -0.0041    0.0020 C.ar      1 <0>         0.0013
     11 C11         1.3090   -2.1502   -0.0321 C.2       1 <0>         0.5480
     12 O1          0.3827   -2.8412   -0.4086 O.2       1 <0>        -0.4146
     13 O2          2.4795   -2.7038    0.3903 O.3       1 <0>        -0.3407
     14 C12         3.6198   -2.0979   -0.0435 C.2       1 <0>         0.5480
     15 O3          4.5734   -2.7464   -0.4273 O.2       1 <0>        -0.4146
     16 H1         -0.9669    1.9001    0.0261 H         1 <0>         0.1437
     17 H2          1.0880    3.1992    0.0060 H         1 <0>         0.1448
     18 H3          3.5985    3.2561   -0.0045 H         1 <0>         0.1448
     19 H4          5.7103    2.0515   -0.0129 H         1 <0>         0.1437
     20 H5          5.7802   -0.4050   -0.0290 H         1 <0>         0.1487
     21 H6         -0.9256   -0.5570    0.0087 H         1 <0>         0.1486
@<TRIPOS>BOND
     1    1   10 ar
     2    1    2 ar
     3    1   16 1
     4    2    3 ar
     5    2   17 1
     6    3    8 ar
     7    3    4 ar
     8    4    5 ar
     9    4   18 1
    10    5    6 ar
    11    5   19 1
    12    6    7 ar
    13    6   20 1
    14    7   14 1
    15    7    8 ar
    16    8    9 ar
    17    9   10 ar
    18    9   11 1
    19   10   21 1
    20   11   12 2
    21   11   13 1
    22   13   14 1
    23   14   15 2
