@<TRIPOS>MOLECULE
ZINC03780812
   47    50     0     0     0
SMALL
USER_CHARGES
3-methoxy-13-methyl-4-nitro-7,8,9,11,12,14,15,16-octahydro-6H-cyclopenta[a]phenanthren-17-one
@<TRIPOS>ATOM
      1 C1         -1.5876    2.4648   -1.4195 C.3       1 <0>        -0.1450
      2 C2         -1.2231    2.0900    0.0184 C.3       1 <0>        -0.1253
      3 C3         -2.4562    1.5679    0.7302 C.3       1 <0>        -0.0969
      4 C4         -3.5536    2.6430    0.6120 C.3       1 <0>        -0.1149
      5 C5         -3.0724    3.9654    1.1912 C.3       1 <0>        -0.0401
      6 H1         -2.8609    3.7966    2.2471 H         1 <0>         0.0848
      7 C6         -4.1164    5.0418    1.1097 C.ar      1 <0>        -0.0945
      8 C7         -5.4462    4.6765    1.2709 C.ar      1 <0>        -0.0424
      9 C8         -6.4463    5.6238    1.2229 C.ar      1 <0>        -0.1983
     10 C9         -6.1208    6.9558    1.0101 C.ar      1 <0>         0.1767
     11 C10        -4.7959    7.3189    0.8422 C.ar      1 <0>        -0.0658
     12 C11        -3.7897    6.3633    0.8860 C.ar      1 <0>         0.0122
     13 C12        -2.3725    6.8308    0.6838 C.3       1 <0>        -0.1016
     14 C13        -1.3686    5.7718    1.1375 C.3       1 <0>        -0.1081
     15 C14        -1.7744    4.4331    0.5211 C.3       1 <0>        -0.0778
     16 H2         -1.9314    4.5508   -0.5511 H         1 <0>         0.0907
     17 C15        -0.7350    3.3599    0.7756 C.3       1 <0>        -0.0779
     18 H3         -0.6252    3.1744    1.8440 H         1 <0>         0.0880
     19 C16         0.6325    3.5835    0.1181 C.3       1 <0>        -0.1150
     20 C17         1.1908    2.1387    0.0022 C.3       1 <0>        -0.1753
     21 C18        -0.0143    1.2034    0.0087 C.2       1 <0>         0.3811
     22 O1          0.0021   -0.0041    0.0020 O.2       1 <0>        -0.4360
     23 N1         -4.4485    8.7393    0.6134 N.pl3     1 <0>         0.0279
     24 O2         -4.3980    9.1787   -0.5215 O.2       1 <0>        -0.1369
     25 O3         -4.2130    9.4688    1.5599 O.3       1 <0>        -0.1392
     26 O4         -7.0982    7.8991    0.9663 O.3       1 <0>        -0.3123
     27 C19        -8.4424    7.4494    1.1479 C.3       1 <0>         0.0251
     28 H4         -1.8287    1.5619   -1.9804 H         1 <0>         0.0612
     29 H5         -2.4508    3.1304   -1.4139 H         1 <0>         0.0796
     30 H6         -0.7429    2.9693   -1.8887 H         1 <0>         0.0657
     31 H7         -2.2307    1.3840    1.7806 H         1 <0>         0.0698
     32 H8         -2.7904    0.6450    0.2561 H         1 <0>         0.0752
     33 H9         -4.4393    2.3138    1.1553 H         1 <0>         0.0714
     34 H10        -3.8078    2.7823   -0.4388 H         1 <0>         0.0743
     35 H11        -5.6996    3.6395    1.4350 H         1 <0>         0.1459
     36 H12        -7.4780    5.3308    1.3499 H         1 <0>         0.1514
     37 H13        -2.2124    7.7435    1.2579 H         1 <0>         0.0834
     38 H14        -2.2141    7.0431   -0.3735 H         1 <0>         0.0936
     39 H15        -1.3815    5.6949    2.2247 H         1 <0>         0.0729
     40 H16        -0.3685    6.0438    0.8000 H         1 <0>         0.0829
     41 H17         1.2721    4.1957    0.7539 H         1 <0>         0.0799
     42 H18         0.5189    4.0348   -0.8676 H         1 <0>         0.0801
     43 H19         1.7967    1.9525    0.7756 H         1 <0>         0.0893
     44 H20         1.7455    2.0265   -0.9294 H         1 <0>         0.0987
     45 H21        -9.1211    8.3003    1.0903 H         1 <0>         0.1114
     46 H22        -8.6936    6.7308    0.3677 H         1 <0>         0.0649
     47 H23        -8.5377    6.9739    2.1241 H         1 <0>         0.0649
@<TRIPOS>BOND
     1    1    2 1
     2    1   28 1
     3    1   29 1
     4    1   30 1
     5    2   17 1
     6    2   21 1
     7    2    3 1
     8    3    4 1
     9    3   31 1
    10    3   32 1
    11    4    5 1
    12    4   33 1
    13    4   34 1
    14    5    6 1
    15    5   15 1
    16    5    7 1
    17    7   12 ar
    18    7    8 ar
    19    8    9 ar
    20    8   35 1
    21    9   10 ar
    22    9   36 1
    23   10   11 ar
    24   10   26 1
    25   11   12 ar
    26   11   23 1
    27   12   13 1
    28   13   14 1
    29   13   37 1
    30   13   38 1
    31   14   15 1
    32   14   39 1
    33   14   40 1
    34   15   16 1
    35   15   17 1
    36   17   18 1
    37   17   19 1
    38   19   20 1
    39   19   41 1
    40   19   42 1
    41   20   21 1
    42   20   43 1
    43   20   44 1
    44   21   22 2
    45   23   24 2
    46   23   25 1
    47   26   27 1
    48   27   45 1
    49   27   46 1
    50   27   47 1
