@<TRIPOS>MOLECULE
ZINC02712331
   57    60     0     0     0
SMALL
USER_CHARGES

@<TRIPOS>ATOM
      1 C1         -1.9921    0.7325   -0.6125 C.3       1 <0>        -0.1527
      2 C2         -1.7681   -0.7756   -0.4847 C.3       1 <0>         0.0605
      3 O1         -0.8129   -1.0295    0.5475 O.3       1 <0>        -0.3474
      4 C3         -0.5025   -2.3130    0.7882 C.2       1 <0>         0.4655
      5 O2         -1.0244   -3.1918    0.1439 O.2       1 <0>        -0.4790
      6 C4          0.4970   -2.6579    1.8620 C.3       1 <0>         0.0949
      7 H1          1.4287   -2.1235    1.6763 H         1 <0>         0.1134
      8 C5         -0.0608   -2.2513    3.2275 C.3       1 <0>        -0.1763
      9 O3          0.7442   -4.0653    1.8484 O.3       1 <0>        -0.2815
     10 C6          1.9377   -4.4867    2.3423 C.ar      1 <0>         0.1240
     11 C7          2.8035   -3.5873    2.9353 C.ar      1 <0>        -0.1780
     12 C8          4.0251   -4.0088    3.4421 C.ar      1 <0>        -0.0948
     13 C9          4.4019   -5.3315    3.3658 C.ar      1 <0>        -0.0795
     14 C10         3.5463   -6.2597    2.7725 C.ar      1 <0>        -0.1128
     15 C11         2.2988   -5.8368    2.2600 C.ar      1 <0>        -0.0154
     16 C12         1.4226   -6.8370    1.6487 C.2       1 <0>        -0.1759
     17 C13         1.8198   -8.1188    1.5964 C.2       1 <0>         0.1055
     18 N1          3.0220   -8.5332    2.0958 N.am      1 <0>        -0.5051
     19 C14         3.8971   -7.6803    2.6645 C.2       1 <0>         0.5555
     20 O4          4.9604   -8.0868    3.0976 O.2       1 <0>        -0.5202
     21 C15         3.3780   -9.9509    1.9978 C.3       1 <0>         0.0802
     22 C16         4.1069  -10.1974    0.7020 C.2       1 <0>         0.4969
     23 O5          4.3092   -9.2792   -0.0642 O.2       1 <0>        -0.4990
     24 N2          4.5340  -11.4382    0.3946 N.am      1 <0>        -0.6669
     25 C17         5.3030  -11.6489   -0.7574 C.ar      1 <0>         0.1498
     26 C18         5.1790  -12.8354   -1.4678 C.ar      1 <0>        -0.1375
     27 C19         5.9376  -13.0439   -2.6031 C.ar      1 <0>        -0.0927
     28 C20         6.8244  -12.0697   -3.0375 C.ar      1 <0>         0.0367
     29 C21         6.9490  -10.8800   -2.3298 C.ar      1 <0>         0.0722
     30 C22         6.1848  -10.6697   -1.1922 C.ar      1 <0>        -0.1148
     31 O6          7.8081   -9.9093   -2.7449 O.3       1 <0>        -0.3038
     32 C23         8.8226  -10.3023   -3.6755 C.3       1 <0>         0.0198
     33 C24         8.1654  -11.1498   -4.7733 C.3       1 <0>         0.0202
     34 O7          7.5666  -12.2950   -4.1571 O.3       1 <0>        -0.3066
     35 H2         -1.0496    1.2200   -0.8617 H         1 <0>         0.0681
     36 H3         -2.7206    0.9262   -1.3998 H         1 <0>         0.0826
     37 H4         -2.3657    1.1258    0.3330 H         1 <0>         0.0683
     38 H5         -2.7106   -1.2631   -0.2355 H         1 <0>         0.0710
     39 H6         -1.3945   -1.1688   -1.4301 H         1 <0>         0.0706
     40 H7         -0.2494   -1.1777    3.2379 H         1 <0>         0.0900
     41 H8         -0.9925   -2.7856    3.4131 H         1 <0>         0.0771
     42 H9          0.6621   -2.5007    4.0042 H         1 <0>         0.0829
     43 H10         2.5268   -2.5456    3.0048 H         1 <0>         0.1378
     44 H11         4.6883   -3.2909    3.9017 H         1 <0>         0.1369
     45 H12         5.3550   -5.6482    3.7628 H         1 <0>         0.1409
     46 H13         0.4645   -6.5468    1.2435 H         1 <0>         0.1548
     47 H14         1.1650   -8.8485    1.1434 H         1 <0>         0.1586
     48 H15         4.0219  -10.2226    2.8342 H         1 <0>         0.1330
     49 H16         2.4716  -10.5558    2.0255 H         1 <0>         0.1269
     50 H17         4.3090  -12.1853    0.9709 H         1 <0>         0.4153
     51 H18         4.4893  -13.5958   -1.1324 H         1 <0>         0.1377
     52 H19         5.8403  -13.9679   -3.1538 H         1 <0>         0.1412
     53 H20         6.2786   -9.7450   -0.6422 H         1 <0>         0.1458
     54 H21         9.2783   -9.4166   -4.1182 H         1 <0>         0.1239
     55 H22         9.5836  -10.8907   -3.1629 H         1 <0>         0.0793
     56 H23         7.3999  -10.5635   -5.2816 H         1 <0>         0.0783
     57 H24         8.9202  -11.4710   -5.4910 H         1 <0>         0.1240
@<TRIPOS>BOND
     1    1    2 1
     2    1   35 1
     3    1   36 1
     4    1   37 1
     5    2    3 1
     6    2   38 1
     7    2   39 1
     8    3    4 1
     9    4    5 2
    10    4    6 1
    11    6    7 1
    12    6    8 1
    13    6    9 1
    14    8   40 1
    15    8   41 1
    16    8   42 1
    17    9   10 1
    18   10   15 ar
    19   10   11 ar
    20   11   12 ar
    21   11   43 1
    22   12   13 ar
    23   12   44 1
    24   13   14 ar
    25   13   45 1
    26   14   19 1
    27   14   15 ar
    28   15   16 1
    29   16   17 2
    30   16   46 1
    31   17   18 1
    32   17   47 1
    33   18   19 am
    34   18   21 1
    35   19   20 2
    36   21   22 1
    37   21   48 1
    38   21   49 1
    39   22   23 2
    40   22   24 am
    41   24   25 1
    42   24   50 1
    43   25   30 ar
    44   25   26 ar
    45   26   27 ar
    46   26   51 1
    47   27   28 ar
    48   27   52 1
    49   28   34 1
    50   28   29 ar
    51   29   30 ar
    52   29   31 1
    53   30   53 1
    54   31   32 1
    55   32   33 1
    56   32   54 1
    57   32   55 1
    58   33   34 1
    59   33   56 1
    60   33   57 1
@<TRIPOS>MOLECULE
ZINC02712333
   57    60     0     0     0
SMALL
USER_CHARGES

@<TRIPOS>ATOM
      1 C1         -0.8812    0.6493   -1.6140 C.3       1 <0>        -0.1528
      2 C2         -0.6025   -0.8452   -1.4421 C.3       1 <0>         0.0606
      3 O1          0.1092   -1.0597   -0.2216 O.3       1 <0>        -0.3473
      4 C3          0.4332   -2.3269    0.0803 C.2       1 <0>         0.4660
      5 O2          0.1229   -3.2242   -0.6670 O.2       1 <0>        -0.4793
      6 C4          1.1840   -2.6303    1.3512 C.3       1 <0>         0.0952
      7 H1          0.6404   -2.2185    2.2015 H         1 <0>         0.1135
      8 C5          2.5770   -2.0012    1.2833 C.3       1 <0>        -0.1774
      9 O3          1.3075   -4.0456    1.5051 O.3       1 <0>        -0.2816
     10 C6          1.4736   -4.5165    2.7688 C.ar      1 <0>         0.1240
     11 C7          1.6324   -3.6388    3.8246 C.ar      1 <0>        -0.1779
     12 C8          1.8031   -4.1109    5.1187 C.ar      1 <0>        -0.0949
     13 C9          1.8182   -5.4633    5.3800 C.ar      1 <0>        -0.0794
     14 C10         1.6596   -6.3704    4.3323 C.ar      1 <0>        -0.1128
     15 C11         1.4797   -5.8949    3.0135 C.ar      1 <0>        -0.0154
     16 C12         1.3108   -6.8732    1.9382 C.2       1 <0>        -0.1759
     17 C13         1.3252   -8.1839    2.2301 C.2       1 <0>         0.1054
     18 N1          1.4929   -8.6481    3.5041 N.am      1 <0>        -0.5051
     19 C14         1.6676   -7.8208    4.5537 C.2       1 <0>         0.5555
     20 O4          1.8153   -8.2718    5.6754 O.2       1 <0>        -0.5202
     21 C15         1.4961  -10.0947    3.7353 C.3       1 <0>         0.0801
     22 C16         2.9042  -10.6188    3.6192 C.2       1 <0>         0.4971
     23 O5          3.8155   -9.8587    3.3680 O.2       1 <0>        -0.4991
     24 N2          3.1510  -11.9321    3.7944 N.am      1 <0>        -0.6670
     25 C17         4.4706  -12.4029    3.7955 C.ar      1 <0>         0.1498
     26 C18         4.7584  -13.6644    3.2919 C.ar      1 <0>        -0.1376
     27 C19         6.0591  -14.1293    3.2935 C.ar      1 <0>        -0.0927
     28 C20         7.0813  -13.3382    3.7969 C.ar      1 <0>         0.0366
     29 C21         6.7966  -12.0740    4.2995 C.ar      1 <0>         0.0722
     30 C22         5.4914  -11.6064    4.2945 C.ar      1 <0>        -0.1149
     31 O6          7.7874  -11.2802    4.7904 O.3       1 <0>        -0.3038
     32 C23         9.0245  -11.9225    5.1174 C.3       1 <0>         0.0198
     33 C24         9.4043  -12.8528    3.9574 C.3       1 <0>         0.0202
     34 O7          8.3570  -13.8152    3.7935 O.3       1 <0>        -0.3066
     35 H2          0.0625    1.1939   -1.6431 H         1 <0>         0.0683
     36 H3         -1.4240    0.8129   -2.5449 H         1 <0>         0.0826
     37 H4         -1.4807    1.0058   -0.7764 H         1 <0>         0.0681
     38 H5         -1.5462   -1.3899   -1.4129 H         1 <0>         0.0706
     39 H6         -0.0029   -1.2017   -2.2797 H         1 <0>         0.0709
     40 H7          3.1200   -2.2207    2.2025 H         1 <0>         0.0831
     41 H8          3.1206   -2.4131    0.4330 H         1 <0>         0.0772
     42 H9          2.4827   -0.9216    1.1659 H         1 <0>         0.0901
     43 H10         1.6239   -2.5746    3.6407 H         1 <0>         0.1378
     44 H11         1.9260   -3.4094    5.9306 H         1 <0>         0.1369
     45 H12         1.9524   -5.8194    6.3907 H         1 <0>         0.1409
     46 H13         1.1755   -6.5438    0.9186 H         1 <0>         0.1548
     47 H14         1.1994   -8.8970    1.4287 H         1 <0>         0.1586
     48 H15         1.1117  -10.3040    4.7335 H         1 <0>         0.1330
     49 H16         0.8644  -10.5827    2.9930 H         1 <0>         0.1269
     50 H17         2.4151  -12.5514    3.9199 H         1 <0>         0.4153
     51 H18         3.9648  -14.2827    2.8990 H         1 <0>         0.1377
     52 H19         6.2807  -15.1112    2.9022 H         1 <0>         0.1412
     53 H20         5.2686  -10.6234    4.6825 H         1 <0>         0.1459
     54 H21         9.8027  -11.1722    5.2568 H         1 <0>         0.1239
     55 H22         8.9061  -12.5043    6.0315 H         1 <0>         0.0793
     56 H23         9.5162  -12.2719    3.0419 H         1 <0>         0.0784
     57 H24        10.3399  -13.3629    4.1865 H         1 <0>         0.1240
@<TRIPOS>BOND
     1    1    2 1
     2    1   35 1
     3    1   36 1
     4    1   37 1
     5    2    3 1
     6    2   38 1
     7    2   39 1
     8    3    4 1
     9    4    5 2
    10    4    6 1
    11    6    7 1
    12    6    8 1
    13    6    9 1
    14    8   40 1
    15    8   41 1
    16    8   42 1
    17    9   10 1
    18   10   15 ar
    19   10   11 ar
    20   11   12 ar
    21   11   43 1
    22   12   13 ar
    23   12   44 1
    24   13   14 ar
    25   13   45 1
    26   14   19 1
    27   14   15 ar
    28   15   16 1
    29   16   17 2
    30   16   46 1
    31   17   18 1
    32   17   47 1
    33   18   19 am
    34   18   21 1
    35   19   20 2
    36   21   22 1
    37   21   48 1
    38   21   49 1
    39   22   23 2
    40   22   24 am
    41   24   25 1
    42   24   50 1
    43   25   30 ar
    44   25   26 ar
    45   26   27 ar
    46   26   51 1
    47   27   28 ar
    48   27   52 1
    49   28   34 1
    50   28   29 ar
    51   29   30 ar
    52   29   31 1
    53   30   53 1
    54   31   32 1
    55   32   33 1
    56   32   54 1
    57   32   55 1
    58   33   34 1
    59   33   56 1
    60   33   57 1
@<TRIPOS>MOLECULE
ZINC12080554
   53    55     0     0     0
SMALL
USER_CHARGES
ethyl (2R)-2-[[2-[2-[(4-nitrophenyl)amino]-2-oxo-ethyl]-1-oxo-5-isoquinolyl]oxy]propanoate
@<TRIPOS>ATOM
      1 C1          6.9514   -3.8738   -0.4593 C.3       1 <0>        -0.1539
      2 C2          5.5237   -3.3340   -0.3533 C.3       1 <0>         0.0630
      3 O1          5.5171   -1.9171   -0.6704 O.3       1 <0>        -0.3525
      4 C3          4.3326   -1.2876   -0.6232 C.2       1 <0>         0.4669
      5 O2          3.3342   -1.9002   -0.3268 O.2       1 <0>        -0.4812
      6 C4          4.2478    0.1833   -0.9401 C.3       1 <0>         0.0946
      7 H1          4.9381    0.7332   -0.3003 H         1 <0>         0.1133
      8 C5          4.6199    0.4114   -2.4065 C.3       1 <0>        -0.1774
      9 O3          2.9150    0.6442   -0.7096 O.3       1 <0>        -0.2816
     10 C6          2.7573    1.9668   -0.4412 C.ar      1 <0>         0.1257
     11 C7          3.8376    2.8260   -0.5121 C.ar      1 <0>        -0.1774
     12 C8          3.6857    4.1787   -0.2396 C.ar      1 <0>        -0.0928
     13 C9          2.4569    4.6946    0.1082 C.ar      1 <0>        -0.0800
     14 C10         1.3506    3.8488    0.1874 C.ar      1 <0>        -0.1126
     15 C11         1.4995    2.4709   -0.0895 C.ar      1 <0>        -0.0178
     16 C12         0.3188    1.6111    0.0022 C.2       1 <0>        -0.1701
     17 C13        -0.8648    2.1489    0.3387 C.2       1 <0>         0.0995
     18 N1         -1.0126    3.4793    0.6122 N.am      1 <0>        -0.5066
     19 C14         0.0188    4.3448    0.5525 C.2       1 <0>         0.5559
     20 O4         -0.1525    5.5251    0.7993 O.2       1 <0>        -0.5202
     21 C15        -2.3387    3.9834    0.9776 C.3       1 <0>         0.0811
     22 C16        -3.0780    4.4009   -0.2675 C.2       1 <0>         0.5008
     23 O5         -2.5492    4.2884   -1.3532 O.2       1 <0>        -0.4915
     24 N2         -4.3268    4.8992   -0.1745 N.am      1 <0>        -0.6713
     25 C17        -5.0545    5.1844   -1.3352 C.ar      1 <0>         0.2043
     26 C18        -5.9520    6.2440   -1.3510 C.ar      1 <0>        -0.1455
     27 C19        -6.6651    6.5259   -2.4997 C.ar      1 <0>        -0.0300
     28 C20        -6.4940    5.7478   -3.6299 C.ar      1 <0>        -0.0631
     29 C21        -5.6050    4.6888   -3.6158 C.ar      1 <0>        -0.0302
     30 C22        -4.8849    4.4049   -2.4719 C.ar      1 <0>        -0.1247
     31 N3         -7.2637    6.0495   -4.8577 N.pl3     1 <0>         0.0300
     32 O6         -7.1137    5.3653   -5.8541 O.2       1 <0>        -0.1599
     33 O7         -8.0472    6.9820   -4.8716 O.3       1 <0>        -0.1603
     34 H2          6.9564   -4.9374   -0.2212 H         1 <0>         0.0836
     35 H3          7.3209   -3.7269   -1.4742 H         1 <0>         0.0686
     36 H4          7.5941   -3.3415    0.2420 H         1 <0>         0.0683
     37 H5          5.1542   -3.4809    0.6616 H         1 <0>         0.0733
     38 H6          4.8810   -3.8663   -1.0545 H         1 <0>         0.0738
     39 H7          4.5586    1.4753   -2.6357 H         1 <0>         0.0827
     40 H8          5.6366    0.0599   -2.5823 H         1 <0>         0.0905
     41 H9          3.9297   -0.1384   -3.0463 H         1 <0>         0.0774
     42 H10         4.8097    2.4412   -0.7828 H         1 <0>         0.1387
     43 H11         4.5417    4.8344   -0.3007 H         1 <0>         0.1378
     44 H12         2.3504    5.7487    0.3181 H         1 <0>         0.1412
     45 H13         0.3977    0.5538   -0.2033 H         1 <0>         0.1558
     46 H14        -1.7304    1.5058    0.3994 H         1 <0>         0.1590
     47 H15        -2.8983    3.1985    1.4864 H         1 <0>         0.1313
     48 H16        -2.2312    4.8414    1.6412 H         1 <0>         0.1348
     49 H17        -4.7212    5.0601    0.6970 H         1 <0>         0.4211
     50 H18        -6.0893    6.8494   -0.4672 H         1 <0>         0.1528
     51 H19        -7.3600    7.3526   -2.5140 H         1 <0>         0.1597
     52 H20        -5.4738    4.0827   -4.5000 H         1 <0>         0.1583
     53 H21        -4.1904    3.5779   -2.4616 H         1 <0>         0.1568
@<TRIPOS>BOND
     1    1    2 1
     2    1   34 1
     3    1   35 1
     4    1   36 1
     5    2    3 1
     6    2   37 1
     7    2   38 1
     8    3    4 1
     9    4    5 2
    10    4    6 1
    11    6    7 1
    12    6    8 1
    13    6    9 1
    14    8   39 1
    15    8   40 1
    16    8   41 1
    17    9   10 1
    18   10   15 ar
    19   10   11 ar
    20   11   12 ar
    21   11   42 1
    22   12   13 ar
    23   12   43 1
    24   13   14 ar
    25   13   44 1
    26   14   19 1
    27   14   15 ar
    28   15   16 1
    29   16   17 2
    30   16   45 1
    31   17   18 1
    32   17   46 1
    33   18   19 am
    34   18   21 1
    35   19   20 2
    36   21   22 1
    37   21   47 1
    38   21   48 1
    39   22   23 2
    40   22   24 am
    41   24   25 1
    42   24   49 1
    43   25   30 ar
    44   25   26 ar
    45   26   27 ar
    46   26   50 1
    47   27   28 ar
    48   27   51 1
    49   28   29 ar
    50   28   31 1
    51   29   30 ar
    52   29   52 1
    53   30   53 1
    54   31   32 2
    55   31   33 1
@<TRIPOS>MOLECULE
ZINC12080555
   53    55     0     0     0
SMALL
USER_CHARGES
ethyl (2S)-2-[[2-[2-[(4-nitrophenyl)amino]-2-oxo-ethyl]-1-oxo-5-isoquinolyl]oxy]propanoate
@<TRIPOS>ATOM
      1 C1         -1.8661    8.6091   -1.6776 C.3       1 <0>        -0.1537
      2 C2         -0.5788    7.7823   -1.6922 C.3       1 <0>         0.0629
      3 O1         -0.8077    6.5182   -1.0156 O.3       1 <0>        -0.3523
      4 C3          0.2302    5.6703   -0.9408 C.2       1 <0>         0.4666
      5 O2          1.2947    5.9743   -1.4247 O.2       1 <0>        -0.4809
      6 C4          0.0677    4.3392   -0.2532 C.3       1 <0>         0.0926
      7 H1         -0.7079    3.7623   -0.7570 H         1 <0>         0.1147
      8 C5         -0.3314    4.5645    1.2065 C.3       1 <0>        -0.1747
      9 O3          1.3031    3.6228   -0.3041 O.3       1 <0>        -0.2814
     10 C6          1.2358    2.2693   -0.2056 C.ar      1 <0>         0.1270
     11 C7          0.0093    1.6341   -0.1555 C.ar      1 <0>        -0.1785
     12 C8         -0.0689    0.2518   -0.0553 C.ar      1 <0>        -0.0918
     13 C9          1.0726   -0.5174   -0.0035 C.ar      1 <0>        -0.0806
     14 C10         2.3229    0.0989   -0.0522 C.ar      1 <0>        -0.1119
     15 C11         2.4083    1.5059   -0.1543 C.ar      1 <0>        -0.0183
     16 C12         3.7354    2.1207   -0.2042 C.2       1 <0>        -0.1699
     17 C13         4.8268    1.3400   -0.1518 C.2       1 <0>         0.0994
     18 N1          4.7492   -0.0205   -0.0527 N.am      1 <0>        -0.5065
     19 C14         3.5705   -0.6717   -0.0012 C.2       1 <0>         0.5559
     20 O4          3.5411   -1.8861    0.0871 O.2       1 <0>        -0.5201
     21 C15         5.9899   -0.7979   -0.0011 C.3       1 <0>         0.0818
     22 C16         6.4100   -1.1669   -1.4005 C.2       1 <0>         0.5009
     23 O5          5.7391   -0.8151   -2.3477 O.2       1 <0>        -0.4929
     24 N2          7.5311   -1.8879   -1.5995 N.am      1 <0>        -0.6711
     25 C17         7.8745   -2.3057   -2.8901 C.ar      1 <0>         0.2006
     26 C18         8.4955   -3.5329   -3.0820 C.ar      1 <0>        -0.1437
     27 C19         8.8288   -3.9444   -4.3576 C.ar      1 <0>        -0.0319
     28 C20         8.5542   -3.1314   -5.4419 C.ar      1 <0>        -0.0616
     29 C21         7.9406   -1.9065   -5.2536 C.ar      1 <0>        -0.0322
     30 C22         7.6000   -1.4915   -3.9811 C.ar      1 <0>        -0.1233
     31 N3          8.9173   -3.5733   -6.8071 N.pl3     1 <0>         0.0298
     32 O6          8.6757   -2.8584   -7.7631 O.2       1 <0>        -0.1598
     33 O7          9.4578   -4.6519   -6.9745 O.3       1 <0>        -0.1602
     34 H2         -2.6562    8.0604   -2.1902 H         1 <0>         0.0684
     35 H3         -2.1650    8.7978   -0.6465 H         1 <0>         0.0685
     36 H4         -1.6942    9.5580   -2.1856 H         1 <0>         0.0836
     37 H5          0.2113    8.3310   -1.1796 H         1 <0>         0.0737
     38 H6         -0.2799    7.5935   -2.7233 H         1 <0>         0.0734
     39 H7         -1.2738    5.1109    1.2454 H         1 <0>         0.0908
     40 H8         -0.4490    3.6017    1.7038 H         1 <0>         0.0811
     41 H9          0.4441    5.1414    1.7103 H         1 <0>         0.0764
     42 H10        -0.8976    2.2189   -0.1994 H         1 <0>         0.1381
     43 H11        -1.0365   -0.2264   -0.0178 H         1 <0>         0.1377
     44 H12         0.9998   -1.5921    0.0749 H         1 <0>         0.1411
     45 H13         3.8363    3.1931   -0.2828 H         1 <0>         0.1554
     46 H14         5.8012    1.8044   -0.1889 H         1 <0>         0.1590
     47 H15         6.7728   -0.2021    0.4681 H         1 <0>         0.1304
     48 H16         5.8261   -1.7053    0.5803 H         1 <0>         0.1354
     49 H17         8.1001   -2.1172   -0.8481 H         1 <0>         0.4208
     50 H18         8.7143   -4.1664   -2.2351 H         1 <0>         0.1528
     51 H19         9.3078   -4.9007   -4.5080 H         1 <0>         0.1596
     52 H20         7.7277   -1.2737   -6.1025 H         1 <0>         0.1581
     53 H21         7.1205   -0.5349   -3.8347 H         1 <0>         0.1608
@<TRIPOS>BOND
     1    1    2 1
     2    1   34 1
     3    1   35 1
     4    1   36 1
     5    2    3 1
     6    2   37 1
     7    2   38 1
     8    3    4 1
     9    4    5 2
    10    4    6 1
    11    6    7 1
    12    6    8 1
    13    6    9 1
    14    8   39 1
    15    8   40 1
    16    8   41 1
    17    9   10 1
    18   10   15 ar
    19   10   11 ar
    20   11   12 ar
    21   11   42 1
    22   12   13 ar
    23   12   43 1
    24   13   14 ar
    25   13   44 1
    26   14   19 1
    27   14   15 ar
    28   15   16 1
    29   16   17 2
    30   16   45 1
    31   17   18 1
    32   17   46 1
    33   18   19 am
    34   18   21 1
    35   19   20 2
    36   21   22 1
    37   21   47 1
    38   21   48 1
    39   22   23 2
    40   22   24 am
    41   24   25 1
    42   24   49 1
    43   25   30 ar
    44   25   26 ar
    45   26   27 ar
    46   26   50 1
    47   27   28 ar
    48   27   51 1
    49   28   29 ar
    50   28   31 1
    51   29   30 ar
    52   29   52 1
    53   30   53 1
    54   31   32 2
    55   31   33 1
@<TRIPOS>MOLECULE
ZINC02712355
   51    53     0     0     0
SMALL
USER_CHARGES

@<TRIPOS>ATOM
      1 C1          0.4511    1.4819    0.2930 C.3       1 <0>        -0.1527
      2 C2          0.4716   -0.0476    0.2576 C.3       1 <0>         0.0605
      3 O1          0.9222   -0.4884   -1.0249 O.3       1 <0>        -0.3473
      4 C3          0.9981   -1.8140   -1.2216 C.2       1 <0>         0.4656
      5 O2          0.6920   -2.5749   -0.3343 O.2       1 <0>        -0.4791
      6 C4          1.4649   -2.3532   -2.5491 C.3       1 <0>         0.0949
      7 H1          0.8498   -1.9371   -3.3469 H         1 <0>         0.1134
      8 C5          2.9263   -1.9598   -2.7739 C.3       1 <0>        -0.1765
      9 O3          1.3492   -3.7775   -2.5520 O.3       1 <0>        -0.2816
     10 C6          1.2188   -4.3834   -3.7612 C.ar      1 <0>         0.1237
     11 C7          1.3137   -3.6441   -4.9251 C.ar      1 <0>        -0.1782
     12 C8          1.1812   -4.2545   -6.1647 C.ar      1 <0>        -0.0952
     13 C9          0.9525   -5.6093   -6.2631 C.ar      1 <0>        -0.0795
     14 C10         0.8530   -6.3783   -5.1037 C.ar      1 <0>        -0.1128
     15 C11         0.9928   -5.7628   -3.8391 C.ar      1 <0>        -0.0151
     16 C12         0.8883   -6.5992   -2.6427 C.2       1 <0>        -0.1776
     17 C13         0.6703   -7.9176   -2.7761 C.2       1 <0>         0.1068
     18 N1          0.5405   -8.5180   -3.9965 N.am      1 <0>        -0.5045
     19 C14         0.6103   -7.8246   -5.1501 C.2       1 <0>         0.5552
     20 O4          0.4885   -8.3946   -6.2196 O.2       1 <0>        -0.5208
     21 C15         0.3041   -9.9627   -4.0526 C.3       1 <0>         0.0788
     22 C16        -1.1789  -10.2301   -4.0348 C.2       1 <0>         0.5014
     23 O5         -1.9613   -9.3049   -3.9807 O.2       1 <0>        -0.5196
     24 N2         -1.6357  -11.4973   -4.0792 N.am      1 <0>        -0.7256
     25 C17        -3.0774  -11.7572   -4.0619 C.3       1 <0>         0.2047
     26 C18        -3.3206  -13.2433   -4.1196 C.2       1 <0>        -0.0437
     27 C19        -3.4316  -14.0640   -3.0596 C.2       1 <0>        -0.1797
     28 C20        -3.6541  -15.3638   -3.5695 C.2       1 <0>        -0.2186
     29 C21        -3.6658  -15.2596   -4.9106 C.2       1 <0>        -0.0245
     30 O6         -3.4691  -13.9720   -5.2379 O.3       1 <0>        -0.1708
     31 H2          1.4557    1.8631    0.1101 H         1 <0>         0.0682
     32 H3         -0.2245    1.8541   -0.4772 H         1 <0>         0.0681
     33 H4          0.1074    1.8181    1.2712 H         1 <0>         0.0826
     34 H5          1.1472   -0.4197    1.0278 H         1 <0>         0.0709
     35 H6         -0.5330   -0.4288    0.4405 H         1 <0>         0.0707
     36 H7          3.0146   -0.8734   -2.7717 H         1 <0>         0.0899
     37 H8          3.5415   -2.3760   -1.9761 H         1 <0>         0.0770
     38 H9          3.2640   -2.3499   -3.7341 H         1 <0>         0.0829
     39 H10         1.4924   -2.5804   -4.8695 H         1 <0>         0.1376
     40 H11         1.2581   -3.6600   -7.0630 H         1 <0>         0.1368
     41 H12         0.8504   -6.0736   -7.2328 H         1 <0>         0.1408
     42 H13         0.9860   -6.1600   -1.6609 H         1 <0>         0.1546
     43 H14         0.5953   -8.5253   -1.8865 H         1 <0>         0.1582
     44 H15         0.7351  -10.3661   -4.9689 H         1 <0>         0.1298
     45 H16         0.7698  -10.4408   -3.1908 H         1 <0>         0.1247
     46 H17        -1.0100  -12.2372   -4.1225 H         1 <0>         0.4061
     47 H18        -3.5084  -11.3538   -3.1456 H         1 <0>         0.1018
     48 H19        -3.5431  -11.2791   -4.9237 H         1 <0>         0.0873
     49 H20        -3.3632  -13.7839   -2.0188 H         1 <0>         0.1517
     50 H21        -3.7885  -16.2670   -2.9929 H         1 <0>         0.1523
     51 H22        -3.8125  -16.0728   -5.6060 H         1 <0>         0.2066
@<TRIPOS>BOND
     1    1    2 1
     2    1   31 1
     3    1   32 1
     4    1   33 1
     5    2    3 1
     6    2   34 1
     7    2   35 1
     8    3    4 1
     9    4    5 2
    10    4    6 1
    11    6    7 1
    12    6    8 1
    13    6    9 1
    14    8   36 1
    15    8   37 1
    16    8   38 1
    17    9   10 1
    18   10   15 ar
    19   10   11 ar
    20   11   12 ar
    21   11   39 1
    22   12   13 ar
    23   12   40 1
    24   13   14 ar
    25   13   41 1
    26   14   19 1
    27   14   15 ar
    28   15   16 1
    29   16   17 2
    30   16   42 1
    31   17   18 1
    32   17   43 1
    33   18   19 am
    34   18   21 1
    35   19   20 2
    36   21   22 1
    37   21   44 1
    38   21   45 1
    39   22   23 2
    40   22   24 am
    41   24   25 1
    42   24   46 1
    43   25   26 1
    44   25   47 1
    45   25   48 1
    46   26   30 1
    47   26   27 2
    48   27   28 1
    49   27   49 1
    50   28   29 2
    51   28   50 1
    52   29   30 1
    53   29   51 1
@<TRIPOS>MOLECULE
ZINC02712356
   51    53     0     0     0
SMALL
USER_CHARGES

@<TRIPOS>ATOM
      1 C1          0.2364    1.2811    0.6063 C.3       1 <0>        -0.1528
      2 C2          0.1232   -0.2282    0.3828 C.3       1 <0>         0.0606
      3 O1          0.8537   -0.5921   -0.7903 O.3       1 <0>        -0.3473
      4 C3          0.8552   -1.8910   -1.1288 C.2       1 <0>         0.4658
      5 O2          0.2562   -2.6925   -0.4515 O.2       1 <0>        -0.4794
      6 C4          1.6040   -2.3497   -2.3535 C.3       1 <0>         0.0951
      7 H1          2.6428   -2.0261   -2.2866 H         1 <0>         0.1135
      8 C5          0.9602   -1.7431   -3.6018 C.3       1 <0>        -0.1770
      9 O3          1.5537   -3.7754   -2.4365 O.3       1 <0>        -0.2815
     10 C6          2.5539   -4.3891   -3.1213 C.ar      1 <0>         0.1237
     11 C7          3.4986   -3.6394   -3.7964 C.ar      1 <0>        -0.1782
     12 C8          4.5236   -4.2580   -4.4990 C.ar      1 <0>        -0.0952
     13 C9          4.6227   -5.6313   -4.5393 C.ar      1 <0>        -0.0795
     14 C10         3.6823   -6.4110   -3.8660 C.ar      1 <0>        -0.1129
     15 C11         2.6400   -5.7863   -3.1444 C.ar      1 <0>        -0.0151
     16 C12         1.6732   -6.6334   -2.4447 C.2       1 <0>        -0.1777
     17 C13         1.8035   -7.9688   -2.5010 C.2       1 <0>         0.1068
     18 N1          2.8128   -8.5770   -3.1922 N.am      1 <0>        -0.5045
     19 C14         3.7401   -7.8771   -3.8755 C.2       1 <0>         0.5552
     20 O4          4.6248   -8.4547   -4.4814 O.2       1 <0>        -0.5208
     21 C15         2.8818  -10.0404   -3.2021 C.3       1 <0>         0.0787
     22 C16         2.0903  -10.5727   -4.3689 C.2       1 <0>         0.5016
     23 O5          1.5243   -9.8053   -5.1183 O.2       1 <0>        -0.5197
     24 N2          2.0114  -11.9015   -4.5795 N.am      1 <0>        -0.7257
     25 C17         1.2420  -12.4190   -5.7137 C.3       1 <0>         0.2048
     26 C18         1.3130  -13.9243   -5.7238 C.2       1 <0>        -0.0437
     27 C19         0.4547  -14.7565   -5.1072 C.2       1 <0>        -0.1797
     28 C20         0.8944  -16.0727   -5.3779 C.2       1 <0>        -0.2186
     29 C21         1.9950  -15.9661   -6.1438 C.2       1 <0>        -0.0245
     30 O6          2.2405  -14.6626   -6.3550 O.3       1 <0>        -0.1709
     31 H2          1.2846    1.5521    0.7324 H         1 <0>         0.0681
     32 H3         -0.1740    1.8078   -0.2552 H         1 <0>         0.0683
     33 H4         -0.3208    1.5587    1.5011 H         1 <0>         0.0826
     34 H5          0.5336   -0.7549    1.2443 H         1 <0>         0.0706
     35 H6         -0.9250   -0.4993    0.2567 H         1 <0>         0.0710
     36 H7          1.5019   -2.0748   -4.4877 H         1 <0>         0.0830
     37 H8         -0.0785   -2.0666   -3.6687 H         1 <0>         0.0772
     38 H9          0.9987   -0.6556   -3.5385 H         1 <0>         0.0899
     39 H10         3.4384   -2.5613   -3.7775 H         1 <0>         0.1376
     40 H11         5.2522   -3.6551   -5.0207 H         1 <0>         0.1368
     41 H12         5.4240   -6.1018   -5.0897 H         1 <0>         0.1408
     42 H13         0.8620   -6.1884   -1.8876 H         1 <0>         0.1546
     43 H14         1.0845   -8.5842   -1.9806 H         1 <0>         0.1582
     44 H15         3.9214  -10.3545   -3.2948 H         1 <0>         0.1297
     45 H16         2.4660  -10.4300   -2.2730 H         1 <0>         0.1247
     46 H17         2.4641  -12.5153   -3.9801 H         1 <0>         0.4061
     47 H18         0.2024  -12.1049   -5.6210 H         1 <0>         0.1018
     48 H19         1.6578  -12.0294   -6.6428 H         1 <0>         0.0873
     49 H20        -0.4049  -14.4735   -4.5178 H         1 <0>         0.1517
     50 H21         0.4349  -16.9880   -5.0352 H         1 <0>         0.1523
     51 H22         2.5798  -16.7891   -6.5273 H         1 <0>         0.2066
@<TRIPOS>BOND
     1    1    2 1
     2    1   31 1
     3    1   32 1
     4    1   33 1
     5    2    3 1
     6    2   34 1
     7    2   35 1
     8    3    4 1
     9    4    5 2
    10    4    6 1
    11    6    7 1
    12    6    8 1
    13    6    9 1
    14    8   36 1
    15    8   37 1
    16    8   38 1
    17    9   10 1
    18   10   15 ar
    19   10   11 ar
    20   11   12 ar
    21   11   39 1
    22   12   13 ar
    23   12   40 1
    24   13   14 ar
    25   13   41 1
    26   14   19 1
    27   14   15 ar
    28   15   16 1
    29   16   17 2
    30   16   42 1
    31   17   18 1
    32   17   43 1
    33   18   19 am
    34   18   21 1
    35   19   20 2
    36   21   22 1
    37   21   44 1
    38   21   45 1
    39   22   23 2
    40   22   24 am
    41   24   25 1
    42   24   46 1
    43   25   26 1
    44   25   47 1
    45   25   48 1
    46   26   30 1
    47   26   27 2
    48   27   28 1
    49   27   49 1
    50   28   29 2
    51   28   50 1
    52   29   30 1
    53   29   51 1
@<TRIPOS>MOLECULE
ZINC02712349
   54    56     0     0     0
SMALL
USER_CHARGES

@<TRIPOS>ATOM
      1 C1         -0.4974    1.4691    0.2750 C.3       1 <0>        -0.1527
      2 C2         -0.4532   -0.0602    0.2799 C.3       1 <0>         0.0605
      3 O1          0.4391   -0.5077    1.3024 O.3       1 <0>        -0.3474
      4 C3          0.5922   -1.8341    1.4399 C.2       1 <0>         0.4656
      5 O2         -0.0114   -2.5902    0.7162 O.2       1 <0>        -0.4790
      6 C4          1.5170   -2.3803    2.4971 C.3       1 <0>         0.0949
      7 H1          2.5089   -1.9460    2.3717 H         1 <0>         0.1134
      8 C5          0.9753   -2.0229    3.8826 C.3       1 <0>        -0.1764
      9 O3          1.5996   -3.8012    2.3698 O.3       1 <0>        -0.2816
     10 C6          2.7214   -4.3993    2.8493 C.ar      1 <0>         0.1236
     11 C7          3.6704   -3.6586    3.5282 C.ar      1 <0>        -0.1783
     12 C8          4.8197   -4.2612    4.0211 C.ar      1 <0>        -0.0954
     13 C9          5.0403   -5.6094    3.8451 C.ar      1 <0>        -0.0796
     14 C10         4.0979   -6.3798    3.1639 C.ar      1 <0>        -0.1130
     15 C11         2.9233   -5.7724    2.6650 C.ar      1 <0>        -0.0147
     16 C12         1.9524   -6.6101    1.9597 C.2       1 <0>        -0.1784
     17 C13         2.1974   -7.9221    1.8113 C.2       1 <0>         0.1076
     18 N1          3.3285   -8.5148    2.2971 N.am      1 <0>        -0.5042
     19 C14         4.2820   -7.8194    2.9481 C.2       1 <0>         0.5553
     20 O4          5.2779   -8.3824    3.3659 O.2       1 <0>        -0.5214
     21 C15         3.5177   -9.9529    2.0915 C.3       1 <0>         0.0778
     22 C16         4.2476  -10.1830    0.7933 C.2       1 <0>         0.4986
     23 O5          4.5773   -9.2387    0.1073 O.2       1 <0>        -0.5219
     24 N2          4.5340  -11.4382    0.3946 N.am      1 <0>        -0.7230
     25 C17         5.2436  -11.6619   -0.8674 C.3       1 <0>         0.1626
     26 C18         5.4382  -13.1412   -1.0789 C.ar      1 <0>        -0.1126
     27 C19         6.5714  -13.7658   -0.5923 C.ar      1 <0>        -0.0998
     28 C20         6.7500  -15.1228   -0.7862 C.ar      1 <0>        -0.1209
     29 C21         5.7952  -15.8553   -1.4664 C.ar      1 <0>        -0.1102
     30 C22         4.6616  -15.2309   -1.9522 C.ar      1 <0>        -0.1216
     31 C23         4.4810  -13.8747   -1.7545 C.ar      1 <0>        -0.1004
     32 H2          0.5014    1.8609    0.0825 H         1 <0>         0.0681
     33 H3         -1.1781    1.8105   -0.5049 H         1 <0>         0.0826
     34 H4         -0.8470    1.8256    1.2439 H         1 <0>         0.0682
     35 H5         -1.4520   -0.4519    0.4724 H         1 <0>         0.0709
     36 H6         -0.1036   -0.4167   -0.6890 H         1 <0>         0.0706
     37 H7          1.6442   -2.4179    4.6472 H         1 <0>         0.0829
     38 H8          0.9124   -0.9391    3.9797 H         1 <0>         0.0899
     39 H9         -0.0166   -2.4572    4.0080 H         1 <0>         0.0770
     40 H10         3.5165   -2.6000    3.6764 H         1 <0>         0.1376
     41 H11         5.5500   -3.6656    4.5487 H         1 <0>         0.1367
     42 H12         5.9384   -6.0676    4.2323 H         1 <0>         0.1407
     43 H13         1.0465   -6.1769    1.5622 H         1 <0>         0.1545
     44 H14         1.4739   -8.5309    1.2895 H         1 <0>         0.1578
     45 H15         4.1022  -10.3638    2.9147 H         1 <0>         0.1286
     46 H16         2.5461  -10.4456    2.0544 H         1 <0>         0.1233
     47 H17         4.2704  -12.1934    0.9432 H         1 <0>         0.4037
     48 H18         4.6591  -11.2510   -1.6907 H         1 <0>         0.0782
     49 H19         6.2152  -11.1692   -0.8303 H         1 <0>         0.0778
     50 H20         7.3174  -13.1935   -0.0609 H         1 <0>         0.1246
     51 H21         7.6356  -15.6106   -0.4067 H         1 <0>         0.1254
     52 H22         5.9350  -16.9153   -1.6185 H         1 <0>         0.1244
     53 H23         3.9157  -15.8032   -2.4839 H         1 <0>         0.1252
     54 H24         3.5935  -13.3876   -2.1308 H         1 <0>         0.1241
@<TRIPOS>BOND
     1    1    2 1
     2    1   32 1
     3    1   33 1
     4    1   34 1
     5    2    3 1
     6    2   35 1
     7    2   36 1
     8    3    4 1
     9    4    5 2
    10    4    6 1
    11    6    7 1
    12    6    8 1
    13    6    9 1
    14    8   37 1
    15    8   38 1
    16    8   39 1
    17    9   10 1
    18   10   15 ar
    19   10   11 ar
    20   11   12 ar
    21   11   40 1
    22   12   13 ar
    23   12   41 1
    24   13   14 ar
    25   13   42 1
    26   14   19 1
    27   14   15 ar
    28   15   16 1
    29   16   17 2
    30   16   43 1
    31   17   18 1
    32   17   44 1
    33   18   19 am
    34   18   21 1
    35   19   20 2
    36   21   22 1
    37   21   45 1
    38   21   46 1
    39   22   23 2
    40   22   24 am
    41   24   25 1
    42   24   47 1
    43   25   26 1
    44   25   48 1
    45   25   49 1
    46   26   31 ar
    47   26   27 ar
    48   27   28 ar
    49   27   50 1
    50   28   29 ar
    51   28   51 1
    52   29   30 ar
    53   29   52 1
    54   30   31 ar
    55   30   53 1
    56   31   54 1
@<TRIPOS>MOLECULE
ZINC02712350
   54    56     0     0     0
SMALL
USER_CHARGES

@<TRIPOS>ATOM
      1 C1         -0.6584    1.2727   -0.0715 C.3       1 <0>        -0.1528
      2 C2         -0.3847   -0.2325   -0.0879 C.3       1 <0>         0.0606
      3 O1          0.2718   -0.6105    1.1237 O.3       1 <0>        -0.3473
      4 C3          0.5844   -1.9079    1.2683 C.2       1 <0>         0.4658
      5 O2          0.3097   -2.6965    0.3950 O.2       1 <0>        -0.4794
      6 C4          1.2780   -2.3809    2.5198 C.3       1 <0>         0.0951
      7 H1          0.6960   -2.0837    3.3922 H         1 <0>         0.1135
      8 C5          2.6715   -1.7540    2.5986 C.3       1 <0>        -0.1770
      9 O3          1.3973   -3.8046    2.4892 O.3       1 <0>        -0.2815
     10 C6          1.5001   -4.4409    3.6853 C.ar      1 <0>         0.1236
     11 C7          1.6010   -3.7128    4.8558 C.ar      1 <0>        -0.1782
     12 C8          1.7069   -4.3544    6.0822 C.ar      1 <0>        -0.0954
     13 C9          1.7137   -5.7296    6.1606 C.ar      1 <0>        -0.0795
     14 C10         1.6127   -6.4878    4.9942 C.ar      1 <0>        -0.1130
     15 C11         1.4989   -5.8396    3.7434 C.ar      1 <0>        -0.0148
     16 C12         1.3892   -6.6647    2.5396 C.2       1 <0>        -0.1784
     17 C13         1.3936   -8.0027    2.6538 C.2       1 <0>         0.1076
     18 N1          1.4974   -8.6337    3.8612 N.am      1 <0>        -0.5042
     19 C14         1.6148   -7.9549    5.0197 C.2       1 <0>         0.5554
     20 O4          1.7064   -8.5524    6.0770 O.2       1 <0>        -0.5214
     21 C15         1.4943  -10.0982    3.8966 C.3       1 <0>         0.0777
     22 C16         2.9085  -10.6064    3.7840 C.2       1 <0>         0.4988
     23 O5          3.8285   -9.8224    3.6840 O.2       1 <0>        -0.5220
     24 N2          3.1510  -11.9321    3.7944 N.am      1 <0>        -0.7231
     25 C17         4.5259  -12.4262    3.6849 C.3       1 <0>         0.1627
     26 C18         4.5227  -13.9327    3.7214 C.ar      1 <0>        -0.1127
     27 C19         4.6207  -14.5951    4.9308 C.ar      1 <0>        -0.0998
     28 C20         4.6178  -15.9770    4.9642 C.ar      1 <0>        -0.1209
     29 C21         4.5164  -16.6966    3.7883 C.ar      1 <0>        -0.1102
     30 C22         4.4174  -16.0343    2.5790 C.ar      1 <0>        -0.1216
     31 C23         4.4160  -14.6523    2.5459 C.ar      1 <0>        -0.1004
     32 H2          0.2846    1.8125    0.0144 H         1 <0>         0.0683
     33 H3         -1.1592    1.5610   -0.9957 H         1 <0>         0.0826
     34 H4         -1.2956    1.5169    0.7784 H         1 <0>         0.0681
     35 H5         -1.3278   -0.7724   -0.1739 H         1 <0>         0.0706
     36 H6          0.2525   -0.4767   -0.9379 H         1 <0>         0.0709
     37 H7          2.5805   -0.6680    2.6220 H         1 <0>         0.0899
     38 H8          3.1731   -2.0961    3.5038 H         1 <0>         0.0830
     39 H9          3.2535   -2.0511    1.7262 H         1 <0>         0.0772
     40 H10         1.5979   -2.6335    4.8157 H         1 <0>         0.1376
     41 H11         1.7852   -3.7682    6.9858 H         1 <0>         0.1367
     42 H12         1.7972   -6.2181    7.1201 H         1 <0>         0.1407
     43 H13         1.3052   -6.2014    1.5677 H         1 <0>         0.1545
     44 H14         1.3118   -8.6017    1.7589 H         1 <0>         0.1578
     45 H15         1.0599  -10.4380    4.8368 H         1 <0>         0.1286
     46 H16         0.9034  -10.4805    3.0643 H         1 <0>         0.1232
     47 H17         2.4153  -12.5592    3.8744 H         1 <0>         0.4037
     48 H18         4.9603  -12.0864    2.7448 H         1 <0>         0.0782
     49 H19         5.1167  -12.0439    4.5173 H         1 <0>         0.0779
     50 H20         4.7000  -14.0329    5.8495 H         1 <0>         0.1246
     51 H21         4.6952  -16.4945    5.9090 H         1 <0>         0.1254
     52 H22         4.5148  -17.7763    3.8144 H         1 <0>         0.1244
     53 H23         4.3384  -16.5965    1.6603 H         1 <0>         0.1252
     54 H24         4.3349  -14.1349    1.6015 H         1 <0>         0.1241
@<TRIPOS>BOND
     1    1    2 1
     2    1   32 1
     3    1   33 1
     4    1   34 1
     5    2    3 1
     6    2   35 1
     7    2   36 1
     8    3    4 1
     9    4    5 2
    10    4    6 1
    11    6    7 1
    12    6    8 1
    13    6    9 1
    14    8   37 1
    15    8   38 1
    16    8   39 1
    17    9   10 1
    18   10   15 ar
    19   10   11 ar
    20   11   12 ar
    21   11   40 1
    22   12   13 ar
    23   12   41 1
    24   13   14 ar
    25   13   42 1
    26   14   19 1
    27   14   15 ar
    28   15   16 1
    29   16   17 2
    30   16   43 1
    31   17   18 1
    32   17   44 1
    33   18   19 am
    34   18   21 1
    35   19   20 2
    36   21   22 1
    37   21   45 1
    38   21   46 1
    39   22   23 2
    40   22   24 am
    41   24   25 1
    42   24   47 1
    43   25   26 1
    44   25   48 1
    45   25   49 1
    46   26   31 ar
    47   26   27 ar
    48   27   28 ar
    49   27   50 1
    50   28   29 ar
    51   28   51 1
    52   29   30 ar
    53   29   52 1
    54   30   31 ar
    55   30   53 1
    56   31   54 1
@<TRIPOS>MOLECULE
ZINC02712351
   54    56     0     0     0
SMALL
USER_CHARGES

@<TRIPOS>ATOM
      1 C1         -0.0077    1.4802   -0.5375 C.3       1 <0>        -0.1527
      2 C2         -0.0102   -0.0497   -0.5323 C.3       1 <0>         0.0606
      3 O1         -1.3347   -0.5231   -0.2798 O.3       1 <0>        -0.3474
      4 C3         -1.5096   -1.8534   -0.2425 C.2       1 <0>         0.4657
      5 O2         -0.5694   -2.5915   -0.4184 O.2       1 <0>        -0.4791
      6 C4         -2.8788   -2.4263    0.0188 C.3       1 <0>         0.0949
      7 H1         -3.2726   -2.0166    0.9489 H         1 <0>         0.1134
      8 C5         -3.8136   -2.0603   -1.1358 C.3       1 <0>        -0.1765
      9 O3         -2.7877   -3.8484    0.1254 O.3       1 <0>        -0.2816
     10 C6         -3.7543   -4.4761    0.8451 C.ar      1 <0>         0.1237
     11 C7         -4.8280   -3.7618    1.3422 C.ar      1 <0>        -0.1782
     12 C8         -5.8198   -4.3948    2.0788 C.ar      1 <0>        -0.0952
     13 C9         -5.7566   -5.7475    2.3308 C.ar      1 <0>        -0.0796
     14 C10        -4.6837   -6.4916    1.8400 C.ar      1 <0>        -0.1131
     15 C11        -3.6741   -5.8532    1.0845 C.ar      1 <0>        -0.0150
     16 C12        -2.5651   -6.6638    0.5798 C.2       1 <0>        -0.1779
     17 C13        -2.5386   -7.9810    0.8399 C.2       1 <0>         0.1071
     18 N1         -3.5152   -8.6036    1.5645 N.am      1 <0>        -0.5043
     19 C14        -4.5664   -7.9346    2.0785 C.2       1 <0>         0.5555
     20 O4         -5.4171   -8.5239    2.7206 O.2       1 <0>        -0.5214
     21 C15        -3.4094  -10.0452    1.8024 C.3       1 <0>         0.0777
     22 C16        -2.6463  -10.2891    3.0788 C.2       1 <0>         0.4992
     23 O5         -2.2316   -9.3510    3.7260 O.2       1 <0>        -0.5207
     24 N2         -2.4245  -11.5496    3.5010 N.am      1 <0>        -0.7244
     25 C17        -1.6827  -11.7867    4.7418 C.3       1 <0>         0.1637
     26 C18        -1.5738  -13.2697    4.9865 C.ar      1 <0>        -0.1238
     27 C19        -2.5521  -13.9237    5.7119 C.ar      1 <0>        -0.0692
     28 C20        -2.4536  -15.2837    5.9366 C.ar      1 <0>        -0.1548
     29 C21        -1.3744  -15.9913    5.4348 C.ar      1 <0>         0.1092
     30 C22        -0.3952  -15.3353    4.7084 C.ar      1 <0>        -0.1554
     31 C23        -0.4985  -13.9761    4.4805 C.ar      1 <0>        -0.0697
     32 F1         -1.2768  -17.3208    5.6541 F         1 <0>        -0.1363
     33 H2          1.0026    1.8413   -0.7301 H         1 <0>         0.0826
     34 H3         -0.6776    1.8420   -1.3175 H         1 <0>         0.0682
     35 H4         -0.3462    1.8474    0.4314 H         1 <0>         0.0681
     36 H5          0.3284   -0.4169   -1.5011 H         1 <0>         0.0709
     37 H6          0.6598   -0.4115    0.2477 H         1 <0>         0.0706
     38 H7         -3.4198   -2.4699   -2.0660 H         1 <0>         0.0770
     39 H8         -4.8039   -2.4746   -0.9469 H         1 <0>         0.0829
     40 H9         -3.8831   -0.9755   -1.2172 H         1 <0>         0.0899
     41 H10        -4.8959   -2.7002    1.1559 H         1 <0>         0.1376
     42 H11        -6.6509   -3.8196    2.4592 H         1 <0>         0.1367
     43 H12        -6.5336   -6.2295    2.9056 H         1 <0>         0.1407
     44 H13        -1.7749   -6.2066    0.0028 H         1 <0>         0.1545
     45 H14        -1.7156   -8.5696    0.4622 H         1 <0>         0.1579
     46 H15        -4.4080  -10.4735    1.8886 H         1 <0>         0.1289
     47 H16        -2.8840  -10.5132    0.9699 H         1 <0>         0.1235
     48 H17        -2.7562  -12.2999    2.9833 H         1 <0>         0.4041
     49 H18        -0.6840  -11.3584    4.6556 H         1 <0>         0.0807
     50 H19        -2.2080  -11.3187    5.5744 H         1 <0>         0.0804
     51 H20        -3.3936  -13.3715    6.1036 H         1 <0>         0.1362
     52 H21        -3.2179  -15.7944    6.5036 H         1 <0>         0.1393
     53 H22         0.4472  -15.8861    4.3167 H         1 <0>         0.1391
     54 H23         0.2629  -13.4649    3.9102 H         1 <0>         0.1357
@<TRIPOS>BOND
     1    1    2 1
     2    1   33 1
     3    1   34 1
     4    1   35 1
     5    2    3 1
     6    2   36 1
     7    2   37 1
     8    3    4 1
     9    4    5 2
    10    4    6 1
    11    6    7 1
    12    6    8 1
    13    6    9 1
    14    8   38 1
    15    8   39 1
    16    8   40 1
    17    9   10 1
    18   10   15 ar
    19   10   11 ar
    20   11   12 ar
    21   11   41 1
    22   12   13 ar
    23   12   42 1
    24   13   14 ar
    25   13   43 1
    26   14   19 1
    27   14   15 ar
    28   15   16 1
    29   16   17 2
    30   16   44 1
    31   17   18 1
    32   17   45 1
    33   18   19 am
    34   18   21 1
    35   19   20 2
    36   21   22 1
    37   21   46 1
    38   21   47 1
    39   22   23 2
    40   22   24 am
    41   24   25 1
    42   24   48 1
    43   25   26 1
    44   25   49 1
    45   25   50 1
    46   26   31 ar
    47   26   27 ar
    48   27   28 ar
    49   27   51 1
    50   28   29 ar
    51   28   52 1
    52   29   30 ar
    53   29   32 1
    54   30   31 ar
    55   30   53 1
    56   31   54 1
@<TRIPOS>MOLECULE
ZINC02712352
   54    56     0     0     0
SMALL
USER_CHARGES

@<TRIPOS>ATOM
      1 C1          0.3759    1.2891   -0.5076 C.3       1 <0>        -0.1528
      2 C2          0.2768   -0.2225   -0.2925 C.3       1 <0>         0.0606
      3 O1         -1.0947   -0.6210   -0.3374 O.3       1 <0>        -0.3472
      4 C3         -1.3559   -1.9263   -0.1649 C.2       1 <0>         0.4658
      5 O2         -0.4501   -2.7047    0.0181 O.2       1 <0>        -0.4794
      6 C4         -2.7790   -2.4210   -0.1995 C.3       1 <0>         0.0951
      7 H1         -3.2483   -2.1124   -1.1336 H         1 <0>         0.1135
      8 C5         -3.5534   -1.8295    0.9800 C.3       1 <0>        -0.1770
      9 O3         -2.7899   -3.8471   -0.1094 O.3       1 <0>        -0.2815
     10 C6         -3.8673   -4.4899   -0.6312 C.ar      1 <0>         0.1237
     11 C7         -4.9428   -3.7687   -1.1144 C.ar      1 <0>        -0.1781
     12 C8         -6.0478   -4.4170   -1.6487 C.ar      1 <0>        -0.0952
     13 C9         -6.0977   -5.7922   -1.7095 C.ar      1 <0>        -0.0796
     14 C10        -5.0252   -6.5436   -1.2290 C.ar      1 <0>        -0.1131
     15 C11        -3.8952   -5.8884   -0.6892 C.ar      1 <0>        -0.0150
     16 C12        -2.7850   -6.7062   -0.1988 C.2       1 <0>        -0.1778
     17 C13        -2.8653   -8.0443   -0.2788 C.2       1 <0>         0.1070
     18 N1         -3.9530   -8.6819   -0.8053 N.am      1 <0>        -0.5044
     19 C14        -5.0255   -8.0103   -1.2692 C.2       1 <0>         0.5555
     20 O4         -5.9777   -8.6136   -1.7304 O.2       1 <0>        -0.5215
     21 C15        -3.9593  -10.1461   -0.8549 C.3       1 <0>         0.0776
     22 C16        -4.5606  -10.6892    0.4157 C.2       1 <0>         0.4995
     23 O5         -4.9459   -9.9282    1.2779 O.2       1 <0>        -0.5208
     24 N2         -4.6701  -12.0206    0.5940 N.am      1 <0>        -0.7245
     25 C17        -5.2547  -12.5486    1.8292 C.3       1 <0>         0.1639
     26 C18        -5.2612  -14.0547    1.7781 C.ar      1 <0>        -0.1239
     27 C19        -6.3476  -14.7231    1.2449 C.ar      1 <0>        -0.0692
     28 C20        -6.3544  -16.1042    1.1971 C.ar      1 <0>        -0.1548
     29 C21        -5.2727  -16.8186    1.6834 C.ar      1 <0>         0.1093
     30 C22        -4.1852  -16.1482    2.2172 C.ar      1 <0>        -0.1554
     31 C23        -4.1783  -14.7668    2.2592 C.ar      1 <0>        -0.0697
     32 F1         -5.2785  -18.1688    1.6376 F         1 <0>        -0.1363
     33 H2          1.4221    1.5931   -0.4733 H         1 <0>         0.0826
     34 H3         -0.0456    1.5462   -1.4793 H         1 <0>         0.0681
     35 H4         -0.1781    1.8048    0.2768 H         1 <0>         0.0683
     36 H5          0.8309   -0.7381   -1.0768 H         1 <0>         0.0706
     37 H6          0.6983   -0.4796    0.6793 H         1 <0>         0.0710
     38 H7         -3.0841   -2.1381    1.9142 H         1 <0>         0.0772
     39 H8         -3.5451   -0.7417    0.9113 H         1 <0>         0.0900
     40 H9         -4.5827   -2.1872    0.9550 H         1 <0>         0.0830
     41 H10        -4.9233   -2.6896   -1.0755 H         1 <0>         0.1376
     42 H11        -6.8787   -3.8361   -2.0210 H         1 <0>         0.1368
     43 H12        -6.9628   -6.2861   -2.1267 H         1 <0>         0.1407
     44 H13        -1.9085   -6.2376    0.2236 H         1 <0>         0.1545
     45 H14        -2.0401   -8.6380    0.0858 H         1 <0>         0.1579
     46 H15        -4.5512  -10.4781   -1.7079 H         1 <0>         0.1288
     47 H16        -2.9372  -10.5105   -0.9580 H         1 <0>         0.1235
     48 H17        -4.3620  -12.6293   -0.0956 H         1 <0>         0.4041
     49 H18        -4.6628  -12.2166    2.6821 H         1 <0>         0.0807
     50 H19        -6.2767  -12.1842    1.9322 H         1 <0>         0.0804
     51 H20        -7.1914  -14.1656    0.8659 H         1 <0>         0.1362
     52 H21        -7.2034  -16.6261    0.7808 H         1 <0>         0.1393
     53 H22        -3.3410  -16.7044    2.5972 H         1 <0>         0.1391
     54 H23        -3.3282  -14.2436    2.6714 H         1 <0>         0.1357
@<TRIPOS>BOND
     1    1    2 1
     2    1   33 1
     3    1   34 1
     4    1   35 1
     5    2    3 1
     6    2   36 1
     7    2   37 1
     8    3    4 1
     9    4    5 2
    10    4    6 1
    11    6    7 1
    12    6    8 1
    13    6    9 1
    14    8   38 1
    15    8   39 1
    16    8   40 1
    17    9   10 1
    18   10   15 ar
    19   10   11 ar
    20   11   12 ar
    21   11   41 1
    22   12   13 ar
    23   12   42 1
    24   13   14 ar
    25   13   43 1
    26   14   19 1
    27   14   15 ar
    28   15   16 1
    29   16   17 2
    30   16   44 1
    31   17   18 1
    32   17   45 1
    33   18   19 am
    34   18   21 1
    35   19   20 2
    36   21   22 1
    37   21   46 1
    38   21   47 1
    39   22   23 2
    40   22   24 am
    41   24   25 1
    42   24   48 1
    43   25   26 1
    44   25   49 1
    45   25   50 1
    46   26   31 ar
    47   26   27 ar
    48   27   28 ar
    49   27   51 1
    50   28   29 ar
    51   28   52 1
    52   29   30 ar
    53   29   32 1
    54   30   31 ar
    55   30   53 1
    56   31   54 1
@<TRIPOS>MOLECULE
ZINC02712346
   57    59     0     0     0
SMALL
USER_CHARGES

@<TRIPOS>ATOM
      1 C1          0.4511    1.4819    0.2930 C.3       1 <0>        -0.1527
      2 C2          0.4716   -0.0476    0.2576 C.3       1 <0>         0.0605
      3 O1          0.9222   -0.4884   -1.0249 O.3       1 <0>        -0.3473
      4 C3          0.9981   -1.8140   -1.2216 C.2       1 <0>         0.4656
      5 O2          0.6920   -2.5749   -0.3343 O.2       1 <0>        -0.4791
      6 C4          1.4649   -2.3532   -2.5491 C.3       1 <0>         0.0949
      7 H1          0.8498   -1.9371   -3.3469 H         1 <0>         0.1134
      8 C5          2.9263   -1.9598   -2.7739 C.3       1 <0>        -0.1764
      9 O3          1.3492   -3.7775   -2.5520 O.3       1 <0>        -0.2816
     10 C6          1.2188   -4.3834   -3.7612 C.ar      1 <0>         0.1235
     11 C7          1.3137   -3.6441   -4.9251 C.ar      1 <0>        -0.1783
     12 C8          1.1812   -4.2545   -6.1647 C.ar      1 <0>        -0.0955
     13 C9          0.9525   -5.6093   -6.2631 C.ar      1 <0>        -0.0796
     14 C10         0.8530   -6.3783   -5.1037 C.ar      1 <0>        -0.1130
     15 C11         0.9928   -5.7628   -3.8391 C.ar      1 <0>        -0.0147
     16 C12         0.8883   -6.5992   -2.6427 C.2       1 <0>        -0.1787
     17 C13         0.6703   -7.9176   -2.7761 C.2       1 <0>         0.1080
     18 N1          0.5405   -8.5180   -3.9965 N.am      1 <0>        -0.5038
     19 C14         0.6103   -7.8246   -5.1501 C.2       1 <0>         0.5553
     20 O4          0.4885   -8.3946   -6.2196 O.2       1 <0>        -0.5217
     21 C15         0.3041   -9.9627   -4.0526 C.3       1 <0>         0.0766
     22 C16        -1.1789  -10.2301   -4.0348 C.2       1 <0>         0.4995
     23 O5         -1.9613   -9.3049   -3.9807 O.2       1 <0>        -0.5216
     24 N2         -1.6357  -11.4973   -4.0792 N.am      1 <0>        -0.7245
     25 C17        -3.0774  -11.7572   -4.0619 C.3       1 <0>         0.1456
     26 C18        -3.5735  -11.7844   -2.6148 C.3       1 <0>        -0.1281
     27 C19        -5.0791  -12.0559   -2.5968 C.3       1 <0>        -0.1181
     28 C20        -5.3618  -13.4062   -3.2583 C.3       1 <0>        -0.1224
     29 C21        -4.8657  -13.3790   -4.7054 C.3       1 <0>        -0.1169
     30 C22        -3.3601  -13.1075   -4.7234 C.3       1 <0>        -0.1263
     31 H2          1.4557    1.8631    0.1101 H         1 <0>         0.0682
     32 H3         -0.2245    1.8541   -0.4772 H         1 <0>         0.0681
     33 H4          0.1074    1.8181    1.2712 H         1 <0>         0.0826
     34 H5          1.1472   -0.4197    1.0278 H         1 <0>         0.0709
     35 H6         -0.5330   -0.4288    0.4405 H         1 <0>         0.0706
     36 H7          3.2640   -2.3499   -3.7341 H         1 <0>         0.0829
     37 H8          3.0146   -0.8734   -2.7717 H         1 <0>         0.0899
     38 H9          3.5415   -2.3760   -1.9761 H         1 <0>         0.0770
     39 H10         1.4924   -2.5804   -4.8695 H         1 <0>         0.1376
     40 H11         1.2581   -3.6600   -7.0630 H         1 <0>         0.1367
     41 H12         0.8504   -6.0736   -7.2328 H         1 <0>         0.1406
     42 H13         0.9860   -6.1600   -1.6609 H         1 <0>         0.1543
     43 H14         0.5953   -8.5253   -1.8865 H         1 <0>         0.1574
     44 H15         0.7351  -10.3661   -4.9689 H         1 <0>         0.1279
     45 H16         0.7698  -10.4408   -3.1908 H         1 <0>         0.1224
     46 H17        -1.0100  -12.2372   -4.1225 H         1 <0>         0.4013
     47 H18        -3.5952  -10.9692   -4.6088 H         1 <0>         0.0881
     48 H19        -3.0556  -12.5724   -2.0680 H         1 <0>         0.0641
     49 H20        -3.3720  -10.8224   -2.1435 H         1 <0>         0.0663
     50 H21        -5.4325  -12.0752   -1.5659 H         1 <0>         0.0658
     51 H22        -5.5969  -11.2679   -3.1437 H         1 <0>         0.0644
     52 H23        -4.8439  -14.1942   -2.7115 H         1 <0>         0.0630
     53 H24        -6.4344  -13.5996   -3.2455 H         1 <0>         0.0648
     54 H25        -5.0671  -14.3410   -5.1767 H         1 <0>         0.0685
     55 H26        -5.3836  -12.5910   -5.2523 H         1 <0>         0.0654
     56 H27        -3.0067  -13.0881   -5.7544 H         1 <0>         0.0696
     57 H28        -2.8423  -13.8955   -4.1766 H         1 <0>         0.0689
@<TRIPOS>BOND
     1    1    2 1
     2    1   31 1
     3    1   32 1
     4    1   33 1
     5    2    3 1
     6    2   34 1
     7    2   35 1
     8    3    4 1
     9    4    5 2
    10    4    6 1
    11    6    7 1
    12    6    8 1
    13    6    9 1
    14    8   36 1
    15    8   37 1
    16    8   38 1
    17    9   10 1
    18   10   15 ar
    19   10   11 ar
    20   11   12 ar
    21   11   39 1
    22   12   13 ar
    23   12   40 1
    24   13   14 ar
    25   13   41 1
    26   14   19 1
    27   14   15 ar
    28   15   16 1
    29   16   17 2
    30   16   42 1
    31   17   18 1
    32   17   43 1
    33   18   19 am
    34   18   21 1
    35   19   20 2
    36   21   22 1
    37   21   44 1
    38   21   45 1
    39   22   23 2
    40   22   24 am
    41   24   25 1
    42   24   46 1
    43   25   30 1
    44   25   26 1
    45   25   47 1
    46   26   27 1
    47   26   48 1
    48   26   49 1
    49   27   28 1
    50   27   50 1
    51   27   51 1
    52   28   29 1
    53   28   52 1
    54   28   53 1
    55   29   30 1
    56   29   54 1
    57   29   55 1
    58   30   56 1
    59   30   57 1
@<TRIPOS>MOLECULE
ZINC02712347
   57    59     0     0     0
SMALL
USER_CHARGES

@<TRIPOS>ATOM
      1 C1          0.2364    1.2811    0.6063 C.3       1 <0>        -0.1528
      2 C2          0.1232   -0.2282    0.3828 C.3       1 <0>         0.0606
      3 O1          0.8537   -0.5921   -0.7903 O.3       1 <0>        -0.3473
      4 C3          0.8552   -1.8910   -1.1288 C.2       1 <0>         0.4658
      5 O2          0.2562   -2.6925   -0.4515 O.2       1 <0>        -0.4794
      6 C4          1.6040   -2.3497   -2.3535 C.3       1 <0>         0.0951
      7 H1          2.6428   -2.0261   -2.2866 H         1 <0>         0.1135
      8 C5          0.9602   -1.7431   -3.6018 C.3       1 <0>        -0.1770
      9 O3          1.5537   -3.7754   -2.4365 O.3       1 <0>        -0.2815
     10 C6          2.5539   -4.3891   -3.1213 C.ar      1 <0>         0.1235
     11 C7          3.4986   -3.6394   -3.7964 C.ar      1 <0>        -0.1783
     12 C8          4.5236   -4.2580   -4.4990 C.ar      1 <0>        -0.0955
     13 C9          4.6227   -5.6313   -4.5393 C.ar      1 <0>        -0.0796
     14 C10         3.6823   -6.4110   -3.8660 C.ar      1 <0>        -0.1131
     15 C11         2.6400   -5.7863   -3.1444 C.ar      1 <0>        -0.0147
     16 C12         1.6732   -6.6334   -2.4447 C.2       1 <0>        -0.1788
     17 C13         1.8035   -7.9688   -2.5010 C.2       1 <0>         0.1080
     18 N1          2.8128   -8.5770   -3.1922 N.am      1 <0>        -0.5038
     19 C14         3.7401   -7.8771   -3.8755 C.2       1 <0>         0.5553
     20 O4          4.6248   -8.4547   -4.4814 O.2       1 <0>        -0.5217
     21 C15         2.8818  -10.0404   -3.2021 C.3       1 <0>         0.0765
     22 C16         2.0903  -10.5727   -4.3689 C.2       1 <0>         0.4997
     23 O5          1.5243   -9.8053   -5.1183 O.2       1 <0>        -0.5216
     24 N2          2.0114  -11.9015   -4.5795 N.am      1 <0>        -0.7245
     25 C17         1.2420  -12.4190   -5.7137 C.3       1 <0>         0.1456
     26 C18        -0.2305  -12.5427   -5.3171 C.3       1 <0>        -0.1281
     27 C19        -1.0341  -13.0831   -6.5016 C.3       1 <0>        -0.1180
     28 C20        -0.4954  -14.4592   -6.8979 C.3       1 <0>        -0.1224
     29 C21         0.9771  -14.3356   -7.2945 C.3       1 <0>        -0.1169
     30 C22         1.7807  -13.7951   -6.1100 C.3       1 <0>        -0.1263
     31 H2          1.2846    1.5521    0.7324 H         1 <0>         0.0681
     32 H3         -0.1740    1.8078   -0.2552 H         1 <0>         0.0683
     33 H4         -0.3208    1.5587    1.5011 H         1 <0>         0.0826
     34 H5          0.5336   -0.7549    1.2443 H         1 <0>         0.0706
     35 H6         -0.9250   -0.4993    0.2567 H         1 <0>         0.0709
     36 H7          0.9987   -0.6556   -3.5385 H         1 <0>         0.0899
     37 H8          1.5019   -2.0748   -4.4877 H         1 <0>         0.0830
     38 H9         -0.0785   -2.0666   -3.6687 H         1 <0>         0.0771
     39 H10         3.4384   -2.5613   -3.7775 H         1 <0>         0.1376
     40 H11         5.2522   -3.6551   -5.0207 H         1 <0>         0.1367
     41 H12         5.4240   -6.1018   -5.0897 H         1 <0>         0.1406
     42 H13         0.8620   -6.1884   -1.8876 H         1 <0>         0.1543
     43 H14         1.0845   -8.5842   -1.9806 H         1 <0>         0.1574
     44 H15         3.9214  -10.3545   -3.2948 H         1 <0>         0.1278
     45 H16         2.4660  -10.4300   -2.2730 H         1 <0>         0.1223
     46 H17         2.4641  -12.5153   -3.9801 H         1 <0>         0.4013
     47 H18         1.3348  -11.7356   -6.5577 H         1 <0>         0.0882
     48 H19        -0.3233  -13.2261   -4.4730 H         1 <0>         0.0641
     49 H20        -0.6143  -11.5623   -5.0347 H         1 <0>         0.0663
     50 H21        -2.0831  -13.1712   -6.2190 H         1 <0>         0.0658
     51 H22        -0.9413  -12.3997   -7.3456 H         1 <0>         0.0645
     52 H23        -0.5882  -15.1426   -6.0539 H         1 <0>         0.0630
     53 H24        -1.0679  -14.8442   -7.7418 H         1 <0>         0.0648
     54 H25         1.3609  -15.3159   -7.5769 H         1 <0>         0.0685
     55 H26         1.0699  -13.6522   -8.1386 H         1 <0>         0.0655
     56 H27         2.8297  -13.7070   -6.3925 H         1 <0>         0.0696
     57 H28         1.6879  -14.4785   -5.2659 H         1 <0>         0.0689
@<TRIPOS>BOND
     1    1    2 1
     2    1   31 1
     3    1   32 1
     4    1   33 1
     5    2    3 1
     6    2   34 1
     7    2   35 1
     8    3    4 1
     9    4    5 2
    10    4    6 1
    11    6    7 1
    12    6    8 1
    13    6    9 1
    14    8   36 1
    15    8   37 1
    16    8   38 1
    17    9   10 1
    18   10   15 ar
    19   10   11 ar
    20   11   12 ar
    21   11   39 1
    22   12   13 ar
    23   12   40 1
    24   13   14 ar
    25   13   41 1
    26   14   19 1
    27   14   15 ar
    28   15   16 1
    29   16   17 2
    30   16   42 1
    31   17   18 1
    32   17   43 1
    33   18   19 am
    34   18   21 1
    35   19   20 2
    36   21   22 1
    37   21   44 1
    38   21   45 1
    39   22   23 2
    40   22   24 am
    41   24   25 1
    42   24   46 1
    43   25   30 1
    44   25   26 1
    45   25   47 1
    46   26   27 1
    47   26   48 1
    48   26   49 1
    49   27   28 1
    50   27   50 1
    51   27   51 1
    52   28   29 1
    53   28   52 1
    54   28   53 1
    55   29   30 1
    56   29   54 1
    57   29   55 1
    58   30   56 1
    59   30   57 1
@<TRIPOS>MOLECULE
ZINC02712318
   55    57     0     0     0
SMALL
USER_CHARGES
ethyl (2R)-2-[[2-[2-[(4-methoxyphenyl)amino]-2-oxo-ethyl]-1-oxo-5-isoquinolyl]oxy]propanoate
@<TRIPOS>ATOM
      1 C1         12.0793   11.4771    4.6276 C.3       1 <0>        -0.1538
      2 C2         10.7611   10.7022    4.5764 C.3       1 <0>         0.0629
      3 O1         10.6994    9.9328    3.3465 O.3       1 <0>        -0.3529
      4 C3          9.5985    9.1914    3.1461 C.2       1 <0>         0.4666
      5 O2          8.7156    9.1856    3.9709 O.2       1 <0>        -0.4809
      6 C4          9.4637    8.3663    1.8922 C.3       1 <0>         0.0946
      7 H1          9.5918    9.0073    1.0200 H         1 <0>         0.1132
      8 C5         10.5342    7.2732    1.8835 C.3       1 <0>        -0.1770
      9 O3          8.1681    7.7646    1.8550 O.3       1 <0>        -0.2814
     10 C6          7.6738    7.4396    0.6318 C.ar      1 <0>         0.1242
     11 C7          8.4578    7.5831   -0.4974 C.ar      1 <0>        -0.1780
     12 C8          7.9610    7.2535   -1.7510 C.ar      1 <0>        -0.0947
     13 C9          6.6768    6.7774   -1.8982 C.ar      1 <0>        -0.0797
     14 C10         5.8648    6.6236   -0.7745 C.ar      1 <0>        -0.1125
     15 C11         6.3657    6.9573    0.5042 C.ar      1 <0>        -0.0157
     16 C12         5.4877    6.7848    1.6623 C.2       1 <0>        -0.1755
     17 C13         4.2395    6.3238    1.4813 C.2       1 <0>         0.1048
     18 N1          3.7528    5.9946    0.2479 N.am      1 <0>        -0.5049
     19 C14         4.4897    6.1214   -0.8734 C.2       1 <0>         0.5554
     20 O4          4.0197    5.8220   -1.9564 O.2       1 <0>        -0.5207
     21 C15         2.3808    5.4924    0.1397 C.3       1 <0>         0.0796
     22 C16         2.3845    3.9905    0.2639 C.2       1 <0>         0.4980
     23 O5          3.4302    3.3980    0.4267 O.2       1 <0>        -0.5028
     24 N2          1.2257    3.3057    0.1940 N.am      1 <0>        -0.6680
     25 C17         1.2152    1.9221    0.4148 C.ar      1 <0>         0.1068
     26 C18         2.1045    1.3563    1.3186 C.ar      1 <0>        -0.0786
     27 C19         2.0933   -0.0073    1.5360 C.ar      1 <0>        -0.1317
     28 C20         1.1939   -0.8118    0.8517 C.ar      1 <0>         0.1158
     29 C21         0.3054   -0.2471   -0.0517 C.ar      1 <0>        -0.1890
     30 C22         0.3159    1.1163   -0.2705 C.ar      1 <0>        -0.1018
     31 O6          1.1834   -2.1544    1.0663 O.3       1 <0>        -0.3169
     32 C23         0.2309   -2.9220    0.3277 C.3       1 <0>         0.0263
     33 H2         12.1375   12.1519    3.7735 H         1 <0>         0.0683
     34 H3         12.1256   12.0547    5.5508 H         1 <0>         0.0833
     35 H4         12.9139   10.7768    4.5949 H         1 <0>         0.0685
     36 H5          9.9264   11.4025    4.6090 H         1 <0>         0.0732
     37 H6         10.7028   10.0274    5.4304 H         1 <0>         0.0736
     38 H7         10.4061    6.6323    2.7557 H         1 <0>         0.0772
     39 H8         10.4367    6.6765    0.9766 H         1 <0>         0.0828
     40 H9         11.5224    7.7323    1.9119 H         1 <0>         0.0899
     41 H10         9.4673    7.9551   -0.4034 H         1 <0>         0.1378
     42 H11         8.5889    7.3722   -2.6216 H         1 <0>         0.1369
     43 H12         6.3008    6.5241   -2.8784 H         1 <0>         0.1408
     44 H13         5.8390    7.0307    2.6535 H         1 <0>         0.1549
     45 H14         3.5987    6.2043    2.3425 H         1 <0>         0.1586
     46 H15         1.9653    5.7760   -0.8273 H         1 <0>         0.1308
     47 H16         1.7730    5.9213    0.9363 H         1 <0>         0.1270
     48 H17         0.3991    3.7707   -0.0092 H         1 <0>         0.4124
     49 H18         2.8018    1.9830    1.8547 H         1 <0>         0.1403
     50 H19         2.7847   -0.4476    2.2393 H         1 <0>         0.1355
     51 H20        -0.3943   -0.8740   -0.5844 H         1 <0>         0.1333
     52 H21        -0.3759    1.5557   -0.9739 H         1 <0>         0.1299
     53 H22        -0.7758   -2.5793    0.5667 H         1 <0>         0.0560
     54 H23         0.4132   -2.7975   -0.7397 H         1 <0>         0.0559
     55 H24         0.3288   -3.9748    0.5926 H         1 <0>         0.1012
@<TRIPOS>BOND
     1    1    2 1
     2    1   33 1
     3    1   34 1
     4    1   35 1
     5    2    3 1
     6    2   36 1
     7    2   37 1
     8    3    4 1
     9    4    5 2
    10    4    6 1
    11    6    7 1
    12    6    8 1
    13    6    9 1
    14    8   38 1
    15    8   39 1
    16    8   40 1
    17    9   10 1
    18   10   15 ar
    19   10   11 ar
    20   11   12 ar
    21   11   41 1
    22   12   13 ar
    23   12   42 1
    24   13   14 ar
    25   13   43 1
    26   14   19 1
    27   14   15 ar
    28   15   16 1
    29   16   17 2
    30   16   44 1
    31   17   18 1
    32   17   45 1
    33   18   19 am
    34   18   21 1
    35   19   20 2
    36   21   22 1
    37   21   46 1
    38   21   47 1
    39   22   23 2
    40   22   24 am
    41   24   25 1
    42   24   48 1
    43   25   30 ar
    44   25   26 ar
    45   26   27 ar
    46   26   49 1
    47   27   28 ar
    48   27   50 1
    49   28   29 ar
    50   28   31 1
    51   29   30 ar
    52   29   51 1
    53   30   52 1
    54   31   32 1
    55   32   53 1
    56   32   54 1
    57   32   55 1
@<TRIPOS>MOLECULE
ZINC02712319
   55    57     0     0     0
SMALL
USER_CHARGES
ethyl (2S)-2-[[2-[2-[(4-methoxyphenyl)amino]-2-oxo-ethyl]-1-oxo-5-isoquinolyl]oxy]propanoate
@<TRIPOS>ATOM
      1 C1         -1.8641    8.6089   -1.6930 C.3       1 <0>        -0.1536
      2 C2         -0.5770    7.7818   -1.7061 C.3       1 <0>         0.0629
      3 O1         -0.8067    6.5184   -1.0283 O.3       1 <0>        -0.3526
      4 C3          0.2310    5.6703   -0.9520 C.2       1 <0>         0.4665
      5 O2          1.2959    5.9736   -1.4356 O.2       1 <0>        -0.4806
      6 C4          0.0677    4.3399   -0.2633 C.3       1 <0>         0.0927
      7 H1         -0.7077    3.7627   -0.7670 H         1 <0>         0.1144
      8 C5         -0.3323    4.5667    1.1960 C.3       1 <0>        -0.1745
      9 O3          1.3030    3.6231   -0.3127 O.3       1 <0>        -0.2814
     10 C6          1.2353    2.2697   -0.2129 C.ar      1 <0>         0.1256
     11 C7          0.0086    1.6349   -0.1631 C.ar      1 <0>        -0.1791
     12 C8         -0.0700    0.2528   -0.0616 C.ar      1 <0>        -0.0938
     13 C9          1.0712   -0.5167   -0.0082 C.ar      1 <0>        -0.0803
     14 C10         2.3217    0.0992   -0.0568 C.ar      1 <0>        -0.1120
     15 C11         2.4075    1.5062   -0.1601 C.ar      1 <0>        -0.0161
     16 C12         3.7349    2.1205   -0.2096 C.2       1 <0>        -0.1755
     17 C13         4.8260    1.3396   -0.1557 C.2       1 <0>         0.1050
     18 N1          4.7480   -0.0207   -0.0554 N.am      1 <0>        -0.5049
     19 C14         3.5690   -0.6717   -0.0041 C.2       1 <0>         0.5554
     20 O4          3.5393   -1.8860    0.0853 O.2       1 <0>        -0.5203
     21 C15         5.9884   -0.7984   -0.0023 C.3       1 <0>         0.0801
     22 C16         6.4094   -1.1689   -1.4011 C.2       1 <0>         0.4979
     23 O5          5.7392   -0.8178   -2.3491 O.2       1 <0>        -0.5038
     24 N2          7.5305   -1.8903   -1.5986 N.am      1 <0>        -0.6674
     25 C17         7.8751   -2.3100   -2.8902 C.ar      1 <0>         0.1036
     26 C18         8.4957   -3.5375   -3.0793 C.ar      1 <0>        -0.1004
     27 C19         8.8303   -3.9528   -4.3530 C.ar      1 <0>        -0.1904
     28 C20         8.5568   -3.1388   -5.4425 C.ar      1 <0>         0.1168
     29 C21         7.9414   -1.9099   -5.2538 C.ar      1 <0>        -0.1336
     30 C22         7.6012   -1.4959   -3.9812 C.ar      1 <0>        -0.0779
     31 O6          8.8915   -3.5458   -6.6959 O.3       1 <0>        -0.3169
     32 C23         9.5224   -4.8223   -6.8167 C.3       1 <0>         0.0262
     33 H2         -2.6540    8.0599   -2.2057 H         1 <0>         0.0683
     34 H3         -2.1636    8.7987   -0.6623 H         1 <0>         0.0685
     35 H4         -1.6917    9.5573   -2.2018 H         1 <0>         0.0833
     36 H5          0.2129    8.3307   -1.1934 H         1 <0>         0.0736
     37 H6         -0.2775    7.5919   -2.7368 H         1 <0>         0.0733
     38 H7         -1.2745    5.1134    1.2337 H         1 <0>         0.0902
     39 H8         -0.4504    3.6045    1.6942 H         1 <0>         0.0812
     40 H9          0.4431    5.1439    1.6998 H         1 <0>         0.0762
     41 H10        -0.8981    2.2199   -0.2081 H         1 <0>         0.1373
     42 H11        -1.0378   -0.2252   -0.0243 H         1 <0>         0.1368
     43 H12         0.9981   -1.5913    0.0711 H         1 <0>         0.1408
     44 H13         3.8360    3.1928   -0.2892 H         1 <0>         0.1545
     45 H14         5.8005    1.8037   -0.1927 H         1 <0>         0.1585
     46 H15         6.7712   -0.2024    0.4669 H         1 <0>         0.1261
     47 H16         5.8241   -1.7052    0.5798 H         1 <0>         0.1316
     48 H17         8.0989   -2.1190   -0.8466 H         1 <0>         0.4122
     49 H18         8.7130   -4.1692   -2.2307 H         1 <0>         0.1298
     50 H19         9.3087   -4.9097   -4.5007 H         1 <0>         0.1332
     51 H20         7.7288   -1.2766   -6.1025 H         1 <0>         0.1352
     52 H21         7.1218   -0.5393   -3.8345 H         1 <0>         0.1446
     53 H22         8.8592   -5.5938   -6.4256 H         1 <0>         0.0558
     54 H23         9.7356   -5.0244   -7.8663 H         1 <0>         0.1012
     55 H24        10.4537   -4.8224   -6.2502 H         1 <0>         0.0560
@<TRIPOS>BOND
     1    1    2 1
     2    1   33 1
     3    1   34 1
     4    1   35 1
     5    2    3 1
     6    2   36 1
     7    2   37 1
     8    3    4 1
     9    4    5 2
    10    4    6 1
    11    6    7 1
    12    6    8 1
    13    6    9 1
    14    8   38 1
    15    8   39 1
    16    8   40 1
    17    9   10 1
    18   10   15 ar
    19   10   11 ar
    20   11   12 ar
    21   11   41 1
    22   12   13 ar
    23   12   42 1
    24   13   14 ar
    25   13   43 1
    26   14   19 1
    27   14   15 ar
    28   15   16 1
    29   16   17 2
    30   16   44 1
    31   17   18 1
    32   17   45 1
    33   18   19 am
    34   18   21 1
    35   19   20 2
    36   21   22 1
    37   21   46 1
    38   21   47 1
    39   22   23 2
    40   22   24 am
    41   24   25 1
    42   24   48 1
    43   25   30 ar
    44   25   26 ar
    45   26   27 ar
    46   26   49 1
    47   27   28 ar
    48   27   50 1
    49   28   29 ar
    50   28   31 1
    51   29   30 ar
    52   29   51 1
    53   30   52 1
    54   31   32 1
    55   32   53 1
    56   32   54 1
    57   32   55 1
@<TRIPOS>MOLECULE
ZINC02712323
   58    60     0     0     0
SMALL
USER_CHARGES

@<TRIPOS>ATOM
      1 C1         -3.8255    2.7088   -0.1944 C.3       1 <0>        -0.1529
      2 C2         -3.9113    1.2000    0.0445 C.3       1 <0>         0.0535
      3 O1         -2.8756    0.5421   -0.6881 O.3       1 <0>        -0.3159
      4 C3         -2.8107   -0.8121   -0.5844 C.ar      1 <0>         0.1192
      5 C4         -3.7291   -1.4920    0.2021 C.ar      1 <0>        -0.1892
      6 C5         -3.6638   -2.8673    0.3079 C.ar      1 <0>        -0.0779
      7 C6         -2.6784   -3.5696   -0.3731 C.ar      1 <0>         0.1054
      8 C7         -1.7595   -2.8884   -1.1602 C.ar      1 <0>        -0.1014
      9 C8         -1.8295   -1.5136   -1.2696 C.ar      1 <0>        -0.1326
     10 N1         -2.6112   -4.9649   -0.2659 N.am      1 <0>        -0.6674
     11 C9         -3.7413   -5.6847   -0.1196 C.2       1 <0>         0.4977
     12 O2         -4.8215   -5.1359   -0.1758 O.2       1 <0>        -0.5041
     13 C10        -3.6627   -7.1715    0.1139 C.3       1 <0>         0.0795
     14 N2         -5.0160   -7.7183    0.2391 N.am      1 <0>        -0.5048
     15 C11        -5.5940   -7.7722    1.4759 C.2       1 <0>         0.1052
     16 C12        -6.8300   -8.2593    1.6715 C.2       1 <0>        -0.1759
     17 C13        -7.5978   -8.7535    0.5278 C.ar      1 <0>        -0.0156
     18 C14        -7.0042   -8.6994   -0.7538 C.ar      1 <0>        -0.1126
     19 C15        -5.6503   -8.1460   -0.8704 C.2       1 <0>         0.5553
     20 O3         -5.1045   -8.0774   -1.9570 O.2       1 <0>        -0.5201
     21 C16        -7.7103   -9.1623   -1.8641 C.ar      1 <0>        -0.0795
     22 C17        -8.9810   -9.6684   -1.7013 C.ar      1 <0>        -0.0947
     23 C18        -9.5687   -9.7233   -0.4449 C.ar      1 <0>        -0.1781
     24 C19        -8.8904   -9.2716    0.6714 C.ar      1 <0>         0.1243
     25 O4         -9.4729   -9.3300    1.8975 O.3       1 <0>        -0.2817
     26 C20       -10.8358   -9.7565    1.9486 C.3       1 <0>         0.0949
     27 H1        -11.3652   -9.3874    1.0701 H         1 <0>         0.1140
     28 C21       -10.8913  -11.2853    1.9725 C.3       1 <0>        -0.1767
     29 C22       -11.4867   -9.2106    3.1934 C.2       1 <0>         0.4657
     30 O5        -10.8489   -8.5266    3.9583 O.2       1 <0>        -0.4794
     31 O6        -12.7750   -9.4844    3.4523 O.3       1 <0>        -0.3470
     32 C23       -13.3271   -8.9343    4.6501 C.3       1 <0>         0.0605
     33 C24       -14.7940   -9.3511    4.7738 C.3       1 <0>        -0.1527
     34 H2         -4.6155    3.2106    0.3644 H         1 <0>         0.0791
     35 H3         -2.8549    3.0750    0.1401 H         1 <0>         0.0668
     36 H4         -3.9451    2.9156   -1.2579 H         1 <0>         0.0668
     37 H5         -3.7917    0.9931    1.1080 H         1 <0>         0.0623
     38 H6         -4.8819    0.8337   -0.2900 H         1 <0>         0.0624
     39 H7         -4.4953   -0.9456    0.7320 H         1 <0>         0.1312
     40 H8         -4.3786   -3.3964    0.9205 H         1 <0>         0.1359
     41 H9         -0.9926   -3.4340   -1.6898 H         1 <0>         0.1344
     42 H10        -1.1175   -0.9841   -1.8852 H         1 <0>         0.1364
     43 H11        -1.7514   -5.4129   -0.2969 H         1 <0>         0.4127
     44 H12        -3.1558   -7.6450   -0.7269 H         1 <0>         0.1312
     45 H13        -3.1058   -7.3664    1.0304 H         1 <0>         0.1270
     46 H14        -5.0365   -7.4102    2.3271 H         1 <0>         0.1582
     47 H15        -7.2538   -8.2865    2.6645 H         1 <0>         0.1547
     48 H16        -7.2631   -9.1237   -2.8464 H         1 <0>         0.1409
     49 H17        -9.5268  -10.0265   -2.5616 H         1 <0>         0.1370
     50 H18       -10.5662  -10.1235   -0.3385 H         1 <0>         0.1378
     51 H19       -10.3619  -11.6543    2.8510 H         1 <0>         0.0768
     52 H20       -11.9309  -11.6106    2.0115 H         1 <0>         0.0906
     53 H21       -10.4205  -11.6801    1.0722 H         1 <0>         0.0823
     54 H22       -12.7702   -9.3051    5.5106 H         1 <0>         0.0710
     55 H23       -13.2600   -7.8469    4.6150 H         1 <0>         0.0705
     56 H24       -15.2151   -8.9314    5.6874 H         1 <0>         0.0826
     57 H25       -15.3509   -8.9802    3.9133 H         1 <0>         0.0681
     58 H26       -14.8611  -10.4384    4.8088 H         1 <0>         0.0683
@<TRIPOS>BOND
     1    1    2 1
     2    1   34 1
     3    1   35 1
     4    1   36 1
     5    2    3 1
     6    2   37 1
     7    2   38 1
     8    3    4 1
     9    4    9 ar
    10    4    5 ar
    11    5    6 ar
    12    5   39 1
    13    6    7 ar
    14    6   40 1
    15    7    8 ar
    16    7   10 1
    17    8    9 ar
    18    8   41 1
    19    9   42 1
    20   10   11 am
    21   10   43 1
    22   11   12 2
    23   11   13 1
    24   13   14 1
    25   13   44 1
    26   13   45 1
    27   14   19 am
    28   14   15 1
    29   15   16 2
    30   15   46 1
    31   16   17 1
    32   16   47 1
    33   17   24 ar
    34   17   18 ar
    35   18   19 1
    36   18   21 ar
    37   19   20 2
    38   21   22 ar
    39   21   48 1
    40   22   23 ar
    41   22   49 1
    42   23   24 ar
    43   23   50 1
    44   24   25 1
    45   25   26 1
    46   26   27 1
    47   26   28 1
    48   26   29 1
    49   28   51 1
    50   28   52 1
    51   28   53 1
    52   29   30 2
    53   29   31 1
    54   31   32 1
    55   32   33 1
    56   32   54 1
    57   32   55 1
    58   33   56 1
    59   33   57 1
    60   33   58 1
@<TRIPOS>MOLECULE
ZINC02712324
   58    60     0     0     0
SMALL
USER_CHARGES

@<TRIPOS>ATOM
      1 C1         -1.7535    1.6972    2.1875 C.3       1 <0>        -0.1529
      2 C2         -2.1119    0.2145    2.0689 C.3       1 <0>         0.0535
      3 O1         -1.2621   -0.4051    1.1015 O.3       1 <0>        -0.3159
      4 C3         -1.4507   -1.7323    0.8740 C.ar      1 <0>         0.1193
      5 C4         -2.4376   -2.4206    1.5644 C.ar      1 <0>        -0.1892
      6 C5         -2.6297   -3.7685    1.3339 C.ar      1 <0>        -0.0778
      7 C6         -1.8349   -4.4348    0.4108 C.ar      1 <0>         0.1053
      8 C7         -0.8473   -3.7453   -0.2798 C.ar      1 <0>        -0.1013
      9 C8         -0.6600   -2.3962   -0.0525 C.ar      1 <0>        -0.1327
     10 N1         -2.0290   -5.8025    0.1767 N.am      1 <0>        -0.6675
     11 C9         -3.2662   -6.3310    0.2571 C.2       1 <0>         0.4980
     12 O2         -4.2233   -5.6091    0.4412 O.2       1 <0>        -0.5043
     13 C10        -3.4604   -7.8190    0.1182 C.3       1 <0>         0.0794
     14 N2         -4.8846   -8.1392    0.2418 N.am      1 <0>        -0.5049
     15 C11        -5.3959   -8.4054    1.4805 C.2       1 <0>         0.1053
     16 C12        -6.6901   -8.7067    1.6748 C.2       1 <0>        -0.1760
     17 C13        -7.5975   -8.7550    0.5275 C.ar      1 <0>        -0.0156
     18 C14        -7.0732   -8.4799   -0.7559 C.ar      1 <0>        -0.1126
     19 C15        -5.6468   -8.1557   -0.8696 C.2       1 <0>         0.5553
     20 O3         -5.1562   -7.9081   -1.9565 O.2       1 <0>        -0.5201
     21 C16        -7.9124   -8.5174   -1.8694 C.ar      1 <0>        -0.0795
     22 C17        -9.2459   -8.8226   -1.7078 C.ar      1 <0>        -0.0947
     23 C18        -9.7659   -9.0931   -0.4496 C.ar      1 <0>        -0.1779
     24 C19        -8.9557   -9.0630    0.6698 C.ar      1 <0>         0.1240
     25 O4         -9.4729   -9.3300    1.8975 O.3       1 <0>        -0.2816
     26 C20       -10.8358   -9.7565    1.9486 C.3       1 <0>         0.0951
     27 H1        -11.0581  -10.3681    1.0742 H         1 <0>         0.1136
     28 C21       -11.7532   -8.5321    1.9611 C.3       1 <0>        -0.1770
     29 C22       -11.0622  -10.5665    3.1990 C.2       1 <0>         0.4659
     30 O5        -10.1759  -10.6834    4.0118 O.2       1 <0>        -0.4794
     31 O6        -12.2484  -11.1583    3.4098 O.3       1 <0>        -0.3473
     32 C23       -12.3930  -11.9105    4.6161 C.3       1 <0>         0.0606
     33 C24       -13.8009  -12.5058    4.6804 C.3       1 <0>        -0.1528
     34 H2         -2.4017    2.1698    2.9254 H         1 <0>         0.0792
     35 H3         -0.7141    1.7958    2.5007 H         1 <0>         0.0668
     36 H4         -1.8893    2.1822    1.2208 H         1 <0>         0.0668
     37 H5         -1.9761   -0.2705    3.0356 H         1 <0>         0.0623
     38 H6         -3.1513    0.1159    1.7557 H         1 <0>         0.0624
     39 H7         -3.0556   -1.9023    2.2826 H         1 <0>         0.1313
     40 H8         -3.3979   -4.3043    1.8717 H         1 <0>         0.1359
     41 H9         -0.2284   -4.2631   -0.9977 H         1 <0>         0.1344
     42 H10         0.1053   -1.8587   -0.5928 H         1 <0>         0.1364
     43 H11        -1.2729   -6.3690   -0.0432 H         1 <0>         0.4127
     44 H12        -3.0984   -8.1432   -0.8575 H         1 <0>         0.1312
     45 H13        -2.9032   -8.3328    0.9016 H         1 <0>         0.1269
     46 H14        -4.7353   -8.3726    2.3343 H         1 <0>         0.1582
     47 H15        -7.0581   -8.9121    2.6692 H         1 <0>         0.1547
     48 H16        -7.5188   -8.3080   -2.8530 H         1 <0>         0.1409
     49 H17        -9.8948   -8.8513   -2.5707 H         1 <0>         0.1370
     50 H18       -10.8144   -9.3299   -0.3442 H         1 <0>         0.1378
     51 H19       -11.5309   -7.9204    2.8354 H         1 <0>         0.0772
     52 H20       -11.5895   -7.9462    1.0566 H         1 <0>         0.0829
     53 H21       -12.7928   -8.8574    2.0000 H         1 <0>         0.0901
     54 H22       -11.6574  -12.7147    4.6332 H         1 <0>         0.0706
     55 H23       -12.2357  -11.2560    5.4735 H         1 <0>         0.0709
     56 H24       -13.9112  -13.0795    5.6006 H         1 <0>         0.0827
     57 H25       -14.5365  -11.7016    4.6634 H         1 <0>         0.0683
     58 H26       -13.9582  -13.1602    3.8231 H         1 <0>         0.0681
@<TRIPOS>BOND
     1    1    2 1
     2    1   34 1
     3    1   35 1
     4    1   36 1
     5    2    3 1
     6    2   37 1
     7    2   38 1
     8    3    4 1
     9    4    9 ar
    10    4    5 ar
    11    5    6 ar
    12    5   39 1
    13    6    7 ar
    14    6   40 1
    15    7    8 ar
    16    7   10 1
    17    8    9 ar
    18    8   41 1
    19    9   42 1
    20   10   11 am
    21   10   43 1
    22   11   12 2
    23   11   13 1
    24   13   14 1
    25   13   44 1
    26   13   45 1
    27   14   19 am
    28   14   15 1
    29   15   16 2
    30   15   46 1
    31   16   17 1
    32   16   47 1
    33   17   24 ar
    34   17   18 ar
    35   18   19 1
    36   18   21 ar
    37   19   20 2
    38   21   22 ar
    39   21   48 1
    40   22   23 ar
    41   22   49 1
    42   23   24 ar
    43   23   50 1
    44   24   25 1
    45   25   26 1
    46   26   27 1
    47   26   28 1
    48   26   29 1
    49   28   51 1
    50   28   52 1
    51   28   53 1
    52   29   30 2
    53   29   31 1
    54   31   32 1
    55   32   33 1
    56   32   54 1
    57   32   55 1
    58   33   56 1
    59   33   57 1
    60   33   58 1
@<TRIPOS>MOLECULE
ZINC02712353
   57    60     0     0     0
SMALL
USER_CHARGES

@<TRIPOS>ATOM
      1 C1         -0.0077    1.4802   -0.5375 C.3       1 <0>        -0.1527
      2 C2         -0.0102   -0.0497   -0.5323 C.3       1 <0>         0.0606
      3 O1         -1.3347   -0.5231   -0.2798 O.3       1 <0>        -0.3474
      4 C3         -1.5096   -1.8534   -0.2425 C.2       1 <0>         0.4656
      5 O2         -0.5694   -2.5915   -0.4184 O.2       1 <0>        -0.4790
      6 C4         -2.8788   -2.4263    0.0188 C.3       1 <0>         0.0950
      7 H1         -3.2726   -2.0166    0.9489 H         1 <0>         0.1134
      8 C5         -3.8136   -2.0603   -1.1358 C.3       1 <0>        -0.1765
      9 O3         -2.7877   -3.8484    0.1254 O.3       1 <0>        -0.2816
     10 C6         -3.7543   -4.4761    0.8451 C.ar      1 <0>         0.1235
     11 C7         -4.8280   -3.7618    1.3422 C.ar      1 <0>        -0.1783
     12 C8         -5.8198   -4.3948    2.0788 C.ar      1 <0>        -0.0954
     13 C9         -5.7566   -5.7475    2.3308 C.ar      1 <0>        -0.0796
     14 C10        -4.6837   -6.4916    1.8400 C.ar      1 <0>        -0.1131
     15 C11        -3.6741   -5.8532    1.0845 C.ar      1 <0>        -0.0148
     16 C12        -2.5651   -6.6638    0.5798 C.2       1 <0>        -0.1783
     17 C13        -2.5386   -7.9810    0.8399 C.2       1 <0>         0.1075
     18 N1         -3.5152   -8.6036    1.5645 N.am      1 <0>        -0.5042
     19 C14        -4.5664   -7.9346    2.0785 C.2       1 <0>         0.5555
     20 O4         -5.4171   -8.5239    2.7206 O.2       1 <0>        -0.5213
     21 C15        -3.4094  -10.0452    1.8024 C.3       1 <0>         0.0775
     22 C16        -2.6463  -10.2891    3.0788 C.2       1 <0>         0.4998
     23 O5         -2.2316   -9.3510    3.7260 O.2       1 <0>        -0.5209
     24 N2         -2.4245  -11.5496    3.5010 N.am      1 <0>        -0.7243
     25 C17        -1.6827  -11.7867    4.7418 C.3       1 <0>         0.1675
     26 C18        -1.5738  -13.2697    4.9865 C.ar      1 <0>        -0.1034
     27 C19        -2.5527  -13.9228    5.7121 C.ar      1 <0>        -0.0864
     28 C20        -2.4576  -15.2831    5.9388 C.ar      1 <0>        -0.1011
     29 C21        -1.3795  -15.9955    5.4391 C.ar      1 <0>         0.0424
     30 C22        -0.3933  -15.3377    4.7083 C.ar      1 <0>         0.0303
     31 C23        -0.4982  -13.9751    4.4801 C.ar      1 <0>        -0.0809
     32 O6          0.5508  -16.2485    4.3309 O.3       1 <0>        -0.3073
     33 C24         0.3446  -17.3911    5.1825 C.3       1 <0>         0.2127
     34 O7         -1.0534  -17.3186    5.5196 O.3       1 <0>        -0.3073
     35 H2          1.0026    1.8413   -0.7301 H         1 <0>         0.0826
     36 H3         -0.6776    1.8420   -1.3175 H         1 <0>         0.0682
     37 H4         -0.3462    1.8474    0.4314 H         1 <0>         0.0681
     38 H5          0.3284   -0.4169   -1.5011 H         1 <0>         0.0709
     39 H6          0.6598   -0.4115    0.2477 H         1 <0>         0.0706
     40 H7         -3.8831   -0.9755   -1.2172 H         1 <0>         0.0899
     41 H8         -3.4198   -2.4699   -2.0660 H         1 <0>         0.0770
     42 H9         -4.8039   -2.4746   -0.9469 H         1 <0>         0.0829
     43 H10        -4.8959   -2.7002    1.1559 H         1 <0>         0.1375
     44 H11        -6.6509   -3.8196    2.4592 H         1 <0>         0.1366
     45 H12        -6.5336   -6.2295    2.9056 H         1 <0>         0.1407
     46 H13        -1.7749   -6.2066    0.0028 H         1 <0>         0.1544
     47 H14        -1.7156   -8.5696    0.4622 H         1 <0>         0.1580
     48 H15        -4.4080  -10.4735    1.8886 H         1 <0>         0.1292
     49 H16        -2.8840  -10.5132    0.9699 H         1 <0>         0.1235
     50 H17        -2.7562  -12.2999    2.9833 H         1 <0>         0.4046
     51 H18        -0.6840  -11.3584    4.6556 H         1 <0>         0.0815
     52 H19        -2.2080  -11.3187    5.5744 H         1 <0>         0.0837
     53 H20        -3.3935  -13.3689    6.1030 H         1 <0>         0.1422
     54 H21        -3.2238  -15.7907    6.5059 H         1 <0>         0.1400
     55 H22         0.2628  -13.4632    3.9099 H         1 <0>         0.1382
     56 H23         0.5615  -18.3139    4.6445 H         1 <0>         0.1347
     57 H24         0.9593  -17.3161    6.0795 H         1 <0>         0.0874
@<TRIPOS>BOND
     1    1    2 1
     2    1   35 1
     3    1   36 1
     4    1   37 1
     5    2    3 1
     6    2   38 1
     7    2   39 1
     8    3    4 1
     9    4    5 2
    10    4    6 1
    11    6    7 1
    12    6    8 1
    13    6    9 1
    14    8   40 1
    15    8   41 1
    16    8   42 1
    17    9   10 1
    18   10   15 ar
    19   10   11 ar
    20   11   12 ar
    21   11   43 1
    22   12   13 ar
    23   12   44 1
    24   13   14 ar
    25   13   45 1
    26   14   19 1
    27   14   15 ar
    28   15   16 1
    29   16   17 2
    30   16   46 1
    31   17   18 1
    32   17   47 1
    33   18   19 am
    34   18   21 1
    35   19   20 2
    36   21   22 1
    37   21   48 1
    38   21   49 1
    39   22   23 2
    40   22   24 am
    41   24   25 1
    42   24   50 1
    43   25   26 1
    44   25   51 1
    45   25   52 1
    46   26   31 ar
    47   26   27 ar
    48   27   28 ar
    49   27   53 1
    50   28   29 ar
    51   28   54 1
    52   29   34 1
    53   29   30 ar
    54   30   31 ar
    55   30   32 1
    56   31   55 1
    57   32   33 1
    58   33   34 1
    59   33   56 1
    60   33   57 1
@<TRIPOS>MOLECULE
ZINC02712354
   57    60     0     0     0
SMALL
USER_CHARGES

@<TRIPOS>ATOM
      1 C1          0.3759    1.2891   -0.5076 C.3       1 <0>        -0.1528
      2 C2          0.2768   -0.2225   -0.2925 C.3       1 <0>         0.0606
      3 O1         -1.0947   -0.6210   -0.3374 O.3       1 <0>        -0.3473
      4 C3         -1.3559   -1.9263   -0.1649 C.2       1 <0>         0.4658
      5 O2         -0.4501   -2.7047    0.0181 O.2       1 <0>        -0.4794
      6 C4         -2.7790   -2.4210   -0.1995 C.3       1 <0>         0.0951
      7 H1         -3.2483   -2.1124   -1.1336 H         1 <0>         0.1135
      8 C5         -3.5534   -1.8295    0.9800 C.3       1 <0>        -0.1770
      9 O3         -2.7899   -3.8471   -0.1094 O.3       1 <0>        -0.2815
     10 C6         -3.8673   -4.4899   -0.6312 C.ar      1 <0>         0.1235
     11 C7         -4.9428   -3.7687   -1.1144 C.ar      1 <0>        -0.1782
     12 C8         -6.0478   -4.4170   -1.6487 C.ar      1 <0>        -0.0954
     13 C9         -6.0977   -5.7922   -1.7095 C.ar      1 <0>        -0.0795
     14 C10        -5.0252   -6.5436   -1.2290 C.ar      1 <0>        -0.1131
     15 C11        -3.8952   -5.8884   -0.6892 C.ar      1 <0>        -0.0148
     16 C12        -2.7850   -6.7062   -0.1988 C.2       1 <0>        -0.1783
     17 C13        -2.8653   -8.0443   -0.2788 C.2       1 <0>         0.1075
     18 N1         -3.9530   -8.6819   -0.8053 N.am      1 <0>        -0.5043
     19 C14        -5.0255   -8.0103   -1.2692 C.2       1 <0>         0.5555
     20 O4         -5.9777   -8.6136   -1.7304 O.2       1 <0>        -0.5213
     21 C15        -3.9593  -10.1461   -0.8549 C.3       1 <0>         0.0774
     22 C16        -4.5606  -10.6892    0.4157 C.2       1 <0>         0.5000
     23 O5         -4.9459   -9.9282    1.2779 O.2       1 <0>        -0.5209
     24 N2         -4.6701  -12.0206    0.5940 N.am      1 <0>        -0.7243
     25 C17        -5.2547  -12.5486    1.8292 C.3       1 <0>         0.1676
     26 C18        -5.2612  -14.0547    1.7781 C.ar      1 <0>        -0.1035
     27 C19        -6.3481  -14.7221    1.2447 C.ar      1 <0>        -0.0864
     28 C20        -6.3585  -16.1036    1.1951 C.ar      1 <0>        -0.1011
     29 C21        -5.2787  -16.8230    1.6809 C.ar      1 <0>         0.0424
     30 C22        -4.1838  -16.1507    2.2183 C.ar      1 <0>         0.0303
     31 C23        -4.1778  -14.7658    2.2594 C.ar      1 <0>        -0.0809
     32 O6         -3.2619  -17.0722    2.6233 O.3       1 <0>        -0.3073
     33 C24        -3.9754  -18.3204    2.7031 C.3       1 <0>         0.2127
     34 O7         -5.0428  -18.1657    1.7492 O.3       1 <0>        -0.3072
     35 H2          1.4221    1.5931   -0.4733 H         1 <0>         0.0825
     36 H3         -0.0456    1.5462   -1.4793 H         1 <0>         0.0681
     37 H4         -0.1781    1.8048    0.2768 H         1 <0>         0.0683
     38 H5          0.8309   -0.7381   -1.0768 H         1 <0>         0.0706
     39 H6          0.6983   -0.4796    0.6793 H         1 <0>         0.0709
     40 H7         -4.5827   -2.1872    0.9550 H         1 <0>         0.0830
     41 H8         -3.0841   -2.1381    1.9142 H         1 <0>         0.0772
     42 H9         -3.5451   -0.7417    0.9113 H         1 <0>         0.0899
     43 H10        -4.9233   -2.6896   -1.0755 H         1 <0>         0.1375
     44 H11        -6.8787   -3.8361   -2.0210 H         1 <0>         0.1367
     45 H12        -6.9628   -6.2861   -2.1267 H         1 <0>         0.1407
     46 H13        -1.9085   -6.2376    0.2236 H         1 <0>         0.1544
     47 H14        -2.0401   -8.6380    0.0858 H         1 <0>         0.1580
     48 H15        -4.5512  -10.4781   -1.7079 H         1 <0>         0.1291
     49 H16        -2.9372  -10.5105   -0.9580 H         1 <0>         0.1235
     50 H17        -4.3620  -12.6293   -0.0956 H         1 <0>         0.4047
     51 H18        -4.6628  -12.2166    2.6821 H         1 <0>         0.0815
     52 H19        -6.2767  -12.1842    1.9322 H         1 <0>         0.0837
     53 H20        -7.1910  -14.1630    0.8662 H         1 <0>         0.1422
     54 H21        -7.2090  -16.6223    0.7779 H         1 <0>         0.1400
     55 H22        -3.3282  -14.2418    2.6715 H         1 <0>         0.1382
     56 H23        -3.3275  -19.1506    2.4217 H         1 <0>         0.1347
     57 H24        -4.3763  -18.4690    3.7057 H         1 <0>         0.0875
@<TRIPOS>BOND
     1    1    2 1
     2    1   35 1
     3    1   36 1
     4    1   37 1
     5    2    3 1
     6    2   38 1
     7    2   39 1
     8    3    4 1
     9    4    5 2
    10    4    6 1
    11    6    7 1
    12    6    8 1
    13    6    9 1
    14    8   40 1
    15    8   41 1
    16    8   42 1
    17    9   10 1
    18   10   15 ar
    19   10   11 ar
    20   11   12 ar
    21   11   43 1
    22   12   13 ar
    23   12   44 1
    24   13   14 ar
    25   13   45 1
    26   14   19 1
    27   14   15 ar
    28   15   16 1
    29   16   17 2
    30   16   46 1
    31   17   18 1
    32   17   47 1
    33   18   19 am
    34   18   21 1
    35   19   20 2
    36   21   22 1
    37   21   48 1
    38   21   49 1
    39   22   23 2
    40   22   24 am
    41   24   25 1
    42   24   50 1
    43   25   26 1
    44   25   51 1
    45   25   52 1
    46   26   31 ar
    47   26   27 ar
    48   27   28 ar
    49   27   53 1
    50   28   29 ar
    51   28   54 1
    52   29   34 1
    53   29   30 ar
    54   30   31 ar
    55   30   32 1
    56   31   55 1
    57   32   33 1
    58   33   34 1
    59   33   56 1
    60   33   57 1
@<TRIPOS>MOLECULE
ZINC02712284
   57    59     0     0     0
SMALL
USER_CHARGES
ethyl 2-[[2-[(4-ethylphenyl)carbamoylmethyl]-1-oxo-5-isoquinolyl]oxy]propanoate
@<TRIPOS>ATOM
      1 C1         10.3403   -3.1088   -7.1615 C.3       1 <0>        -0.1470
      2 C2          8.9230   -3.5817   -6.8319 C.3       1 <0>        -0.0856
      3 C3          8.5537   -3.1315   -5.4420 C.ar      1 <0>        -0.0932
      4 C4          7.9406   -1.9065   -5.2536 C.ar      1 <0>        -0.1002
      5 C5          7.6000   -1.4915   -3.9811 C.ar      1 <0>        -0.1154
      6 C6          7.8744   -2.3057   -2.8901 C.ar      1 <0>         0.1358
      7 C7          8.4955   -3.5328   -3.0821 C.ar      1 <0>        -0.1387
      8 C8          8.8284   -3.9446   -4.3577 C.ar      1 <0>        -0.0998
      9 N1          7.5312   -1.8879   -1.5995 N.am      1 <0>        -0.6699
     10 C9          6.4100   -1.1669   -1.4005 C.2       1 <0>         0.4982
     11 O1          5.7391   -0.8151   -2.3477 O.2       1 <0>        -0.5022
     12 C10         5.9899   -0.7979   -0.0011 C.3       1 <0>         0.0799
     13 N2          4.7493   -0.0204   -0.0527 N.am      1 <0>        -0.5049
     14 C11         4.8268    1.3400   -0.1517 C.2       1 <0>         0.1048
     15 C12         3.7355    2.1207   -0.2041 C.2       1 <0>        -0.1754
     16 C13         2.4083    1.5059   -0.1543 C.ar      1 <0>        -0.0162
     17 C14         2.3229    0.0989   -0.0522 C.ar      1 <0>        -0.1119
     18 C15         3.5705   -0.6717   -0.0012 C.2       1 <0>         0.5553
     19 O2          3.5411   -1.8861    0.0871 O.2       1 <0>        -0.5202
     20 C16         1.0726   -0.5174   -0.0034 C.ar      1 <0>        -0.0803
     21 C17        -0.0689    0.2518   -0.0552 C.ar      1 <0>        -0.0936
     22 C18         0.0093    1.6341   -0.1555 C.ar      1 <0>        -0.1791
     23 C19         1.2358    2.2693   -0.2055 C.ar      1 <0>         0.1256
     24 O3          1.3031    3.6228   -0.3041 O.3       1 <0>        -0.2814
     25 C20         0.0677    4.3392   -0.2531 C.3       1 <0>         0.0926
     26 H1         -0.7079    3.7623   -0.7570 H         1 <0>         0.1145
     27 C21        -0.3314    4.5645    1.2066 C.3       1 <0>        -0.1745
     28 C22         0.2302    5.6703   -0.9407 C.2       1 <0>         0.4665
     29 O4          1.2947    5.9743   -1.4247 O.2       1 <0>        -0.4807
     30 O5         -0.8077    6.5182   -1.0155 O.3       1 <0>        -0.3525
     31 C23        -0.5788    7.7823   -1.6922 C.3       1 <0>         0.0628
     32 C24        -1.8661    8.6091   -1.6775 C.3       1 <0>        -0.1536
     33 H2         10.3818   -2.0209   -7.1088 H         1 <0>         0.0555
     34 H3         11.0414   -3.5343   -6.4435 H         1 <0>         0.0555
     35 H4         10.6075   -3.4344   -8.1668 H         1 <0>         0.0583
     36 H5          8.8816   -4.6696   -6.8846 H         1 <0>         0.0719
     37 H6          8.2219   -3.1562   -7.5499 H         1 <0>         0.0718
     38 H7          7.7274   -1.2738   -6.1025 H         1 <0>         0.1248
     39 H8          7.1205   -0.5349   -3.8347 H         1 <0>         0.1368
     40 H9          8.7139   -4.1665   -2.2352 H         1 <0>         0.1261
     41 H10         9.3073   -4.9008   -4.5081 H         1 <0>         0.1263
     42 H11         8.1001   -2.1171   -0.8481 H         1 <0>         0.4125
     43 H12         6.7728   -0.2021    0.4681 H         1 <0>         0.1262
     44 H13         5.8261   -1.7053    0.5803 H         1 <0>         0.1319
     45 H14         5.8012    1.8044   -0.1889 H         1 <0>         0.1583
     46 H15         3.8363    3.1931   -0.2827 H         1 <0>         0.1545
     47 H16         0.9998   -1.5921    0.0749 H         1 <0>         0.1408
     48 H17        -1.0365   -0.2264   -0.0177 H         1 <0>         0.1370
     49 H18        -0.8976    2.2189   -0.1993 H         1 <0>         0.1374
     50 H19        -1.2738    5.1109    1.2454 H         1 <0>         0.0903
     51 H20        -0.4489    3.6017    1.7039 H         1 <0>         0.0812
     52 H21         0.4441    5.1414    1.7104 H         1 <0>         0.0762
     53 H22         0.2113    8.3310   -1.1795 H         1 <0>         0.0736
     54 H23        -0.2799    7.5936   -2.7233 H         1 <0>         0.0733
     55 H24        -2.6562    8.0604   -2.1901 H         1 <0>         0.0683
     56 H25        -2.1650    8.7978   -0.6464 H         1 <0>         0.0685
     57 H26        -1.6942    9.5580   -2.1855 H         1 <0>         0.0833
@<TRIPOS>BOND
     1    1    2 1
     2    1   33 1
     3    1   34 1
     4    1   35 1
     5    2    3 1
     6    2   36 1
     7    2   37 1
     8    3    8 ar
     9    3    4 ar
    10    4    5 ar
    11    4   38 1
    12    5    6 ar
    13    5   39 1
    14    6    7 ar
    15    6    9 1
    16    7    8 ar
    17    7   40 1
    18    8   41 1
    19    9   10 am
    20    9   42 1
    21   10   11 2
    22   10   12 1
    23   12   13 1
    24   12   43 1
    25   12   44 1
    26   13   18 am
    27   13   14 1
    28   14   15 2
    29   14   45 1
    30   15   16 1
    31   15   46 1
    32   16   23 ar
    33   16   17 ar
    34   17   18 1
    35   17   20 ar
    36   18   19 2
    37   20   21 ar
    38   20   47 1
    39   21   22 ar
    40   21   48 1
    41   22   23 ar
    42   22   49 1
    43   23   24 1
    44   24   25 1
    45   25   26 1
    46   25   27 1
    47   25   28 1
    48   27   50 1
    49   27   51 1
    50   27   52 1
    51   28   29 2
    52   28   30 1
    53   30   31 1
    54   31   32 1
    55   31   53 1
    56   31   54 1
    57   32   55 1
    58   32   56 1
    59   32   57 1
@<TRIPOS>MOLECULE
ZINC02712285
   57    59     0     0     0
SMALL
USER_CHARGES
ethyl 2-[[2-[(4-ethylphenyl)carbamoylmethyl]-1-oxo-5-isoquinolyl]oxy]propanoate
@<TRIPOS>ATOM
      1 C1         -8.5964    5.2812   -4.8588 C.3       1 <0>        -0.1471
      2 C2         -7.2770    6.0556   -4.8802 C.3       1 <0>        -0.0853
      3 C3         -6.4937    5.7481   -3.6300 C.ar      1 <0>        -0.0945
      4 C4         -5.6050    4.6888   -3.6158 C.ar      1 <0>        -0.0981
      5 C5         -4.8849    4.4049   -2.4719 C.ar      1 <0>        -0.1166
      6 C6         -5.0545    5.1844   -1.3351 C.ar      1 <0>         0.1393
      7 C7         -5.9520    6.2440   -1.3510 C.ar      1 <0>        -0.1403
      8 C8         -6.6648    6.5262   -2.4998 C.ar      1 <0>        -0.0981
      9 N1         -4.3268    4.8992   -0.1745 N.am      1 <0>        -0.6704
     10 C9         -3.0780    4.4009   -0.2675 C.2       1 <0>         0.4983
     11 O1         -2.5492    4.2884   -1.3532 O.2       1 <0>        -0.5012
     12 C10        -2.3387    3.9834    0.9776 C.3       1 <0>         0.0794
     13 N2         -1.0126    3.4793    0.6122 N.am      1 <0>        -0.5050
     14 C11        -0.8648    2.1489    0.3387 C.2       1 <0>         0.1049
     15 C12         0.3187    1.6111    0.0022 C.2       1 <0>        -0.1755
     16 C13         1.4995    2.4709   -0.0896 C.ar      1 <0>        -0.0157
     17 C14         1.3506    3.8488    0.1874 C.ar      1 <0>        -0.1126
     18 C15         0.0188    4.3448    0.5525 C.2       1 <0>         0.5554
     19 O2         -0.1525    5.5251    0.7993 O.2       1 <0>        -0.5204
     20 C16         2.4569    4.6946    0.1081 C.ar      1 <0>        -0.0796
     21 C17         3.6857    4.1786   -0.2397 C.ar      1 <0>        -0.0946
     22 C18         3.8376    2.8260   -0.5122 C.ar      1 <0>        -0.1780
     23 C19         2.7573    1.9668   -0.4413 C.ar      1 <0>         0.1243
     24 O3          2.9149    0.6442   -0.7097 O.3       1 <0>        -0.2815
     25 C20         4.2478    0.1833   -0.9401 C.3       1 <0>         0.0946
     26 H1          4.9381    0.7331   -0.3004 H         1 <0>         0.1132
     27 C21         4.6199    0.4114   -2.4066 C.3       1 <0>        -0.1772
     28 C22         4.3326   -1.2876   -0.6233 C.2       1 <0>         0.4668
     29 O4          3.3342   -1.9002   -0.3268 O.2       1 <0>        -0.4810
     30 O5          5.5171   -1.9171   -0.6705 O.3       1 <0>        -0.3527
     31 C23         5.5237   -3.3340   -0.3534 C.3       1 <0>         0.0629
     32 C24         6.9514   -3.8738   -0.4594 C.3       1 <0>        -0.1537
     33 H2         -8.3894    4.2120   -4.8134 H         1 <0>         0.0555
     34 H3         -9.1767    5.5763   -3.9846 H         1 <0>         0.0555
     35 H4         -9.1630    5.5036   -5.7630 H         1 <0>         0.0583
     36 H5         -7.4840    7.1248   -4.9255 H         1 <0>         0.0719
     37 H6         -6.6967    5.7605   -5.7544 H         1 <0>         0.0718
     38 H7         -5.4736    4.0829   -4.5001 H         1 <0>         0.1250
     39 H8         -4.1905    3.5779   -2.4616 H         1 <0>         0.1326
     40 H9         -6.0891    6.8496   -0.4673 H         1 <0>         0.1262
     41 H10        -7.3597    7.3529   -2.5141 H         1 <0>         0.1264
     42 H11        -4.7212    5.0601    0.6970 H         1 <0>         0.4128
     43 H12        -2.8983    3.1985    1.4864 H         1 <0>         0.1271
     44 H13        -2.2312    4.8414    1.6412 H         1 <0>         0.1312
     45 H14        -1.7304    1.5058    0.3993 H         1 <0>         0.1583
     46 H15         0.3977    0.5538   -0.2034 H         1 <0>         0.1550
     47 H16         2.3504    5.7487    0.3181 H         1 <0>         0.1408
     48 H17         4.5417    4.8344   -0.3008 H         1 <0>         0.1370
     49 H18         4.8097    2.4412   -0.7828 H         1 <0>         0.1379
     50 H19         4.5586    1.4753   -2.6357 H         1 <0>         0.0828
     51 H20         5.6366    0.0599   -2.5824 H         1 <0>         0.0900
     52 H21         3.9296   -0.1384   -3.0463 H         1 <0>         0.0772
     53 H22         5.1542   -3.4809    0.6615 H         1 <0>         0.0733
     54 H23         4.8810   -3.8663   -1.0546 H         1 <0>         0.0736
     55 H24         7.3209   -3.7269   -1.4743 H         1 <0>         0.0685
     56 H25         7.5941   -3.3415    0.2418 H         1 <0>         0.0683
     57 H26         6.9563   -4.9374   -0.2213 H         1 <0>         0.0834
@<TRIPOS>BOND
     1    1    2 1
     2    1   33 1
     3    1   34 1
     4    1   35 1
     5    2    3 1
     6    2   36 1
     7    2   37 1
     8    3    8 ar
     9    3    4 ar
    10    4    5 ar
    11    4   38 1
    12    5    6 ar
    13    5   39 1
    14    6    7 ar
    15    6    9 1
    16    7    8 ar
    17    7   40 1
    18    8   41 1
    19    9   10 am
    20    9   42 1
    21   10   11 2
    22   10   12 1
    23   12   13 1
    24   12   43 1
    25   12   44 1
    26   13   18 am
    27   13   14 1
    28   14   15 2
    29   14   45 1
    30   15   16 1
    31   15   46 1
    32   16   23 ar
    33   16   17 ar
    34   17   18 1
    35   17   20 ar
    36   18   19 2
    37   20   21 ar
    38   20   47 1
    39   21   22 ar
    40   21   48 1
    41   22   23 ar
    42   22   49 1
    43   23   24 1
    44   24   25 1
    45   25   26 1
    46   25   27 1
    47   25   28 1
    48   27   50 1
    49   27   51 1
    50   27   52 1
    51   28   29 2
    52   28   30 1
    53   30   31 1
    54   31   32 1
    55   31   53 1
    56   31   54 1
    57   32   55 1
    58   32   56 1
    59   32   57 1
@<TRIPOS>MOLECULE
ZINC02712340
   55    57     0     0     0
SMALL
USER_CHARGES
ethyl (2R)-2-[[1-oxo-2-[2-oxo-2-[[4-(trifluoromethoxy)phenyl]amino]ethyl]-5-isoquinolyl]oxy]propanoate
@<TRIPOS>ATOM
      1 C1         12.0793   11.4771    4.6276 C.3       1 <0>        -0.1538
      2 C2         10.7611   10.7022    4.5764 C.3       1 <0>         0.0630
      3 O1         10.6994    9.9328    3.3465 O.3       1 <0>        -0.3528
      4 C3          9.5985    9.1914    3.1461 C.2       1 <0>         0.4667
      5 O2          8.7156    9.1856    3.9709 O.2       1 <0>        -0.4810
      6 C4          9.4637    8.3663    1.8922 C.3       1 <0>         0.0946
      7 H1          9.5918    9.0073    1.0200 H         1 <0>         0.1133
      8 C5         10.5342    7.2732    1.8835 C.3       1 <0>        -0.1770
      9 O3          8.1681    7.7646    1.8550 O.3       1 <0>        -0.2815
     10 C6          7.6738    7.4396    0.6318 C.ar      1 <0>         0.1246
     11 C7          8.4578    7.5831   -0.4974 C.ar      1 <0>        -0.1779
     12 C8          7.9610    7.2535   -1.7510 C.ar      1 <0>        -0.0941
     13 C9          6.6768    6.7774   -1.8982 C.ar      1 <0>        -0.0797
     14 C10         5.8648    6.6236   -0.7745 C.ar      1 <0>        -0.1125
     15 C11         6.3657    6.9573    0.5042 C.ar      1 <0>        -0.0164
     16 C12         5.4877    6.7848    1.6623 C.2       1 <0>        -0.1739
     17 C13         4.2395    6.3238    1.4813 C.2       1 <0>         0.1032
     18 N1          3.7528    5.9946    0.2479 N.am      1 <0>        -0.5055
     19 C14         4.4897    6.1214   -0.8734 C.2       1 <0>         0.5556
     20 O4          4.0197    5.8220   -1.9564 O.2       1 <0>        -0.5202
     21 C15         2.3808    5.4924    0.1397 C.3       1 <0>         0.0800
     22 C16         2.3845    3.9905    0.2639 C.2       1 <0>         0.4995
     23 O5          3.4302    3.3980    0.4267 O.2       1 <0>        -0.4999
     24 N2          1.2257    3.3057    0.1940 N.am      1 <0>        -0.6693
     25 C17         1.2152    1.9221    0.4148 C.ar      1 <0>         0.1313
     26 C18         2.1045    1.3563    1.3186 C.ar      1 <0>        -0.0838
     27 C19         2.0933   -0.0073    1.5360 C.ar      1 <0>        -0.1011
     28 C20         1.1939   -0.8118    0.8517 C.ar      1 <0>         0.0906
     29 C21         0.3054   -0.2471   -0.0517 C.ar      1 <0>        -0.1688
     30 C22         0.3159    1.1163   -0.2705 C.ar      1 <0>        -0.1015
     31 O6          1.1834   -2.1544    1.0663 O.3       1 <0>        -0.3092
     32 C23         0.2309   -2.9220    0.3277 C.3       1 <0>         0.6038
     33 F1          0.4649   -2.7621   -1.0423 F         1 <0>        -0.1645
     34 F2          0.3566   -4.2733    0.6676 F         1 <0>        -0.1300
     35 F3         -1.0612   -2.4822    0.6345 F         1 <0>        -0.1650
     36 H2         12.1256   12.0547    5.5508 H         1 <0>         0.0834
     37 H3         12.9139   10.7768    4.5949 H         1 <0>         0.0685
     38 H4         12.1375   12.1519    3.7735 H         1 <0>         0.0683
     39 H5          9.9264   11.4025    4.6090 H         1 <0>         0.0733
     40 H6         10.7028   10.0274    5.4304 H         1 <0>         0.0737
     41 H7         11.5224    7.7323    1.9119 H         1 <0>         0.0900
     42 H8         10.4061    6.6323    2.7557 H         1 <0>         0.0773
     43 H9         10.4367    6.6765    0.9766 H         1 <0>         0.0828
     44 H10         9.4673    7.9551   -0.4034 H         1 <0>         0.1380
     45 H11         8.5889    7.3722   -2.6216 H         1 <0>         0.1371
     46 H12         6.3008    6.5241   -2.8784 H         1 <0>         0.1409
     47 H13         5.8390    7.0307    2.6535 H         1 <0>         0.1551
     48 H14         3.5987    6.2043    2.3425 H         1 <0>         0.1587
     49 H15         1.9653    5.7760   -0.8273 H         1 <0>         0.1321
     50 H16         1.7730    5.9213    0.9363 H         1 <0>         0.1284
     51 H17         0.3991    3.7707   -0.0092 H         1 <0>         0.4153
     52 H18         2.8018    1.9830    1.8547 H         1 <0>         0.1484
     53 H19         2.7847   -0.4476    2.2393 H         1 <0>         0.1443
     54 H20        -0.3943   -0.8740   -0.5844 H         1 <0>         0.1389
     55 H21        -0.3759    1.5557   -0.9739 H         1 <0>         0.1388
@<TRIPOS>BOND
     1    1    2 1
     2    1   36 1
     3    1   37 1
     4    1   38 1
     5    2    3 1
     6    2   39 1
     7    2   40 1
     8    3    4 1
     9    4    5 2
    10    4    6 1
    11    6    7 1
    12    6    8 1
    13    6    9 1
    14    8   41 1
    15    8   42 1
    16    8   43 1
    17    9   10 1
    18   10   15 ar
    19   10   11 ar
    20   11   12 ar
    21   11   44 1
    22   12   13 ar
    23   12   45 1
    24   13   14 ar
    25   13   46 1
    26   14   19 1
    27   14   15 ar
    28   15   16 1
    29   16   17 2
    30   16   47 1
    31   17   18 1
    32   17   48 1
    33   18   19 am
    34   18   21 1
    35   19   20 2
    36   21   22 1
    37   21   49 1
    38   21   50 1
    39   22   23 2
    40   22   24 am
    41   24   25 1
    42   24   51 1
    43   25   30 ar
    44   25   26 ar
    45   26   27 ar
    46   26   52 1
    47   27   28 ar
    48   27   53 1
    49   28   29 ar
    50   28   31 1
    51   29   30 ar
    52   29   54 1
    53   30   55 1
    54   31   32 1
    55   32   33 1
    56   32   34 1
    57   32   35 1
@<TRIPOS>MOLECULE
ZINC02712341
   55    57     0     0     0
SMALL
USER_CHARGES
ethyl (2S)-2-[[1-oxo-2-[2-oxo-2-[[4-(trifluoromethoxy)phenyl]amino]ethyl]-5-isoquinolyl]oxy]propanoate
@<TRIPOS>ATOM
      1 C1         -1.8641    8.6089   -1.6930 C.3       1 <0>        -0.1537
      2 C2         -0.5770    7.7818   -1.7061 C.3       1 <0>         0.0630
      3 O1         -0.8067    6.5184   -1.0283 O.3       1 <0>        -0.3525
      4 C3          0.2310    5.6703   -0.9520 C.2       1 <0>         0.4666
      5 O2          1.2959    5.9736   -1.4356 O.2       1 <0>        -0.4807
      6 C4          0.0677    4.3399   -0.2633 C.3       1 <0>         0.0926
      7 H1         -0.7077    3.7627   -0.7670 H         1 <0>         0.1145
      8 C5         -0.3323    4.5667    1.1960 C.3       1 <0>        -0.1746
      9 O3          1.3030    3.6231   -0.3127 O.3       1 <0>        -0.2814
     10 C6          1.2353    2.2697   -0.2129 C.ar      1 <0>         0.1259
     11 C7          0.0086    1.6349   -0.1631 C.ar      1 <0>        -0.1790
     12 C8         -0.0700    0.2528   -0.0616 C.ar      1 <0>        -0.0932
     13 C9          1.0712   -0.5167   -0.0082 C.ar      1 <0>        -0.0803
     14 C10         2.3217    0.0992   -0.0568 C.ar      1 <0>        -0.1120
     15 C11         2.4075    1.5062   -0.1601 C.ar      1 <0>        -0.0168
     16 C12         3.7349    2.1205   -0.2096 C.2       1 <0>        -0.1739
     17 C13         4.8260    1.3396   -0.1557 C.2       1 <0>         0.1034
     18 N1          4.7480   -0.0207   -0.0554 N.am      1 <0>        -0.5055
     19 C14         3.5690   -0.6717   -0.0041 C.2       1 <0>         0.5556
     20 O4          3.5393   -1.8860    0.0853 O.2       1 <0>        -0.5200
     21 C15         5.9884   -0.7984   -0.0023 C.3       1 <0>         0.0804
     22 C16         6.4094   -1.1689   -1.4011 C.2       1 <0>         0.4995
     23 O5          5.7392   -0.8178   -2.3491 O.2       1 <0>        -0.5011
     24 N2          7.5305   -1.8903   -1.5986 N.am      1 <0>        -0.6688
     25 C17         7.8751   -2.3100   -2.8902 C.ar      1 <0>         0.1279
     26 C18         8.4957   -3.5375   -3.0793 C.ar      1 <0>        -0.1001
     27 C19         8.8303   -3.9528   -4.3530 C.ar      1 <0>        -0.1703
     28 C20         8.5568   -3.1388   -5.4425 C.ar      1 <0>         0.0917
     29 C21         7.9414   -1.9099   -5.2538 C.ar      1 <0>        -0.1030
     30 C22         7.6012   -1.4959   -3.9812 C.ar      1 <0>        -0.0830
     31 O6          8.8915   -3.5458   -6.6959 O.3       1 <0>        -0.3093
     32 C23         9.5224   -4.8223   -6.8167 C.3       1 <0>         0.6037
     33 F1          8.6712   -5.8125   -6.3147 F         1 <0>        -0.1645
     34 F2          9.7961   -5.0817   -8.1639 F         1 <0>        -0.1300
     35 F3         10.7177   -4.8224   -6.0896 F         1 <0>        -0.1650
     36 H2         -2.6540    8.0599   -2.2057 H         1 <0>         0.0683
     37 H3         -2.1636    8.7987   -0.6623 H         1 <0>         0.0685
     38 H4         -1.6917    9.5573   -2.2018 H         1 <0>         0.0834
     39 H5          0.2129    8.3307   -1.1934 H         1 <0>         0.0736
     40 H6         -0.2775    7.5919   -2.7368 H         1 <0>         0.0733
     41 H7         -1.2745    5.1134    1.2337 H         1 <0>         0.0903
     42 H8         -0.4504    3.6045    1.6942 H         1 <0>         0.0812
     43 H9          0.4431    5.1439    1.6998 H         1 <0>         0.0763
     44 H10        -0.8981    2.2199   -0.2081 H         1 <0>         0.1375
     45 H11        -1.0378   -0.2252   -0.0243 H         1 <0>         0.1371
     46 H12         0.9981   -1.5913    0.0711 H         1 <0>         0.1409
     47 H13         3.8360    3.1928   -0.2892 H         1 <0>         0.1547
     48 H14         5.8005    1.8037   -0.1927 H         1 <0>         0.1587
     49 H15         6.7712   -0.2024    0.4669 H         1 <0>         0.1275
     50 H16         5.8241   -1.7052    0.5798 H         1 <0>         0.1328
     51 H17         8.0989   -2.1190   -0.8466 H         1 <0>         0.4152
     52 H18         8.7130   -4.1692   -2.2307 H         1 <0>         0.1387
     53 H19         9.3087   -4.9097   -4.5007 H         1 <0>         0.1388
     54 H20         7.7288   -1.2766   -6.1025 H         1 <0>         0.1441
     55 H21         7.1218   -0.5393   -3.8345 H         1 <0>         0.1526
@<TRIPOS>BOND
     1    1    2 1
     2    1   36 1
     3    1   37 1
     4    1   38 1
     5    2    3 1
     6    2   39 1
     7    2   40 1
     8    3    4 1
     9    4    5 2
    10    4    6 1
    11    6    7 1
    12    6    8 1
    13    6    9 1
    14    8   41 1
    15    8   42 1
    16    8   43 1
    17    9   10 1
    18   10   15 ar
    19   10   11 ar
    20   11   12 ar
    21   11   44 1
    22   12   13 ar
    23   12   45 1
    24   13   14 ar
    25   13   46 1
    26   14   19 1
    27   14   15 ar
    28   15   16 1
    29   16   17 2
    30   16   47 1
    31   17   18 1
    32   17   48 1
    33   18   19 am
    34   18   21 1
    35   19   20 2
    36   21   22 1
    37   21   49 1
    38   21   50 1
    39   22   23 2
    40   22   24 am
    41   24   25 1
    42   24   51 1
    43   25   30 ar
    44   25   26 ar
    45   26   27 ar
    46   26   52 1
    47   27   28 ar
    48   27   53 1
    49   28   29 ar
    50   28   31 1
    51   29   30 ar
    52   29   54 1
    53   30   55 1
    54   31   32 1
    55   32   33 1
    56   32   34 1
    57   32   35 1
@<TRIPOS>MOLECULE
ZINC02712286
   63    65     0     0     0
SMALL
USER_CHARGES
ethyl (2S)-2-[[2-[2-[(4-butylphenyl)amino]-2-oxo-ethyl]-1-oxo-5-isoquinolyl]oxy]propanoate
@<TRIPOS>ATOM
      1 C1         12.1326   -3.0930   -8.9022 C.3       1 <0>        -0.1540
      2 C2         10.7153   -3.5659   -8.5726 C.3       1 <0>        -0.1261
      3 C3         10.3403   -3.1088   -7.1615 C.3       1 <0>        -0.1137
      4 C4          8.9230   -3.5817   -6.8319 C.3       1 <0>        -0.0812
      5 C5          8.5537   -3.1315   -5.4420 C.ar      1 <0>        -0.0922
      6 C6          7.9406   -1.9065   -5.2536 C.ar      1 <0>        -0.0996
      7 C7          7.6000   -1.4915   -3.9811 C.ar      1 <0>        -0.1155
      8 C8          7.8744   -2.3057   -2.8901 C.ar      1 <0>         0.1360
      9 C9          8.4955   -3.5328   -3.0821 C.ar      1 <0>        -0.1389
     10 C10         8.8284   -3.9446   -4.3577 C.ar      1 <0>        -0.0993
     11 N1          7.5312   -1.8879   -1.5995 N.am      1 <0>        -0.6699
     12 C11         6.4100   -1.1669   -1.4005 C.2       1 <0>         0.4983
     13 O1          5.7391   -0.8151   -2.3477 O.2       1 <0>        -0.5021
     14 C12         5.9899   -0.7979   -0.0011 C.3       1 <0>         0.0799
     15 N2          4.7493   -0.0204   -0.0527 N.am      1 <0>        -0.5049
     16 C13         4.8268    1.3400   -0.1517 C.2       1 <0>         0.1048
     17 C14         3.7355    2.1207   -0.2041 C.2       1 <0>        -0.1754
     18 C15         2.4083    1.5059   -0.1543 C.ar      1 <0>        -0.0162
     19 C16         2.3229    0.0989   -0.0522 C.ar      1 <0>        -0.1119
     20 C17         3.5705   -0.6717   -0.0012 C.2       1 <0>         0.5553
     21 O2          3.5411   -1.8861    0.0871 O.2       1 <0>        -0.5201
     22 C18         1.0726   -0.5174   -0.0034 C.ar      1 <0>        -0.0803
     23 C19        -0.0689    0.2518   -0.0552 C.ar      1 <0>        -0.0936
     24 C20         0.0093    1.6341   -0.1555 C.ar      1 <0>        -0.1792
     25 C21         1.2358    2.2693   -0.2055 C.ar      1 <0>         0.1256
     26 O3          1.3031    3.6228   -0.3041 O.3       1 <0>        -0.2814
     27 C22         0.0677    4.3392   -0.2531 C.3       1 <0>         0.0926
     28 H1         -0.7079    3.7623   -0.7570 H         1 <0>         0.1145
     29 C23        -0.3314    4.5645    1.2066 C.3       1 <0>        -0.1745
     30 C24         0.2302    5.6703   -0.9407 C.2       1 <0>         0.4665
     31 O4          1.2947    5.9743   -1.4247 O.2       1 <0>        -0.4807
     32 O5         -0.8077    6.5182   -1.0155 O.3       1 <0>        -0.3525
     33 C25        -0.5788    7.7823   -1.6922 C.3       1 <0>         0.0628
     34 C26        -1.8661    8.6091   -1.6775 C.3       1 <0>        -0.1536
     35 H2         12.3997   -3.4186   -9.9075 H         1 <0>         0.0540
     36 H3         12.1741   -2.0051   -8.8495 H         1 <0>         0.0536
     37 H4         12.8337   -3.5185   -8.1842 H         1 <0>         0.0535
     38 H5         10.6738   -4.6538   -8.6253 H         1 <0>         0.0617
     39 H6         10.0142   -3.1404   -9.2906 H         1 <0>         0.0616
     40 H7         10.3818   -2.0209   -7.1088 H         1 <0>         0.0630
     41 H8         11.0414   -3.5343   -6.4435 H         1 <0>         0.0630
     42 H9          8.8816   -4.6696   -6.8846 H         1 <0>         0.0721
     43 H10         8.2219   -3.1562   -7.5499 H         1 <0>         0.0719
     44 H11         7.7274   -1.2738   -6.1025 H         1 <0>         0.1246
     45 H12         7.1205   -0.5349   -3.8347 H         1 <0>         0.1366
     46 H13         8.7139   -4.1665   -2.2352 H         1 <0>         0.1259
     47 H14         9.3073   -4.9008   -4.5081 H         1 <0>         0.1261
     48 H15         8.1001   -2.1171   -0.8481 H         1 <0>         0.4125
     49 H16         6.7728   -0.2021    0.4681 H         1 <0>         0.1262
     50 H17         5.8261   -1.7053    0.5803 H         1 <0>         0.1318
     51 H18         5.8012    1.8044   -0.1889 H         1 <0>         0.1582
     52 H19         3.8363    3.1931   -0.2827 H         1 <0>         0.1545
     53 H20         0.9998   -1.5921    0.0749 H         1 <0>         0.1408
     54 H21        -1.0365   -0.2264   -0.0177 H         1 <0>         0.1370
     55 H22        -0.8976    2.2189   -0.1993 H         1 <0>         0.1374
     56 H23        -0.4489    3.6017    1.7039 H         1 <0>         0.0812
     57 H24         0.4441    5.1414    1.7104 H         1 <0>         0.0762
     58 H25        -1.2738    5.1109    1.2454 H         1 <0>         0.0903
     59 H26         0.2113    8.3310   -1.1795 H         1 <0>         0.0736
     60 H27        -0.2799    7.5936   -2.7233 H         1 <0>         0.0733
     61 H28        -2.1650    8.7978   -0.6464 H         1 <0>         0.0685
     62 H29        -1.6942    9.5580   -2.1855 H         1 <0>         0.0833
     63 H30        -2.6562    8.0604   -2.1901 H         1 <0>         0.0683
@<TRIPOS>BOND
     1    1    2 1
     2    1   35 1
     3    1   36 1
     4    1   37 1
     5    2    3 1
     6    2   38 1
     7    2   39 1
     8    3    4 1
     9    3   40 1
    10    3   41 1
    11    4    5 1
    12    4   42 1
    13    4   43 1
    14    5   10 ar
    15    5    6 ar
    16    6    7 ar
    17    6   44 1
    18    7    8 ar
    19    7   45 1
    20    8    9 ar
    21    8   11 1
    22    9   10 ar
    23    9   46 1
    24   10   47 1
    25   11   12 am
    26   11   48 1
    27   12   13 2
    28   12   14 1
    29   14   15 1
    30   14   49 1
    31   14   50 1
    32   15   20 am
    33   15   16 1
    34   16   17 2
    35   16   51 1
    36   17   18 1
    37   17   52 1
    38   18   25 ar
    39   18   19 ar
    40   19   20 1
    41   19   22 ar
    42   20   21 2
    43   22   23 ar
    44   22   53 1
    45   23   24 ar
    46   23   54 1
    47   24   25 ar
    48   24   55 1
    49   25   26 1
    50   26   27 1
    51   27   28 1
    52   27   29 1
    53   27   30 1
    54   29   56 1
    55   29   57 1
    56   29   58 1
    57   30   31 2
    58   30   32 1
    59   32   33 1
    60   33   34 1
    61   33   59 1
    62   33   60 1
    63   34   61 1
    64   34   62 1
    65   34   63 1
@<TRIPOS>MOLECULE
ZINC02712287
   63    65     0     0     0
SMALL
USER_CHARGES
ethyl (2R)-2-[[2-[2-[(4-butylphenyl)amino]-2-oxo-ethyl]-1-oxo-5-isoquinolyl]oxy]propanoate
@<TRIPOS>ATOM
      1 C1        -10.7111    4.8189   -6.1065 C.3       1 <0>        -0.1540
      2 C2         -9.3917    5.5934   -6.1280 C.3       1 <0>        -0.1261
      3 C3         -8.5964    5.2812   -4.8588 C.3       1 <0>        -0.1137
      4 C4         -7.2770    6.0556   -4.8802 C.3       1 <0>        -0.0810
      5 C5         -6.4937    5.7481   -3.6300 C.ar      1 <0>        -0.0935
      6 C6         -5.6050    4.6888   -3.6158 C.ar      1 <0>        -0.0975
      7 C7         -4.8849    4.4049   -2.4719 C.ar      1 <0>        -0.1167
      8 C8         -5.0545    5.1844   -1.3351 C.ar      1 <0>         0.1395
      9 C9         -5.9520    6.2440   -1.3510 C.ar      1 <0>        -0.1405
     10 C10        -6.6648    6.5262   -2.4998 C.ar      1 <0>        -0.0976
     11 N1         -4.3268    4.8992   -0.1745 N.am      1 <0>        -0.6704
     12 C11        -3.0780    4.4009   -0.2675 C.2       1 <0>         0.4983
     13 O1         -2.5492    4.2884   -1.3532 O.2       1 <0>        -0.5011
     14 C12        -2.3387    3.9834    0.9776 C.3       1 <0>         0.0793
     15 N2         -1.0126    3.4793    0.6122 N.am      1 <0>        -0.5049
     16 C13        -0.8648    2.1489    0.3387 C.2       1 <0>         0.1049
     17 C14         0.3187    1.6111    0.0022 C.2       1 <0>        -0.1755
     18 C15         1.4995    2.4709   -0.0896 C.ar      1 <0>        -0.0158
     19 C16         1.3506    3.8488    0.1874 C.ar      1 <0>        -0.1126
     20 C17         0.0188    4.3448    0.5525 C.2       1 <0>         0.5553
     21 O2         -0.1525    5.5251    0.7993 O.2       1 <0>        -0.5204
     22 C18         2.4569    4.6946    0.1081 C.ar      1 <0>        -0.0797
     23 C19         3.6857    4.1786   -0.2397 C.ar      1 <0>        -0.0946
     24 C20         3.8376    2.8260   -0.5122 C.ar      1 <0>        -0.1780
     25 C21         2.7573    1.9668   -0.4413 C.ar      1 <0>         0.1243
     26 O3          2.9149    0.6442   -0.7097 O.3       1 <0>        -0.2815
     27 C22         4.2478    0.1833   -0.9401 C.3       1 <0>         0.0946
     28 H1          4.9381    0.7331   -0.3004 H         1 <0>         0.1132
     29 C23         4.6199    0.4114   -2.4066 C.3       1 <0>        -0.1772
     30 C24         4.3326   -1.2876   -0.6233 C.2       1 <0>         0.4668
     31 O4          3.3342   -1.9002   -0.3268 O.2       1 <0>        -0.4810
     32 O5          5.5171   -1.9171   -0.6705 O.3       1 <0>        -0.3527
     33 C25         5.5237   -3.3340   -0.3534 C.3       1 <0>         0.0629
     34 C26         6.9514   -3.8738   -0.4594 C.3       1 <0>        -0.1538
     35 H2        -11.2776    5.0413   -7.0108 H         1 <0>         0.0540
     36 H3        -10.5041    3.7497   -6.0612 H         1 <0>         0.0536
     37 H4        -11.2914    5.1141   -5.2323 H         1 <0>         0.0535
     38 H5         -9.5987    6.6626   -6.1733 H         1 <0>         0.0617
     39 H6         -8.8113    5.2982   -7.0022 H         1 <0>         0.0617
     40 H7         -8.3894    4.2120   -4.8134 H         1 <0>         0.0629
     41 H8         -9.1767    5.5763   -3.9846 H         1 <0>         0.0630
     42 H9         -7.4840    7.1248   -4.9255 H         1 <0>         0.0720
     43 H10        -6.6967    5.7605   -5.7544 H         1 <0>         0.0719
     44 H11        -5.4736    4.0829   -4.5001 H         1 <0>         0.1248
     45 H12        -4.1905    3.5779   -2.4616 H         1 <0>         0.1324
     46 H13        -6.0891    6.8496   -0.4673 H         1 <0>         0.1260
     47 H14        -7.3597    7.3529   -2.5141 H         1 <0>         0.1262
     48 H15        -4.7212    5.0601    0.6970 H         1 <0>         0.4127
     49 H16        -2.8983    3.1985    1.4864 H         1 <0>         0.1271
     50 H17        -2.2312    4.8414    1.6412 H         1 <0>         0.1312
     51 H18        -1.7304    1.5058    0.3993 H         1 <0>         0.1582
     52 H19         0.3977    0.5538   -0.2034 H         1 <0>         0.1549
     53 H20         2.3504    5.7487    0.3181 H         1 <0>         0.1408
     54 H21         4.5417    4.8344   -0.3008 H         1 <0>         0.1370
     55 H22         4.8097    2.4412   -0.7828 H         1 <0>         0.1379
     56 H23         3.9296   -0.1384   -3.0463 H         1 <0>         0.0772
     57 H24         4.5586    1.4753   -2.6357 H         1 <0>         0.0828
     58 H25         5.6366    0.0599   -2.5824 H         1 <0>         0.0900
     59 H26         5.1542   -3.4809    0.6615 H         1 <0>         0.0733
     60 H27         4.8810   -3.8663   -1.0546 H         1 <0>         0.0736
     61 H28         7.5941   -3.3415    0.2418 H         1 <0>         0.0683
     62 H29         6.9563   -4.9374   -0.2213 H         1 <0>         0.0834
     63 H30         7.3209   -3.7269   -1.4743 H         1 <0>         0.0685
@<TRIPOS>BOND
     1    1    2 1
     2    1   35 1
     3    1   36 1
     4    1   37 1
     5    2    3 1
     6    2   38 1
     7    2   39 1
     8    3    4 1
     9    3   40 1
    10    3   41 1
    11    4    5 1
    12    4   42 1
    13    4   43 1
    14    5   10 ar
    15    5    6 ar
    16    6    7 ar
    17    6   44 1
    18    7    8 ar
    19    7   45 1
    20    8    9 ar
    21    8   11 1
    22    9   10 ar
    23    9   46 1
    24   10   47 1
    25   11   12 am
    26   11   48 1
    27   12   13 2
    28   12   14 1
    29   14   15 1
    30   14   49 1
    31   14   50 1
    32   15   20 am
    33   15   16 1
    34   16   17 2
    35   16   51 1
    36   17   18 1
    37   17   52 1
    38   18   25 ar
    39   18   19 ar
    40   19   20 1
    41   19   22 ar
    42   20   21 2
    43   22   23 ar
    44   22   53 1
    45   23   24 ar
    46   23   54 1
    47   24   25 ar
    48   24   55 1
    49   25   26 1
    50   26   27 1
    51   27   28 1
    52   27   29 1
    53   27   30 1
    54   29   56 1
    55   29   57 1
    56   29   58 1
    57   30   31 2
    58   30   32 1
    59   32   33 1
    60   33   34 1
    61   33   59 1
    62   33   60 1
    63   34   61 1
    64   34   62 1
    65   34   63 1
@<TRIPOS>MOLECULE
ZINC02712270
   54    56     0     0     0
SMALL
USER_CHARGES
ethyl 2-[[1-oxo-2-(p-tolylcarbamoylmethyl)-5-isoquinolyl]oxy]propanoate
@<TRIPOS>ATOM
      1 C1         12.0985   11.4533    4.6273 C.3       1 <0>        -0.1538
      2 C2         10.7788   10.6810    4.5761 C.3       1 <0>         0.0630
      3 O1         10.7156    9.9116    3.3463 O.3       1 <0>        -0.3528
      4 C3          9.6133    9.1724    3.1458 C.2       1 <0>         0.4666
      5 O2          8.7304    9.1684    3.9707 O.2       1 <0>        -0.4810
      6 C4          9.4769    8.3476    1.8920 C.3       1 <0>         0.0945
      7 H1          9.6062    8.9883    1.0197 H         1 <0>         0.1133
      8 C5         10.5452    7.2524    1.8833 C.3       1 <0>        -0.1769
      9 O3          8.1801    7.7483    1.8548 O.3       1 <0>        -0.2815
     10 C6          7.6852    7.4243    0.6316 C.ar      1 <0>         0.1242
     11 C7          8.4693    7.5663   -0.4976 C.ar      1 <0>        -0.1780
     12 C8          7.9719    7.2377   -1.7512 C.ar      1 <0>        -0.0945
     13 C9          6.6868    6.7641   -1.8983 C.ar      1 <0>        -0.0797
     14 C10         5.8745    6.6119   -0.7747 C.ar      1 <0>        -0.1125
     15 C11         6.3761    6.9446    0.5041 C.ar      1 <0>        -0.0158
     16 C12         5.4978    6.7738    1.6621 C.2       1 <0>        -0.1753
     17 C13         4.2486    6.3152    1.4812 C.2       1 <0>         0.1045
     18 N1          3.7612    5.9871    0.2477 N.am      1 <0>        -0.5049
     19 C14         4.4984    6.1124   -0.8735 C.2       1 <0>         0.5553
     20 O4          4.0278    5.8139   -1.9565 O.2       1 <0>        -0.5205
     21 C15         2.3883    5.4875    0.1396 C.3       1 <0>         0.0794
     22 C16         2.3890    3.9856    0.2638 C.2       1 <0>         0.4983
     23 O5          3.4336    3.3911    0.4266 O.2       1 <0>        -0.5013
     24 N2          1.2289    3.3031    0.1939 N.am      1 <0>        -0.6703
     25 C17         1.2157    1.9214    0.4144 C.ar      1 <0>         0.1378
     26 C18         2.1037    1.3525    1.3180 C.ar      1 <0>        -0.1155
     27 C19         2.0878   -0.0116    1.5337 C.ar      1 <0>        -0.1013
     28 C20         1.1887   -0.8106    0.8515 C.ar      1 <0>        -0.0991
     29 C21         0.3036   -0.2472   -0.0492 C.ar      1 <0>        -0.1013
     30 C22         0.3150    1.1161   -0.2702 C.ar      1 <0>        -0.1393
     31 C23         1.1738   -2.2986    1.0897 C.3       1 <0>        -0.1147
     32 H2         12.1460   12.0309    5.5505 H         1 <0>         0.0834
     33 H3         12.9318   10.7514    4.5946 H         1 <0>         0.0685
     34 H4         12.1581   12.1280    3.7732 H         1 <0>         0.0683
     35 H5          9.9455   11.3829    4.6088 H         1 <0>         0.0733
     36 H6         10.7193   10.0063    5.4301 H         1 <0>         0.0736
     37 H7         10.4465    6.6558    0.9764 H         1 <0>         0.0828
     38 H8         11.5343    7.7095    1.9116 H         1 <0>         0.0900
     39 H9         10.4159    6.6117    2.7555 H         1 <0>         0.0772
     40 H10         9.4796    7.9363   -0.4036 H         1 <0>         0.1379
     41 H11         8.6000    7.3551   -2.6218 H         1 <0>         0.1370
     42 H12         6.3103    6.5116   -2.8786 H         1 <0>         0.1408
     43 H13         5.8496    7.0190    2.6534 H         1 <0>         0.1550
     44 H14         3.6077    6.1971    2.3424 H         1 <0>         0.1584
     45 H15         1.9733    5.7719   -0.8274 H         1 <0>         0.1311
     46 H16         1.7813    5.9177    0.9362 H         1 <0>         0.1271
     47 H17         0.4032    3.7698   -0.0093 H         1 <0>         0.4128
     48 H18         2.8029    1.9765    1.8547 H         1 <0>         0.1327
     49 H19         2.7781   -0.4547    2.2362 H         1 <0>         0.1257
     50 H20        -0.3972   -0.8739   -0.5808 H         1 <0>         0.1270
     51 H21        -0.3766    1.5555   -0.9737 H         1 <0>         0.1265
     52 H22         0.4843   -2.5297    1.9016 H         1 <0>         0.0707
     53 H23         0.8506   -2.8086    0.1822 H         1 <0>         0.0665
     54 H24         2.1758   -2.6337    1.3575 H         1 <0>         0.0665
@<TRIPOS>BOND
     1    1    2 1
     2    1   32 1
     3    1   33 1
     4    1   34 1
     5    2    3 1
     6    2   35 1
     7    2   36 1
     8    3    4 1
     9    4    5 2
    10    4    6 1
    11    6    7 1
    12    6    8 1
    13    6    9 1
    14    8   37 1
    15    8   38 1
    16    8   39 1
    17    9   10 1
    18   10   15 ar
    19   10   11 ar
    20   11   12 ar
    21   11   40 1
    22   12   13 ar
    23   12   41 1
    24   13   14 ar
    25   13   42 1
    26   14   19 1
    27   14   15 ar
    28   15   16 1
    29   16   17 2
    30   16   43 1
    31   17   18 1
    32   17   44 1
    33   18   19 am
    34   18   21 1
    35   19   20 2
    36   21   22 1
    37   21   45 1
    38   21   46 1
    39   22   23 2
    40   22   24 am
    41   24   25 1
    42   24   47 1
    43   25   30 ar
    44   25   26 ar
    45   26   27 ar
    46   26   48 1
    47   27   28 ar
    48   27   49 1
    49   28   29 ar
    50   28   31 1
    51   29   30 ar
    52   29   50 1
    53   30   51 1
    54   31   52 1
    55   31   53 1
    56   31   54 1
@<TRIPOS>MOLECULE
ZINC02712271
   54    56     0     0     0
SMALL
USER_CHARGES
ethyl 2-[[1-oxo-2-(p-tolylcarbamoylmethyl)-5-isoquinolyl]oxy]propanoate
@<TRIPOS>ATOM
      1 C1         -1.8661    8.6091   -1.6775 C.3       1 <0>        -0.1536
      2 C2         -0.5788    7.7823   -1.6922 C.3       1 <0>         0.0628
      3 O1         -0.8077    6.5182   -1.0155 O.3       1 <0>        -0.3525
      4 C3          0.2302    5.6703   -0.9407 C.2       1 <0>         0.4665
      5 O2          1.2947    5.9743   -1.4247 O.2       1 <0>        -0.4807
      6 C4          0.0677    4.3392   -0.2531 C.3       1 <0>         0.0926
      7 H1         -0.7079    3.7623   -0.7570 H         1 <0>         0.1145
      8 C5         -0.3314    4.5645    1.2066 C.3       1 <0>        -0.1745
      9 O3          1.3031    3.6228   -0.3041 O.3       1 <0>        -0.2814
     10 C6          1.2358    2.2693   -0.2055 C.ar      1 <0>         0.1256
     11 C7          0.0093    1.6341   -0.1555 C.ar      1 <0>        -0.1791
     12 C8         -0.0689    0.2518   -0.0552 C.ar      1 <0>        -0.0936
     13 C9          1.0726   -0.5174   -0.0034 C.ar      1 <0>        -0.0803
     14 C10         2.3229    0.0989   -0.0522 C.ar      1 <0>        -0.1119
     15 C11         2.4083    1.5059   -0.1543 C.ar      1 <0>        -0.0162
     16 C12         3.7355    2.1207   -0.2041 C.2       1 <0>        -0.1754
     17 C13         4.8268    1.3400   -0.1517 C.2       1 <0>         0.1048
     18 N1          4.7493   -0.0204   -0.0527 N.am      1 <0>        -0.5049
     19 C14         3.5705   -0.6717   -0.0012 C.2       1 <0>         0.5553
     20 O4          3.5411   -1.8861    0.0871 O.2       1 <0>        -0.5202
     21 C15         5.9899   -0.7979   -0.0011 C.3       1 <0>         0.0799
     22 C16         6.4100   -1.1669   -1.4005 C.2       1 <0>         0.4982
     23 O5          5.7391   -0.8151   -2.3477 O.2       1 <0>        -0.5023
     24 N2          7.5312   -1.8879   -1.5995 N.am      1 <0>        -0.6698
     25 C17         7.8744   -2.3057   -2.8901 C.ar      1 <0>         0.1346
     26 C18         8.4955   -3.5328   -3.0821 C.ar      1 <0>        -0.1379
     27 C19         8.8292   -3.9442   -4.3576 C.ar      1 <0>        -0.1027
     28 C20         8.5546   -3.1311   -5.4419 C.ar      1 <0>        -0.0980
     29 C21         7.9406   -1.9065   -5.2536 C.ar      1 <0>        -0.1032
     30 C22         7.6000   -1.4915   -3.9811 C.ar      1 <0>        -0.1148
     31 C23         8.9248   -3.5809   -6.8318 C.3       1 <0>        -0.1148
     32 H2         -1.6942    9.5580   -2.1855 H         1 <0>         0.0833
     33 H3         -2.6562    8.0604   -2.1901 H         1 <0>         0.0683
     34 H4         -2.1650    8.7978   -0.6464 H         1 <0>         0.0685
     35 H5          0.2113    8.3310   -1.1795 H         1 <0>         0.0736
     36 H6         -0.2799    7.5936   -2.7233 H         1 <0>         0.0733
     37 H7         -1.2738    5.1109    1.2454 H         1 <0>         0.0903
     38 H8         -0.4489    3.6017    1.7039 H         1 <0>         0.0812
     39 H9          0.4441    5.1414    1.7104 H         1 <0>         0.0762
     40 H10        -0.8976    2.2189   -0.1993 H         1 <0>         0.1374
     41 H11        -1.0365   -0.2264   -0.0177 H         1 <0>         0.1370
     42 H12         0.9998   -1.5921    0.0749 H         1 <0>         0.1408
     43 H13         3.8363    3.1931   -0.2827 H         1 <0>         0.1546
     44 H14         5.8012    1.8044   -0.1889 H         1 <0>         0.1583
     45 H15         6.7728   -0.2021    0.4681 H         1 <0>         0.1263
     46 H16         5.8261   -1.7053    0.5803 H         1 <0>         0.1319
     47 H17         8.1001   -2.1171   -0.8481 H         1 <0>         0.4126
     48 H18         8.7139   -4.1665   -2.2352 H         1 <0>         0.1264
     49 H19         9.3088   -4.9001   -4.5079 H         1 <0>         0.1269
     50 H20         7.7274   -1.2738   -6.1025 H         1 <0>         0.1255
     51 H21         7.1205   -0.5349   -3.8347 H         1 <0>         0.1371
     52 H22         9.9344   -3.2434   -7.0660 H         1 <0>         0.0707
     53 H23         8.8839   -4.6688   -6.8846 H         1 <0>         0.0665
     54 H24         8.2237   -3.1557   -7.5500 H         1 <0>         0.0664
@<TRIPOS>BOND
     1    1    2 1
     2    1   32 1
     3    1   33 1
     4    1   34 1
     5    2    3 1
     6    2   35 1
     7    2   36 1
     8    3    4 1
     9    4    5 2
    10    4    6 1
    11    6    7 1
    12    6    8 1
    13    6    9 1
    14    8   37 1
    15    8   38 1
    16    8   39 1
    17    9   10 1
    18   10   15 ar
    19   10   11 ar
    20   11   12 ar
    21   11   40 1
    22   12   13 ar
    23   12   41 1
    24   13   14 ar
    25   13   42 1
    26   14   19 1
    27   14   15 ar
    28   15   16 1
    29   16   17 2
    30   16   43 1
    31   17   18 1
    32   17   44 1
    33   18   19 am
    34   18   21 1
    35   19   20 2
    36   21   22 1
    37   21   45 1
    38   21   46 1
    39   22   23 2
    40   22   24 am
    41   24   25 1
    42   24   47 1
    43   25   30 ar
    44   25   26 ar
    45   26   27 ar
    46   26   48 1
    47   27   28 ar
    48   27   49 1
    49   28   29 ar
    50   28   31 1
    51   29   30 ar
    52   29   50 1
    53   30   51 1
    54   31   52 1
    55   31   53 1
    56   31   54 1
@<TRIPOS>MOLECULE
ZINC02712357
   57    59     0     0     0
SMALL
USER_CHARGES

@<TRIPOS>ATOM
      1 C1         -0.0077    1.4802   -0.5375 C.3       1 <0>        -0.1527
      2 C2         -0.0102   -0.0497   -0.5323 C.3       1 <0>         0.0605
      3 O1         -1.3347   -0.5231   -0.2798 O.3       1 <0>        -0.3474
      4 C3         -1.5096   -1.8534   -0.2425 C.2       1 <0>         0.4656
      5 O2         -0.5694   -2.5915   -0.4184 O.2       1 <0>        -0.4790
      6 C4         -2.8788   -2.4263    0.0188 C.3       1 <0>         0.0949
      7 H1         -3.2726   -2.0166    0.9489 H         1 <0>         0.1134
      8 C5         -3.8136   -2.0603   -1.1358 C.3       1 <0>        -0.1764
      9 O3         -2.7877   -3.8484    0.1254 O.3       1 <0>        -0.2815
     10 C6         -3.7543   -4.4761    0.8451 C.ar      1 <0>         0.1236
     11 C7         -4.8280   -3.7618    1.3422 C.ar      1 <0>        -0.1782
     12 C8         -5.8198   -4.3948    2.0788 C.ar      1 <0>        -0.0954
     13 C9         -5.7566   -5.7475    2.3308 C.ar      1 <0>        -0.0796
     14 C10        -4.6837   -6.4916    1.8400 C.ar      1 <0>        -0.1131
     15 C11        -3.6741   -5.8532    1.0845 C.ar      1 <0>        -0.0148
     16 C12        -2.5651   -6.6638    0.5798 C.2       1 <0>        -0.1784
     17 C13        -2.5386   -7.9810    0.8399 C.2       1 <0>         0.1075
     18 N1         -3.5152   -8.6036    1.5645 N.am      1 <0>        -0.5043
     19 C14        -4.5664   -7.9346    2.0785 C.2       1 <0>         0.5554
     20 O4         -5.4171   -8.5239    2.7206 O.2       1 <0>        -0.5215
     21 C15        -3.4094  -10.0452    1.8024 C.3       1 <0>         0.0775
     22 C16        -2.6463  -10.2891    3.0788 C.2       1 <0>         0.4981
     23 O5         -2.2316   -9.3510    3.7260 O.2       1 <0>        -0.5210
     24 N2         -2.4245  -11.5496    3.5010 N.am      1 <0>        -0.7285
     25 C17        -1.6827  -11.7867    4.7418 C.3       1 <0>         0.1253
     26 C18        -1.5721  -13.2923    4.9903 C.3       1 <0>        -0.0907
     27 C19        -0.8090  -13.5362    6.2667 C.ar      1 <0>        -0.0857
     28 C20         0.5666  -13.6691    6.2349 C.ar      1 <0>        -0.1138
     29 C21         1.2666  -13.8928    7.4057 C.ar      1 <0>        -0.1182
     30 C22         0.5911  -13.9831    8.6084 C.ar      1 <0>        -0.1201
     31 C23        -0.7843  -13.8493    8.6403 C.ar      1 <0>        -0.1178
     32 C24        -1.4839  -13.6213    7.4700 C.ar      1 <0>        -0.1135
     33 H2          1.0026    1.8413   -0.7301 H         1 <0>         0.0826
     34 H3         -0.6776    1.8420   -1.3175 H         1 <0>         0.0682
     35 H4         -0.3462    1.8474    0.4314 H         1 <0>         0.0681
     36 H5          0.3284   -0.4169   -1.5011 H         1 <0>         0.0709
     37 H6          0.6598   -0.4115    0.2477 H         1 <0>         0.0706
     38 H7         -3.8831   -0.9755   -1.2172 H         1 <0>         0.0899
     39 H8         -3.4198   -2.4699   -2.0660 H         1 <0>         0.0770
     40 H9         -4.8039   -2.4746   -0.9469 H         1 <0>         0.0829
     41 H10        -4.8959   -2.7002    1.1559 H         1 <0>         0.1376
     42 H11        -6.6509   -3.8196    2.4592 H         1 <0>         0.1367
     43 H12        -6.5336   -6.2295    2.9056 H         1 <0>         0.1407
     44 H13        -1.7749   -6.2066    0.0028 H         1 <0>         0.1545
     45 H14        -1.7156   -8.5696    0.4622 H         1 <0>         0.1578
     46 H15        -4.4080  -10.4735    1.8886 H         1 <0>         0.1286
     47 H16        -2.8840  -10.5132    0.9699 H         1 <0>         0.1232
     48 H17        -2.7562  -12.2999    2.9833 H         1 <0>         0.4029
     49 H18        -0.6840  -11.3584    4.6556 H         1 <0>         0.0712
     50 H19        -2.2080  -11.3187    5.5744 H         1 <0>         0.0708
     51 H20        -2.5707  -13.7206    5.0765 H         1 <0>         0.0811
     52 H21        -1.0467  -13.7603    4.1578 H         1 <0>         0.0809
     53 H22         1.0944  -13.5985    5.2952 H         1 <0>         0.1221
     54 H23         2.3413  -13.9973    7.3807 H         1 <0>         0.1232
     55 H24         1.1380  -14.1585    9.5230 H         1 <0>         0.1226
     56 H25        -1.3121  -13.9202    9.5799 H         1 <0>         0.1233
     57 H26        -2.5582  -13.5131    7.4954 H         1 <0>         0.1224
@<TRIPOS>BOND
     1    1    2 1
     2    1   33 1
     3    1   34 1
     4    1   35 1
     5    2    3 1
     6    2   36 1
     7    2   37 1
     8    3    4 1
     9    4    5 2
    10    4    6 1
    11    6    7 1
    12    6    8 1
    13    6    9 1
    14    8   38 1
    15    8   39 1
    16    8   40 1
    17    9   10 1
    18   10   15 ar
    19   10   11 ar
    20   11   12 ar
    21   11   41 1
    22   12   13 ar
    23   12   42 1
    24   13   14 ar
    25   13   43 1
    26   14   19 1
    27   14   15 ar
    28   15   16 1
    29   16   17 2
    30   16   44 1
    31   17   18 1
    32   17   45 1
    33   18   19 am
    34   18   21 1
    35   19   20 2
    36   21   22 1
    37   21   46 1
    38   21   47 1
    39   22   23 2
    40   22   24 am
    41   24   25 1
    42   24   48 1
    43   25   26 1
    44   25   49 1
    45   25   50 1
    46   26   27 1
    47   26   51 1
    48   26   52 1
    49   27   32 ar
    50   27   28 ar
    51   28   29 ar
    52   28   53 1
    53   29   30 ar
    54   29   54 1
    55   30   31 ar
    56   30   55 1
    57   31   32 ar
    58   31   56 1
    59   32   57 1
@<TRIPOS>MOLECULE
ZINC02712358
   57    59     0     0     0
SMALL
USER_CHARGES

@<TRIPOS>ATOM
      1 C1          0.3759    1.2891   -0.5076 C.3       1 <0>        -0.1528
      2 C2          0.2768   -0.2225   -0.2925 C.3       1 <0>         0.0605
      3 O1         -1.0947   -0.6210   -0.3374 O.3       1 <0>        -0.3472
      4 C3         -1.3559   -1.9263   -0.1649 C.2       1 <0>         0.4658
      5 O2         -0.4501   -2.7047    0.0181 O.2       1 <0>        -0.4794
      6 C4         -2.7790   -2.4210   -0.1995 C.3       1 <0>         0.0951
      7 H1         -3.2483   -2.1124   -1.1336 H         1 <0>         0.1135
      8 C5         -3.5534   -1.8295    0.9800 C.3       1 <0>        -0.1770
      9 O3         -2.7899   -3.8471   -0.1094 O.3       1 <0>        -0.2815
     10 C6         -3.8673   -4.4899   -0.6312 C.ar      1 <0>         0.1236
     11 C7         -4.9428   -3.7687   -1.1144 C.ar      1 <0>        -0.1782
     12 C8         -6.0478   -4.4170   -1.6487 C.ar      1 <0>        -0.0954
     13 C9         -6.0977   -5.7922   -1.7095 C.ar      1 <0>        -0.0795
     14 C10        -5.0252   -6.5436   -1.2290 C.ar      1 <0>        -0.1131
     15 C11        -3.8952   -5.8884   -0.6892 C.ar      1 <0>        -0.0148
     16 C12        -2.7850   -6.7062   -0.1988 C.2       1 <0>        -0.1783
     17 C13        -2.8653   -8.0443   -0.2788 C.2       1 <0>         0.1074
     18 N1         -3.9530   -8.6819   -0.8053 N.am      1 <0>        -0.5043
     19 C14        -5.0255   -8.0103   -1.2692 C.2       1 <0>         0.5554
     20 O4         -5.9777   -8.6136   -1.7304 O.2       1 <0>        -0.5216
     21 C15        -3.9593  -10.1461   -0.8549 C.3       1 <0>         0.0774
     22 C16        -4.5606  -10.6892    0.4157 C.2       1 <0>         0.4983
     23 O5         -4.9459   -9.9282    1.2779 O.2       1 <0>        -0.5211
     24 N2         -4.6701  -12.0206    0.5940 N.am      1 <0>        -0.7286
     25 C17        -5.2547  -12.5486    1.8292 C.3       1 <0>         0.1254
     26 C18        -5.2613  -14.0777    1.7773 C.3       1 <0>        -0.0908
     27 C19        -5.8625  -14.6209    3.0479 C.ar      1 <0>        -0.0857
     28 C20        -5.0536  -14.8865    4.1369 C.ar      1 <0>        -0.1138
     29 C21        -5.6051  -15.3847    5.3025 C.ar      1 <0>        -0.1182
     30 C22        -6.9657  -15.6169    5.3791 C.ar      1 <0>        -0.1201
     31 C23        -7.7748  -15.3505    4.2904 C.ar      1 <0>        -0.1178
     32 C24        -7.2238  -14.8482    3.1263 C.ar      1 <0>        -0.1135
     33 H2          1.4221    1.5931   -0.4733 H         1 <0>         0.0826
     34 H3         -0.0456    1.5462   -1.4793 H         1 <0>         0.0681
     35 H4         -0.1781    1.8048    0.2768 H         1 <0>         0.0683
     36 H5          0.8309   -0.7381   -1.0768 H         1 <0>         0.0706
     37 H6          0.6983   -0.4796    0.6793 H         1 <0>         0.0709
     38 H7         -4.5827   -2.1872    0.9550 H         1 <0>         0.0830
     39 H8         -3.0841   -2.1381    1.9142 H         1 <0>         0.0772
     40 H9         -3.5451   -0.7417    0.9113 H         1 <0>         0.0899
     41 H10        -4.9233   -2.6896   -1.0755 H         1 <0>         0.1376
     42 H11        -6.8787   -3.8361   -2.0210 H         1 <0>         0.1368
     43 H12        -6.9628   -6.2861   -2.1267 H         1 <0>         0.1407
     44 H13        -1.9085   -6.2376    0.2236 H         1 <0>         0.1545
     45 H14        -2.0401   -8.6380    0.0858 H         1 <0>         0.1579
     46 H15        -4.5512  -10.4781   -1.7079 H         1 <0>         0.1286
     47 H16        -2.9372  -10.5105   -0.9580 H         1 <0>         0.1232
     48 H17        -4.3620  -12.6293   -0.0956 H         1 <0>         0.4029
     49 H18        -4.6628  -12.2166    2.6821 H         1 <0>         0.0712
     50 H19        -6.2767  -12.1842    1.9322 H         1 <0>         0.0709
     51 H20        -5.8531  -14.4098    0.9243 H         1 <0>         0.0811
     52 H21        -4.2392  -14.4422    1.6742 H         1 <0>         0.0808
     53 H22        -3.9906  -14.7051    4.0770 H         1 <0>         0.1221
     54 H23        -4.9730  -15.5929    6.1531 H         1 <0>         0.1232
     55 H24        -7.3965  -16.0068    6.2895 H         1 <0>         0.1225
     56 H25        -8.8377  -15.5322    4.3502 H         1 <0>         0.1233
     57 H26        -7.8564  -14.6365    2.2770 H         1 <0>         0.1224
@<TRIPOS>BOND
     1    1    2 1
     2    1   33 1
     3    1   34 1
     4    1   35 1
     5    2    3 1
     6    2   36 1
     7    2   37 1
     8    3    4 1
     9    4    5 2
    10    4    6 1
    11    6    7 1
    12    6    8 1
    13    6    9 1
    14    8   38 1
    15    8   39 1
    16    8   40 1
    17    9   10 1
    18   10   15 ar
    19   10   11 ar
    20   11   12 ar
    21   11   41 1
    22   12   13 ar
    23   12   42 1
    24   13   14 ar
    25   13   43 1
    26   14   19 1
    27   14   15 ar
    28   15   16 1
    29   16   17 2
    30   16   44 1
    31   17   18 1
    32   17   45 1
    33   18   19 am
    34   18   21 1
    35   19   20 2
    36   21   22 1
    37   21   46 1
    38   21   47 1
    39   22   23 2
    40   22   24 am
    41   24   25 1
    42   24   48 1
    43   25   26 1
    44   25   49 1
    45   25   50 1
    46   26   27 1
    47   26   51 1
    48   26   52 1
    49   27   32 ar
    50   27   28 ar
    51   28   29 ar
    52   28   53 1
    53   29   30 ar
    54   29   54 1
    55   30   31 ar
    56   30   55 1
    57   31   32 ar
    58   31   56 1
    59   32   57 1
