@<TRIPOS>MOLECULE
ZINC01612328
   45    46     0     0     0
SMALL
USER_CHARGES
2-methoxy-5-[2-(3,4,5-trimethoxyphenyl)ethyl]phenol
@<TRIPOS>ATOM
      1 C1          1.1565   11.2326   -5.1787 C.3       1 <0>         0.0246
      2 O1          1.3040    9.8309   -5.4141 O.3       1 <0>        -0.3085
      3 C2          0.7851    8.9899   -4.4797 C.ar      1 <0>         0.0999
      4 C3          0.1476    9.5029   -3.3615 C.ar      1 <0>        -0.1925
      5 C4         -0.3847    8.6466   -2.4157 C.ar      1 <0>        -0.0832
      6 C5         -0.2728    7.2781   -2.5769 C.ar      1 <0>        -0.1042
      7 C6          0.3619    6.7598   -3.6902 C.ar      1 <0>        -0.1025
      8 C7          0.8927    7.6124   -4.6448 C.ar      1 <0>         0.0768
      9 O2          1.5178    7.1041   -5.7404 O.3       1 <0>        -0.4866
     10 C8         -0.8495    6.3493   -1.5397 C.3       1 <0>        -0.0692
     11 C9          0.2110    6.0479   -0.4789 C.3       1 <0>        -0.0772
     12 C10        -0.3657    5.1191    0.5583 C.ar      1 <0>        -0.0064
     13 C11        -0.9998    5.6377    1.6717 C.ar      1 <0>        -0.2310
     14 C12        -1.5314    4.7865    2.6286 C.ar      1 <0>         0.1522
     15 C13        -1.4309    3.4101    2.4642 C.ar      1 <0>         0.0227
     16 C14        -0.7875    2.8927    1.3463 C.ar      1 <0>         0.1527
     17 C15        -0.2586    3.7508    0.3940 C.ar      1 <0>        -0.2308
     18 O3         -0.6816    1.5467    1.1837 O.3       1 <0>        -0.3026
     19 C16        -0.0127    1.0858    0.0080 C.3       1 <0>         0.0244
     20 O4         -1.9566    2.5712    3.3981 O.3       1 <0>        -0.3128
     21 C17        -1.1017    2.1816    4.4748 C.3       1 <0>         0.0351
     22 O5         -2.1556    5.2977    3.7234 O.3       1 <0>        -0.3026
     23 C18        -2.2275    6.7214    3.8234 C.3       1 <0>         0.0246
     24 H1          1.6468   11.4973   -4.2419 H         1 <0>         0.0563
     25 H2          1.6131   11.7886   -5.9975 H         1 <0>         0.1023
     26 H3          0.0970   11.4811   -5.1172 H         1 <0>         0.0559
     27 H4          0.0624   10.5716   -3.2311 H         1 <0>         0.1331
     28 H5         -0.8855    9.0476   -1.5469 H         1 <0>         0.1281
     29 H6          0.4437    5.6902   -3.8162 H         1 <0>         0.1357
     30 H7          0.9296    6.9489   -6.4922 H         1 <0>         0.3875
     31 H8         -1.1604    5.4199   -2.0169 H         1 <0>         0.0763
     32 H9         -1.7113    6.8215   -1.0680 H         1 <0>         0.0768
     33 H10         0.5219    6.9773   -0.0016 H         1 <0>         0.0782
     34 H11         1.0728    5.5757   -0.9505 H         1 <0>         0.0787
     35 H12        -1.0811    6.7074    1.7966 H         1 <0>         0.1350
     36 H13         0.2374    3.3495   -0.4774 H         1 <0>         0.1354
     37 H14         0.0021   -0.0041    0.0020 H         1 <0>         0.1034
     38 H15         1.0099    1.4631    0.0003 H         1 <0>         0.0574
     39 H16        -0.5399    1.4469   -0.8751 H         1 <0>         0.0584
     40 H17        -1.6431    1.5144    5.1455 H         1 <0>         0.0926
     41 H18        -0.2279    1.6658    4.0766 H         1 <0>         0.0438
     42 H19        -0.7819    3.0674    5.0237 H         1 <0>         0.0437
     43 H20        -2.7488    6.9953    4.7407 H         1 <0>         0.1032
     44 H21        -1.2195    7.1358    3.8408 H         1 <0>         0.0571
     45 H22        -2.7691    7.1191    2.9651 H         1 <0>         0.0582
@<TRIPOS>BOND
     1    1    2 1
     2    1   24 1
     3    1   25 1
     4    1   26 1
     5    2    3 1
     6    3    8 ar
     7    3    4 ar
     8    4    5 ar
     9    4   27 1
    10    5    6 ar
    11    5   28 1
    12    6    7 ar
    13    6   10 1
    14    7    8 ar
    15    7   29 1
    16    8    9 1
    17    9   30 1
    18   10   11 1
    19   10   31 1
    20   10   32 1
    21   11   12 1
    22   11   33 1
    23   11   34 1
    24   12   17 ar
    25   12   13 ar
    26   13   14 ar
    27   13   35 1
    28   14   15 ar
    29   14   22 1
    30   15   16 ar
    31   15   20 1
    32   16   17 ar
    33   16   18 1
    34   17   36 1
    35   18   19 1
    36   19   37 1
    37   19   38 1
    38   19   39 1
    39   20   21 1
    40   21   40 1
    41   21   41 1
    42   21   42 1
    43   22   23 1
    44   23   43 1
    45   23   44 1
    46   23   45 1
@<TRIPOS>MOLECULE
ZINC00621853
   54    56     0     0     0
SMALL
USER_CHARGES

@<TRIPOS>ATOM
      1 C1         -0.0284    1.4293   -0.4778 C.3       1 <0>        -0.1767
      2 C2         -0.0129   -0.0745   -0.3804 C.2       1 <0>         0.5133
      3 O1          1.0419   -0.6727   -0.4014 O.2       1 <0>        -0.5352
      4 N1         -1.1713   -0.7546   -0.2699 N.am      1 <0>        -0.7311
      5 C3         -1.1562   -2.2164   -0.1752 C.3       1 <0>         0.1688
      6 H1         -0.2762   -2.5266    0.3883 H         1 <0>         0.1083
      7 C4         -2.3999   -2.6766    0.5586 C.3       1 <0>        -0.1167
      8 C5         -2.6213   -4.1756    0.3776 C.3       1 <0>        -0.0793
      9 C6         -1.3153   -4.9067    0.5534 C.ar      1 <0>        -0.0232
     10 C7         -1.0582   -5.5960    1.7202 C.ar      1 <0>        -0.1967
     11 C8          0.1423   -6.2778    1.8745 C.ar      1 <0>         0.1328
     12 C9          1.0898   -6.2717    0.8565 C.ar      1 <0>         0.0421
     13 C10         0.8389   -5.5766   -0.3193 C.ar      1 <0>         0.1373
     14 C11        -0.3691   -4.8877   -0.4655 C.ar      1 <0>        -0.0983
     15 C12        -0.6334   -4.1159   -1.7162 C.2       1 <0>        -0.0547
     16 C13        -1.0800   -2.8009   -1.5711 C.2       1 <0>         0.0265
     17 C14        -1.4567   -1.9931   -2.5770 C.2       1 <0>        -0.2146
     18 C15        -1.4974   -2.1542   -3.9332 C.2       1 <0>         0.3926
     19 O2         -1.9764   -1.2222   -4.5653 O.2       1 <0>        -0.4893
     20 C16        -1.0654   -3.2383   -4.6895 C.2       1 <0>         0.1028
     21 C17        -0.5761   -4.4044   -4.1889 C.2       1 <0>        -0.1927
     22 C18        -0.4083   -4.7668   -2.9017 C.2       1 <0>        -0.0172
     23 O3         -1.1385   -3.1234   -6.0380 O.3       1 <0>        -0.2828
     24 C19        -0.6931   -4.2409   -6.8094 C.3       1 <0>         0.0136
     25 O4          1.7595   -5.5657   -1.3188 O.3       1 <0>        -0.3263
     26 C20         2.8002   -4.5904   -1.2317 C.3       1 <0>         0.0375
     27 O5          2.2617   -6.9458    1.0126 O.3       1 <0>        -0.3181
     28 C21         2.2856   -8.3114    0.5923 C.3       1 <0>         0.0378
     29 O6          0.3920   -6.9547    3.0264 O.3       1 <0>        -0.3018
     30 C22        -0.6230   -6.9211    4.0317 C.3       1 <0>         0.0227
     31 H2          0.9938    1.7986   -0.5602 H         1 <0>         0.0946
     32 H3         -0.5957    1.7305   -1.3585 H         1 <0>         0.0918
     33 H4         -0.4946    1.8464    0.4148 H         1 <0>         0.0904
     34 H5         -2.0149   -0.2761   -0.2531 H         1 <0>         0.4055
     35 H6         -2.2905   -2.4569    1.6206 H         1 <0>         0.0846
     36 H7         -3.2642   -2.1380    0.1701 H         1 <0>         0.0835
     37 H8         -3.3373   -4.5286    1.1197 H         1 <0>         0.0890
     38 H9         -3.0121   -4.3664   -0.6219 H         1 <0>         0.0850
     39 H10        -1.7902   -5.6054    2.5142 H         1 <0>         0.1419
     40 H11        -1.7954   -1.0220   -2.2473 H         1 <0>         0.1371
     41 H12        -0.2789   -5.1392   -4.9226 H         1 <0>         0.1361
     42 H13        -0.0246   -5.7689   -2.7793 H         1 <0>         0.1273
     43 H14        -1.2900   -5.1174   -6.5574 H         1 <0>         0.0642
     44 H15        -0.8052   -4.0177   -7.8704 H         1 <0>         0.1099
     45 H16         0.3557   -4.4397   -6.5888 H         1 <0>         0.0642
     46 H17         3.4194   -4.7966   -0.3586 H         1 <0>         0.0551
     47 H18         3.4145   -4.6331   -2.1311 H         1 <0>         0.0957
     48 H19         2.3606   -3.5973   -1.1389 H         1 <0>         0.0532
     49 H20         1.9730   -8.3763   -0.4499 H         1 <0>         0.0481
     50 H21         3.2970   -8.7050    0.6934 H         1 <0>         0.0941
     51 H22         1.6051   -8.8945    1.2127 H         1 <0>         0.0461
     52 H23        -1.5429   -7.3495    3.6338 H         1 <0>         0.0583
     53 H24        -0.2973   -7.4993    4.8964 H         1 <0>         0.1043
     54 H25        -0.8031   -5.8888    4.3318 H         1 <0>         0.0588
@<TRIPOS>BOND
     1    1    2 1
     2    1   31 1
     3    1   32 1
     4    1   33 1
     5    2    3 2
     6    2    4 am
     7    4    5 1
     8    4   34 1
     9    5    6 1
    10    5   16 1
    11    5    7 1
    12    7    8 1
    13    7   35 1
    14    7   36 1
    15    8    9 1
    16    8   37 1
    17    8   38 1
    18    9   14 ar
    19    9   10 ar
    20   10   11 ar
    21   10   39 1
    22   11   12 ar
    23   11   29 1
    24   12   13 ar
    25   12   27 1
    26   13   14 ar
    27   13   25 1
    28   14   15 1
    29   15   22 2
    30   15   16 1
    31   16   17 2
    32   17   18 1
    33   17   40 1
    34   18   19 2
    35   18   20 1
    36   20   21 2
    37   20   23 1
    38   21   22 1
    39   21   41 1
    40   22   42 1
    41   23   24 1
    42   24   43 1
    43   24   44 1
    44   24   45 1
    45   25   26 1
    46   26   46 1
    47   26   47 1
    48   26   48 1
    49   27   28 1
    50   28   49 1
    51   28   50 1
    52   28   51 1
    53   29   30 1
    54   30   52 1
    55   30   53 1
    56   30   54 1
@<TRIPOS>MOLECULE
ZINC03675784
   32    34     0     0     0
SMALL
USER_CHARGES
2-(4-methoxyphenyl)-1H-indole-3-carbaldehyde
@<TRIPOS>ATOM
      1 C1          5.5181    9.3420    0.8956 C.3       1 <0>         0.0243
      2 O1          5.9204    8.3157   -0.0137 O.3       1 <0>        -0.3142
      3 C2          5.1920    7.1700   -0.0114 C.ar      1 <0>         0.1521
      4 C3          5.5304    6.1322   -0.8717 C.ar      1 <0>        -0.1613
      5 C4          4.7938    4.9686   -0.8736 C.ar      1 <0>        -0.0545
      6 C5          3.7043    4.8320   -0.0079 C.ar      1 <0>        -0.1096
      7 C6          3.3646    5.8806    0.8525 C.ar      1 <0>         0.0065
      8 C7          4.1099    7.0387    0.8508 C.ar      1 <0>        -0.2155
      9 C8          2.9126    3.5888   -0.0065 C.2       1 <0>         0.2397
     10 C9          1.5202    3.5166    0.0072 C.2       1 <0>        -0.2857
     11 C10         1.1839    2.0803    0.0019 C.ar      1 <0>        -0.0626
     12 C11        -0.0166    1.3737    0.0096 C.ar      1 <0>        -0.0832
     13 C12         0.0021   -0.0041    0.0020 C.ar      1 <0>        -0.1278
     14 C13         1.2095   -0.6866   -0.0136 C.ar      1 <0>        -0.1030
     15 C14         2.4043    0.0000   -0.0218 C.ar      1 <0>        -0.1179
     16 C15         2.4068    1.3915   -0.0139 C.ar      1 <0>         0.0833
     17 N1          3.4240    2.3263   -0.0189 N.pl3     1 <0>        -0.5714
     18 H1          4.3703    2.1133   -0.0300 H         1 <0>         0.4207
     19 C16         0.6149    4.5995    0.0221 C.2       1 <0>         0.4023
     20 O2          1.0325    5.7402    0.0240 O.2       1 <0>        -0.4802
     21 H2          6.1821   10.2002    0.7918 H         1 <0>         0.1031
     22 H3          4.4952    9.6449    0.6721 H         1 <0>         0.0596
     23 H4          5.5702    8.9638    1.9166 H         1 <0>         0.0583
     24 H5          6.3721    6.2387   -1.5400 H         1 <0>         0.1364
     25 H6          5.0571    4.1630   -1.5430 H         1 <0>         0.1288
     26 H7          2.5214    5.7811    1.5199 H         1 <0>         0.1343
     27 H8          3.8506    7.8478    1.5176 H         1 <0>         0.1347
     28 H9         -0.9578    1.9034    0.0169 H         1 <0>         0.1281
     29 H10        -0.9270   -0.5547    0.0079 H         1 <0>         0.1283
     30 H11         1.2133   -1.7666   -0.0198 H         1 <0>         0.1295
     31 H12         3.3385   -0.5417   -0.0347 H         1 <0>         0.1235
     32 H13        -0.4489    4.4139    0.0319 H         1 <0>         0.0935
@<TRIPOS>BOND
     1    1    2 1
     2    1   21 1
     3    1   22 1
     4    1   23 1
     5    2    3 1
     6    3    8 ar
     7    3    4 ar
     8    4    5 ar
     9    4   24 1
    10    5    6 ar
    11    5   25 1
    12    6    7 ar
    13    6    9 1
    14    7    8 ar
    15    7   26 1
    16    8   27 1
    17    9   17 1
    18    9   10 2
    19   10   11 1
    20   10   19 1
    21   11   16 ar
    22   11   12 ar
    23   12   13 ar
    24   12   28 1
    25   13   14 ar
    26   13   29 1
    27   14   15 ar
    28   14   30 1
    29   15   16 ar
    30   15   31 1
    31   16   17 1
    32   17   18 1
    33   19   20 2
    34   19   32 1
@<TRIPOS>MOLECULE
ZINC13782181
   36    38     0     0     0
SMALL
USER_CHARGES
5-methoxy-2-(4-methoxyphenyl)-1H-indole-3-carbaldehyde
@<TRIPOS>ATOM
      1 C1         -7.3137    0.3792   -0.8656 C.3       1 <0>         0.0242
      2 O1         -6.3863   -0.2412    0.0271 O.3       1 <0>        -0.3142
      3 C2         -5.1149    0.2352    0.0240 C.ar      1 <0>         0.1525
      4 C3         -4.1635   -0.3242    0.8686 C.ar      1 <0>        -0.1615
      5 C4         -2.8729    0.1564    0.8695 C.ar      1 <0>        -0.0539
      6 C5         -2.5203    1.2085    0.0186 C.ar      1 <0>        -0.1102
      7 C6         -3.4821    1.7714   -0.8259 C.ar      1 <0>         0.0074
      8 C7         -4.7691    1.2810   -0.8234 C.ar      1 <0>        -0.2155
      9 C8         -1.1405    1.7266    0.0163 C.2       1 <0>         0.2477
     10 C9         -0.7825    3.0745    0.0261 C.2       1 <0>        -0.2900
     11 C10         0.6922    3.1078    0.0122 C.ar      1 <0>        -0.0218
     12 C11         1.6299    4.1380    0.0087 C.ar      1 <0>        -0.1239
     13 C12         2.9787    3.8353   -0.0058 C.ar      1 <0>         0.1202
     14 C13         3.3968    2.5082   -0.0169 C.ar      1 <0>        -0.1845
     15 C14         2.4763    1.4833   -0.0140 C.ar      1 <0>        -0.0748
     16 C15         1.1146    1.7695    0.0009 C.ar      1 <0>         0.0504
     17 N1         -0.0111    0.9658    0.0074 N.pl3     1 <0>        -0.5685
     18 H1          0.0021   -0.0041    0.0020 H         1 <0>         0.4208
     19 O2          3.8986    4.8365   -0.0096 O.3       1 <0>        -0.3156
     20 C16         5.2751    4.4527   -0.0248 C.3       1 <0>         0.0267
     21 C17        -1.6554    4.1833    0.0400 C.2       1 <0>         0.4028
     22 O3         -2.8577    4.0098    0.0501 O.2       1 <0>        -0.4813
     23 H2         -7.3974    1.4388   -0.6240 H         1 <0>         0.0597
     24 H3         -6.9615    0.2672   -1.8910 H         1 <0>         0.0583
     25 H4         -8.2897   -0.0951   -0.7629 H         1 <0>         0.1030
     26 H5         -4.4367   -1.1367    1.5254 H         1 <0>         0.1364
     27 H6         -2.1343   -0.2784    1.5267 H         1 <0>         0.1291
     28 H7         -3.2153    2.5868   -1.4818 H         1 <0>         0.1345
     29 H8         -5.5118    1.7127   -1.4780 H         1 <0>         0.1348
     30 H9          1.3048    5.1679    0.0177 H         1 <0>         0.1365
     31 H10         4.4523    2.2796   -0.0286 H         1 <0>         0.1357
     32 H11         2.8118    0.4568   -0.0228 H         1 <0>         0.1282
     33 H12         5.4956    3.8558    0.8601 H         1 <0>         0.0558
     34 H13         5.4784    3.8647   -0.9198 H         1 <0>         0.0557
     35 H14         5.9011    5.3451   -0.0264 H         1 <0>         0.1013
     36 H15        -1.2545    5.1862    0.0416 H         1 <0>         0.0942
@<TRIPOS>BOND
     1    1    2 1
     2    1   23 1
     3    1   24 1
     4    1   25 1
     5    2    3 1
     6    3    8 ar
     7    3    4 ar
     8    4    5 ar
     9    4   26 1
    10    5    6 ar
    11    5   27 1
    12    6    7 ar
    13    6    9 1
    14    7    8 ar
    15    7   28 1
    16    8   29 1
    17    9   17 1
    18    9   10 2
    19   10   11 1
    20   10   21 1
    21   11   16 ar
    22   11   12 ar
    23   12   13 ar
    24   12   30 1
    25   13   14 ar
    26   13   19 1
    27   14   15 ar
    28   14   31 1
    29   15   16 ar
    30   15   32 1
    31   16   17 1
    32   17   18 1
    33   19   20 1
    34   20   33 1
    35   20   34 1
    36   20   35 1
    37   21   22 2
    38   21   36 1
@<TRIPOS>MOLECULE
ZINC05764424
   44    47     0     0     0
SMALL
USER_CHARGES
2-iodo-13-methyl-6,7,8,9,11,12,14,15,16,17-decahydrocyclopenta[a]phenanthrene-3,17-diol
@<TRIPOS>ATOM
      1 C1          0.6327    3.6422    1.0420 C.3       1 <0>        -0.1360
      2 C2         -0.7822    3.0891    1.2238 C.3       1 <0>        -0.0587
      3 C3         -0.7181    1.5795    1.3260 C.3       1 <0>        -0.1021
      4 C4          0.0069    1.0563    0.0712 C.3       1 <0>        -0.1148
      5 C5         -0.7064    1.5184   -1.1911 C.3       1 <0>        -0.0426
      6 H1         -1.7155    1.1064   -1.1755 H         1 <0>         0.0788
      7 C6         -0.0260    1.0232   -2.4337 C.ar      1 <0>        -0.0734
      8 C7          0.5749   -0.2282   -2.3985 C.ar      1 <0>        -0.0703
      9 C8          1.2036   -0.7363   -3.5156 C.ar      1 <0>        -0.1308
     10 C9          1.2361    0.0102   -4.6854 C.ar      1 <0>         0.1360
     11 C10         0.6415    1.2594   -4.7180 C.ar      1 <0>        -0.1429
     12 C11         0.0120    1.7722   -3.5915 C.ar      1 <0>        -0.0395
     13 C12        -0.5937    3.1472   -3.6948 C.3       1 <0>        -0.0840
     14 C13        -1.5505    3.4198   -2.5346 C.3       1 <0>        -0.1143
     15 C14        -0.8411    3.0459   -1.2331 C.3       1 <0>        -0.0753
     16 H2          0.1477    3.5039   -1.2080 H         1 <0>         0.0867
     17 C15        -1.6467    3.4512   -0.0161 C.3       1 <0>        -0.0816
     18 H3         -2.5954    2.9151    0.0082 H         1 <0>         0.0787
     19 C16        -1.8552    4.9562    0.1830 C.3       1 <0>        -0.1120
     20 C17        -2.1287    5.0702    1.7077 C.3       1 <0>        -0.1568
     21 C18        -1.4775    3.8263    2.3627 C.3       1 <0>         0.1109
     22 H4         -2.2418    3.1923    2.8121 H         1 <0>         0.0574
     23 O1         -0.5235    4.2278    3.3480 O.3       1 <0>        -0.5596
     24 O2          1.8485   -0.4836   -5.7937 O.3       1 <0>        -0.4871
     25 I1          2.1063   -2.6256   -3.4473 I         1 <0>        -0.0308
     26 H5          0.5836    4.7184    0.8767 H         1 <0>         0.0544
     27 H6          1.2202    3.4385    1.9372 H         1 <0>         0.0613
     28 H7          1.1022    3.1636    0.1826 H         1 <0>         0.0597
     29 H8         -1.7267    1.1683    1.3685 H         1 <0>         0.0638
     30 H9         -0.1635    1.2933    2.2196 H         1 <0>         0.0694
     31 H10         0.0254   -0.0333    0.0950 H         1 <0>         0.0660
     32 H11         1.0298    1.4329    0.0641 H         1 <0>         0.0721
     33 H12         0.5492   -0.8089   -1.4883 H         1 <0>         0.1343
     34 H13         0.6670    1.8406   -5.6279 H         1 <0>         0.1351
     35 H14         0.2035    3.8904   -3.6823 H         1 <0>         0.0817
     36 H15        -1.1402    3.2270   -4.6345 H         1 <0>         0.0793
     37 H16        -1.8166    4.4767   -2.5179 H         1 <0>         0.0738
     38 H17        -2.4501    2.8153   -2.6499 H         1 <0>         0.0667
     39 H18        -0.9567    5.5096   -0.0901 H         1 <0>         0.0716
     40 H19        -2.7140    5.3058   -0.3901 H         1 <0>         0.0670
     41 H20        -3.2023    5.0733    1.8960 H         1 <0>         0.0672
     42 H21        -1.6773    5.9804    2.1025 H         1 <0>         0.0729
     43 H22        -0.9083    4.7020    4.0977 H         1 <0>         0.3753
     44 H23         1.2648   -0.9950   -6.3707 H         1 <0>         0.3929
@<TRIPOS>BOND
     1    1    2 1
     2    1   26 1
     3    1   27 1
     4    1   28 1
     5    2   17 1
     6    2   21 1
     7    2    3 1
     8    3    4 1
     9    3   29 1
    10    3   30 1
    11    4    5 1
    12    4   31 1
    13    4   32 1
    14    5    6 1
    15    5   15 1
    16    5    7 1
    17    7   12 ar
    18    7    8 ar
    19    8    9 ar
    20    8   33 1
    21    9   10 ar
    22    9   25 1
    23   10   11 ar
    24   10   24 1
    25   11   12 ar
    26   11   34 1
    27   12   13 1
    28   13   14 1
    29   13   35 1
    30   13   36 1
    31   14   15 1
    32   14   37 1
    33   14   38 1
    34   15   16 1
    35   15   17 1
    36   17   18 1
    37   17   19 1
    38   19   20 1
    39   19   39 1
    40   19   40 1
    41   20   21 1
    42   20   41 1
    43   20   42 1
    44   21   22 1
    45   21   23 1
    46   23   43 1
    47   24   44 1
@<TRIPOS>MOLECULE
ZINC13474160
   41    42     0     0     0
SMALL
USER_CHARGES
(3-hydroxy-4-methoxy-phenyl)-(3,4,5-trimethoxyphenyl)methanone
@<TRIPOS>ATOM
      1 C1          3.5061    3.1214   -0.4165 C.3       1 <0>         0.0209
      2 O1          2.3286    3.6599   -1.0209 O.3       1 <0>        -0.3014
      3 C2          1.1587    3.0171   -0.7719 C.ar      1 <0>         0.1346
      4 C3          1.1466    1.8901    0.0394 C.ar      1 <0>        -0.2039
      5 C4         -0.0375    1.2345    0.2956 C.ar      1 <0>        -0.0278
      6 C5         -1.2315    1.7062   -0.2580 C.ar      1 <0>        -0.1809
      7 C6         -1.2184    2.8378   -1.0791 C.ar      1 <0>        -0.0737
      8 C7         -0.0278    3.4905   -1.3310 C.ar      1 <0>         0.0668
      9 O2         -0.0124    4.5948   -2.1247 O.3       1 <0>        -0.4798
     10 C8         -2.5014    1.0085    0.0194 C.2       1 <0>         0.4461
     11 O3         -2.5136   -0.1996    0.1592 O.2       1 <0>        -0.4380
     12 C9         -3.7566    1.7763    0.1271 C.ar      1 <0>        -0.0891
     13 C10        -3.7243    3.1739    0.1327 C.ar      1 <0>        -0.1972
     14 C11        -4.9019    3.8905    0.2289 C.ar      1 <0>         0.1392
     15 C12        -6.1193    3.2216    0.3314 C.ar      1 <0>         0.0620
     16 C13        -6.1540    1.8293    0.3311 C.ar      1 <0>         0.1396
     17 C14        -4.9799    1.1076    0.2298 C.ar      1 <0>        -0.1735
     18 O4         -7.3445    1.1793    0.4309 O.3       1 <0>        -0.2991
     19 C15        -7.3063   -0.2491    0.4247 C.3       1 <0>         0.0213
     20 O5         -7.2752    3.9287    0.4316 O.3       1 <0>        -0.3121
     21 C16        -7.7191    4.2633    1.7481 C.3       1 <0>         0.0357
     22 O6         -4.8717    5.2502    0.2291 O.3       1 <0>        -0.2976
     23 C17        -3.5890    5.8706    0.1209 C.3       1 <0>         0.0201
     24 H1          3.3935    3.1278    0.6677 H         1 <0>         0.0599
     25 H2          3.6554    2.0978   -0.7602 H         1 <0>         0.0605
     26 H3          4.3678    3.7278   -0.6958 H         1 <0>         0.1062
     27 H4          2.0677    1.5269    0.4708 H         1 <0>         0.1426
     28 H5         -0.0441    0.3585    0.9272 H         1 <0>         0.1398
     29 H6         -2.1381    3.2032   -1.5119 H         1 <0>         0.1495
     30 H7         -0.1382    5.4253   -1.6456 H         1 <0>         0.3878
     31 H8         -2.7802    3.6931    0.0580 H         1 <0>         0.1504
     32 H9         -5.0074    0.0279    0.2295 H         1 <0>         0.1489
     33 H10        -6.8602   -0.5966   -0.5071 H         1 <0>         0.0608
     34 H11        -6.7094   -0.6003    1.2664 H         1 <0>         0.0598
     35 H12        -8.3202   -0.6401    0.5101 H         1 <0>         0.1069
     36 H13        -8.6505    4.8260    1.6855 H         1 <0>         0.0963
     37 H14        -7.8843    3.3496    2.3190 H         1 <0>         0.0468
     38 H15        -6.9610    4.8695    2.2440 H         1 <0>         0.0467
     39 H16        -3.7073    6.9541    0.1333 H         1 <0>         0.1077
     40 H17        -2.9650    5.5637    0.9602 H         1 <0>         0.0580
     41 H18        -3.1164    5.5673   -0.8133 H         1 <0>         0.0590
@<TRIPOS>BOND
     1    1    2 1
     2    1   24 1
     3    1   25 1
     4    1   26 1
     5    2    3 1
     6    3    8 ar
     7    3    4 ar
     8    4    5 ar
     9    4   27 1
    10    5    6 ar
    11    5   28 1
    12    6    7 ar
    13    6   10 1
    14    7    8 ar
    15    7   29 1
    16    8    9 1
    17    9   30 1
    18   10   11 2
    19   10   12 1
    20   12   17 ar
    21   12   13 ar
    22   13   14 ar
    23   13   31 1
    24   14   15 ar
    25   14   22 1
    26   15   16 ar
    27   15   20 1
    28   16   17 ar
    29   16   18 1
    30   17   32 1
    31   18   19 1
    32   19   33 1
    33   19   34 1
    34   19   35 1
    35   20   21 1
    36   21   36 1
    37   21   37 1
    38   21   38 1
    39   22   23 1
    40   23   39 1
    41   23   40 1
    42   23   41 1
@<TRIPOS>MOLECULE
ZINC03818826
   48    51     0     0     0
SMALL
USER_CHARGES

@<TRIPOS>ATOM
      1 C1         -0.0187    1.5258    0.0104 C.3       1 <0>        -0.1355
      2 C2          0.0021   -0.0041    0.0020 C.3       1 <0>        -0.0566
      3 C3         -1.4142   -0.5426    0.0487 C.3       1 <0>        -0.1014
      4 C4         -2.0973    0.0443    1.2988 C.3       1 <0>        -0.1122
      5 C5         -1.3125   -0.3072    2.5541 C.3       1 <0>        -0.0439
      6 H1         -1.3075   -1.3926    2.6532 H         1 <0>         0.0785
      7 C6         -1.9425    0.2653    3.7900 C.ar      1 <0>        -0.0362
      8 C7         -3.3276    0.3478    3.8433 C.ar      1 <0>        -0.1963
      9 C8         -3.9598    0.8566    4.9624 C.ar      1 <0>         0.1016
     10 C9         -3.1982    1.2889    6.0445 C.ar      1 <0>         0.0738
     11 C10        -1.8198    1.2091    5.9858 C.ar      1 <0>        -0.1085
     12 C11        -1.1862    0.7011    4.8579 C.ar      1 <0>        -0.0954
     13 C12         0.3197    0.6670    4.8603 C.3       1 <0>        -0.0770
     14 C13         0.8559   -0.2329    3.7476 C.3       1 <0>        -0.1137
     15 C14         0.1446    0.1630    2.4541 C.3       1 <0>        -0.0733
     16 H2          0.1741    1.2445    2.3212 H         1 <0>         0.0873
     17 C15         0.7512   -0.5345    1.2564 C.3       1 <0>        -0.0835
     18 H3          0.6223   -1.6140    1.3350 H         1 <0>         0.0755
     19 C16         2.2092   -0.2044    0.9567 C.3       1 <0>        -0.1119
     20 C17         2.3296   -0.2453   -0.5873 C.3       1 <0>        -0.1564
     21 C18         0.8994   -0.5108   -1.1318 C.3       1 <0>         0.1091
     22 H4          0.7426   -1.5761   -1.3011 H         1 <0>         0.0609
     23 O1          0.6684    0.2325   -2.3302 O.3       1 <0>        -0.5589
     24 O2         -3.8074    1.7876    7.1534 O.3       1 <0>        -0.4869
     25 O3         -5.3168    0.9348    5.0057 O.3       1 <0>        -0.3081
     26 C19        -6.0303    0.4723    3.8572 C.3       1 <0>         0.0248
     27 H5          1.0039    1.9031    0.0027 H         1 <0>         0.0544
     28 H6         -0.5459    1.8868   -0.8726 H         1 <0>         0.0598
     29 H7         -0.5289    1.8773    0.9072 H         1 <0>         0.0605
     30 H8         -1.9557   -0.2363   -0.8463 H         1 <0>         0.0694
     31 H9         -1.3939   -1.6304    0.1151 H         1 <0>         0.0630
     32 H10        -2.1532    1.1285    1.2019 H         1 <0>         0.0702
     33 H11        -3.1059   -0.3609    1.3805 H         1 <0>         0.0631
     34 H12        -3.9164    0.0110    3.0029 H         1 <0>         0.1336
     35 H13        -1.2289    1.5446    6.8252 H         1 <0>         0.1342
     36 H14         0.6999    1.6783    4.7159 H         1 <0>         0.0755
     37 H15         0.6667    0.2903    5.8225 H         1 <0>         0.0740
     38 H16         1.9303   -0.0839    3.6398 H         1 <0>         0.0721
     39 H17         0.6510   -1.2763    3.9876 H         1 <0>         0.0664
     40 H18         2.4554    0.7902    1.3285 H         1 <0>         0.0687
     41 H19         2.8653   -0.9497    1.4066 H         1 <0>         0.0659
     42 H20         2.7000    0.7100   -0.9591 H         1 <0>         0.0740
     43 H21         3.0001   -1.0500   -0.8891 H         1 <0>         0.0644
     44 H22         1.2121   -0.0492   -3.0787 H         1 <0>         0.3760
     45 H23        -4.0162    1.1202    7.8212 H         1 <0>         0.3861
     46 H24        -5.7311    1.0538    2.9852 H         1 <0>         0.0558
     47 H25        -5.8028   -0.5801    3.6876 H         1 <0>         0.0548
     48 H26        -7.1011    0.5904    4.0228 H         1 <0>         0.1018
@<TRIPOS>BOND
     1    1    2 1
     2    1   27 1
     3    1   28 1
     4    1   29 1
     5    2   17 1
     6    2   21 1
     7    2    3 1
     8    3    4 1
     9    3   30 1
    10    3   31 1
    11    4    5 1
    12    4   32 1
    13    4   33 1
    14    5    6 1
    15    5   15 1
    16    5    7 1
    17    7   12 ar
    18    7    8 ar
    19    8    9 ar
    20    8   34 1
    21    9   10 ar
    22    9   25 1
    23   10   11 ar
    24   10   24 1
    25   11   12 ar
    26   11   35 1
    27   12   13 1
    28   13   14 1
    29   13   36 1
    30   13   37 1
    31   14   15 1
    32   14   38 1
    33   14   39 1
    34   15   16 1
    35   15   17 1
    36   17   18 1
    37   17   19 1
    38   19   20 1
    39   19   40 1
    40   19   41 1
    41   20   21 1
    42   20   42 1
    43   20   43 1
    44   21   22 1
    45   21   23 1
    46   23   44 1
    47   24   45 1
    48   25   26 1
    49   26   46 1
    50   26   47 1
    51   26   48 1
@<TRIPOS>MOLECULE
ZINC00005900
   42    43     0     0     0
SMALL
USER_CHARGES
1,2,3-trimethoxy-5-[2-(4-methoxyphenyl)vinyl]benzene
@<TRIPOS>ATOM
      1 C1          0.5846    7.8364    6.0644 C.3       1 <0>         0.0260
      2 O1          0.3823    8.8514    5.0791 O.3       1 <0>        -0.3160
      3 C2          0.4408    8.4676    3.7771 C.ar      1 <0>         0.1339
      4 C3          0.1487    9.3810    2.7723 C.ar      1 <0>        -0.1576
      5 C4          0.2071    8.9965    1.4503 C.ar      1 <0>        -0.0689
      6 C5          0.5607    7.6848    1.1212 C.ar      1 <0>        -0.1071
      7 C6          0.8478    6.7676    2.1362 C.ar      1 <0>        -0.0477
      8 C7          0.7922    7.1630    3.4551 C.ar      1 <0>        -0.2109
      9 C8          0.6247    7.2687   -0.2908 C.2       1 <0>        -0.0862
     10 C9          0.2185    6.0393   -0.6476 C.2       1 <0>        -0.1215
     11 C10        -0.4762    5.1809    0.3278 C.ar      1 <0>         0.0180
     12 C11        -1.3731    5.7422    1.2408 C.ar      1 <0>        -0.2131
     13 C12        -2.0240    4.9335    2.1549 C.ar      1 <0>         0.1492
     14 C13        -1.7909    3.5617    2.1623 C.ar      1 <0>         0.0269
     15 C14        -0.8942    3.0005    1.2584 C.ar      1 <0>         0.1481
     16 C15        -0.2400    3.8036    0.3417 C.ar      1 <0>        -0.2276
     17 O2         -0.6649    1.6600    1.2726 O.3       1 <0>        -0.3029
     18 C16         0.2633    1.1504    0.3131 C.3       1 <0>         0.0245
     19 O3         -2.4369    2.7683    3.0590 O.3       1 <0>        -0.3122
     20 C17        -1.7977    2.5608    4.3202 C.3       1 <0>         0.0358
     21 O4         -2.8974    5.4789    3.0434 O.3       1 <0>        -0.3013
     22 C18        -3.1634    6.8772    2.9166 C.3       1 <0>         0.0247
     23 H1          0.4271    8.2574    7.0574 H         1 <0>         0.1019
     24 H2         -0.1218    7.0230    5.8984 H         1 <0>         0.0566
     25 H3          1.6027    7.4545    5.9889 H         1 <0>         0.0560
     26 H4         -0.1244   10.3942    3.0275 H         1 <0>         0.1326
     27 H5         -0.0202    9.7075    0.6697 H         1 <0>         0.1327
     28 H6          1.1168    5.7517    1.8869 H         1 <0>         0.1253
     29 H7          1.0182    6.4562    4.2398 H         1 <0>         0.1271
     30 H8          0.9983    7.9523   -1.0388 H         1 <0>         0.1311
     31 H9          0.4011    5.6799   -1.6496 H         1 <0>         0.1327
     32 H10        -1.5581    6.8062    1.2324 H         1 <0>         0.1399
     33 H11         0.4528    3.3668   -0.3623 H         1 <0>         0.1370
     34 H12         0.3536    0.0708    0.4328 H         1 <0>         0.1032
     35 H13         1.2369    1.6158    0.4667 H         1 <0>         0.0567
     36 H14        -0.0927    1.3760   -0.6922 H         1 <0>         0.0584
     37 H15        -0.8258    2.0933    4.1624 H         1 <0>         0.0433
     38 H16        -1.6628    3.5194    4.8212 H         1 <0>         0.0426
     39 H17        -2.4171    1.9114    4.9389 H         1 <0>         0.0923
     40 H18        -3.8159    7.1980    3.7286 H         1 <0>         0.1022
     41 H19        -2.2258    7.4311    2.9634 H         1 <0>         0.0567
     42 H20        -3.6514    7.0690    1.9610 H         1 <0>         0.0576
@<TRIPOS>BOND
     1    1    2 1
     2    1   23 1
     3    1   24 1
     4    1   25 1
     5    2    3 1
     6    3    8 ar
     7    3    4 ar
     8    4    5 ar
     9    4   26 1
    10    5    6 ar
    11    5   27 1
    12    6    7 ar
    13    6    9 1
    14    7    8 ar
    15    7   28 1
    16    8   29 1
    17    9   10 2
    18    9   30 1
    19   10   11 1
    20   10   31 1
    21   11   16 ar
    22   11   12 ar
    23   12   13 ar
    24   12   32 1
    25   13   14 ar
    26   13   21 1
    27   14   15 ar
    28   14   19 1
    29   15   16 ar
    30   15   17 1
    31   16   33 1
    32   17   18 1
    33   18   34 1
    34   18   35 1
    35   18   36 1
    36   19   20 1
    37   20   37 1
    38   20   38 1
    39   20   39 1
    40   21   22 1
    41   22   40 1
    42   22   41 1
    43   22   42 1
@<TRIPOS>MOLECULE
ZINC03861806
   52    56     0     0     0
SMALL
USER_CHARGES

@<TRIPOS>ATOM
      1 C1         -3.6930   -4.3953    1.3855 C.3       1 <0>         0.0252
      2 O1         -2.4437   -3.8768    0.9246 O.3       1 <0>        -0.3003
      3 C2         -2.4359   -2.5932    0.4754 C.ar      1 <0>         0.1495
      4 C3         -3.6051   -1.8476    0.4840 C.ar      1 <0>        -0.2259
      5 C4         -3.5982   -0.5428    0.0277 C.ar      1 <0>        -0.0209
      6 C5         -2.4270    0.0241   -0.4388 C.ar      1 <0>        -0.2100
      7 C6         -1.2537   -0.7147   -0.4507 C.ar      1 <0>         0.1530
      8 C7         -1.2551   -2.0250    0.0125 C.ar      1 <0>         0.0322
      9 O2         -0.1044   -2.7517    0.0077 O.3       1 <0>        -0.3125
     10 C8          0.1804   -3.5080   -1.1708 C.3       1 <0>         0.0352
     11 O3         -0.1020   -0.1562   -0.9103 O.3       1 <0>        -0.3009
     12 C9         -0.1736    1.1963   -1.3658 C.3       1 <0>         0.0228
     13 C10        -4.8712    0.2637    0.0384 C.3       1 <0>         0.0189
     14 H1         -4.6351    1.3241    0.1275 H         1 <0>         0.1131
     15 C11        -5.7434   -0.1683    1.2044 C.ar      1 <0>        -0.0529
     16 C12        -5.3819    0.3279    2.4585 C.ar      1 <0>        -0.0868
     17 C13        -6.1565   -0.0324    3.5478 C.ar      1 <0>         0.0421
     18 C14        -7.2723   -0.8695    3.3919 C.ar      1 <0>         0.0393
     19 C15        -7.6229   -1.3601    2.1459 C.ar      1 <0>        -0.0960
     20 C16        -6.8323   -0.9991    1.0529 C.ar      1 <0>        -0.1113
     21 C17        -7.2358   -1.5900   -0.2866 C.3       1 <0>         0.1688
     22 H2         -8.0711   -1.0261   -0.7019 H         1 <0>         0.0847
     23 C18        -6.0407   -1.4964   -1.2162 C.3       1 <0>        -0.1345
     24 H3         -5.2202   -2.1338   -0.8868 H         1 <0>         0.1266
     25 C19        -5.6449    0.0168   -1.2401 C.3       1 <0>        -0.1550
     26 H4         -6.5338    0.6466   -1.2763 H         1 <0>         0.1353
     27 C20        -4.8681    0.0939   -2.5223 C.2       1 <0>         0.5007
     28 O4         -3.9698    0.8653   -2.7630 O.2       1 <0>        -0.4366
     29 O5         -5.3498   -0.8527   -3.3612 O.3       1 <0>        -0.3458
     30 C21        -6.3520   -1.6858   -2.7083 C.3       1 <0>         0.0681
     31 O6         -7.6124   -2.9581   -0.1179 O.3       1 <0>        -0.5509
     32 O7         -7.8478   -1.0577    4.6012 O.3       1 <0>        -0.3030
     33 C22        -6.8554   -0.6544    5.5678 C.3       1 <0>         0.2110
     34 O8         -6.0375    0.2962    4.8542 O.3       1 <0>        -0.3017
     35 H5         -3.5594   -5.4258    1.7147 H         1 <0>         0.1036
     36 H6         -4.0518   -3.7913    2.2188 H         1 <0>         0.0550
     37 H7         -4.4206   -4.3644    0.5745 H         1 <0>         0.0591
     38 H8         -4.5223   -2.2870    0.8474 H         1 <0>         0.1403
     39 H9         -2.4259    1.0438   -0.7948 H         1 <0>         0.1436
     40 H10         1.1236   -4.0390   -1.0427 H         1 <0>         0.0933
     41 H11        -0.6206   -4.2268   -1.3436 H         1 <0>         0.0441
     42 H12         0.2553   -2.8352   -2.0251 H         1 <0>         0.0449
     43 H13        -0.8820    1.2647   -2.1914 H         1 <0>         0.0632
     44 H14        -0.5045    1.8377   -0.5490 H         1 <0>         0.0578
     45 H15         0.8112    1.5183   -1.7045 H         1 <0>         0.1032
     46 H16        -4.5237    0.9730    2.5752 H         1 <0>         0.1469
     47 H17        -8.4816   -2.0034    2.0228 H         1 <0>         0.1434
     48 H18        -6.2416   -2.7319   -2.9939 H         1 <0>         0.1164
     49 H19        -7.3548   -1.3271   -2.9400 H         1 <0>         0.0940
     50 H20        -8.3572   -3.0895    0.4848 H         1 <0>         0.3841
     51 H21        -7.3297   -0.1809    6.4274 H         1 <0>         0.1352
     52 H22        -6.2591   -1.5107    5.8829 H         1 <0>         0.0906
@<TRIPOS>BOND
     1    1    2 1
     2    1   35 1
     3    1   36 1
     4    1   37 1
     5    2    3 1
     6    3    8 ar
     7    3    4 ar
     8    4    5 ar
     9    4   38 1
    10    5    6 ar
    11    5   13 1
    12    6    7 ar
    13    6   39 1
    14    7    8 ar
    15    7   11 1
    16    8    9 1
    17    9   10 1
    18   10   40 1
    19   10   41 1
    20   10   42 1
    21   11   12 1
    22   12   43 1
    23   12   44 1
    24   12   45 1
    25   13   14 1
    26   13   25 1
    27   13   15 1
    28   15   20 ar
    29   15   16 ar
    30   16   17 ar
    31   16   46 1
    32   17   34 1
    33   17   18 ar
    34   18   19 ar
    35   18   32 1
    36   19   20 ar
    37   19   47 1
    38   20   21 1
    39   21   22 1
    40   21   23 1
    41   21   31 1
    42   23   24 1
    43   23   30 1
    44   23   25 1
    45   25   26 1
    46   25   27 1
    47   27   28 2
    48   27   29 1
    49   29   30 1
    50   30   48 1
    51   30   49 1
    52   31   50 1
    53   32   33 1
    54   33   34 1
    55   33   51 1
    56   33   52 1
@<TRIPOS>MOLECULE
ZINC13452167
   43    44     0     0     0
SMALL
USER_CHARGES
2-methoxy-5-[(Z)-2-(3,4,5-trimethoxyphenyl)vinyl]phenol
@<TRIPOS>ATOM
      1 C1         -2.5739   -5.3278   -3.5961 C.3       1 <0>         0.0240
      2 O1         -1.6433   -6.2084   -2.9633 O.3       1 <0>        -0.3061
      3 C2         -0.5548   -5.6403   -2.3797 C.ar      1 <0>         0.1097
      4 C3         -0.3395   -4.2750   -2.4987 C.ar      1 <0>        -0.1980
      5 C4          0.7628   -3.6933   -1.9089 C.ar      1 <0>        -0.0560
      6 C5          1.6664   -4.4799   -1.1890 C.ar      1 <0>        -0.0890
      7 C6          1.4521   -5.8563   -1.0743 C.ar      1 <0>        -0.0967
      8 C7          0.3413   -6.4307   -1.6633 C.ar      1 <0>         0.0694
      9 O2          0.1266   -7.7688   -1.5490 O.3       1 <0>        -0.4855
     10 C8          2.8451   -3.8608   -0.5577 C.2       1 <0>        -0.0895
     11 C9          2.7487   -2.6388   -0.0089 C.2       1 <0>        -0.1155
     12 C10         1.4284   -2.0039    0.1484 C.ar      1 <0>         0.0156
     13 C11         0.3151   -2.7778    0.4869 C.ar      1 <0>        -0.2135
     14 C12        -0.9229   -2.1786    0.6342 C.ar      1 <0>         0.1497
     15 C13        -1.0593   -0.8059    0.4515 C.ar      1 <0>         0.0278
     16 C14         0.0461   -0.0334    0.1089 C.ar      1 <0>         0.1482
     17 C15         1.2869   -0.6264   -0.0400 C.ar      1 <0>        -0.2267
     18 O3         -0.0925    1.3070   -0.0743 O.3       1 <0>        -0.3027
     19 C16         1.0849    2.0399   -0.4188 C.3       1 <0>         0.0244
     20 O4         -2.2772   -0.2188    0.6026 O.3       1 <0>        -0.3121
     21 C17        -3.1047   -0.1329   -0.5593 C.3       1 <0>         0.0358
     22 O5         -2.0068   -2.9309    0.9640 O.3       1 <0>        -0.3010
     23 C18        -1.7777   -4.3154    1.2336 C.3       1 <0>         0.0252
     24 H1         -2.0933   -4.8395   -4.4439 H         1 <0>         0.0562
     25 H2         -3.4343   -5.8985   -3.9455 H         1 <0>         0.1031
     26 H3         -2.9040   -4.5736   -2.8817 H         1 <0>         0.0570
     27 H4         -1.0368   -3.6662   -3.0551 H         1 <0>         0.1322
     28 H5          0.9282   -2.6303   -2.0034 H         1 <0>         0.1292
     29 H6          2.1502   -6.4688   -0.5230 H         1 <0>         0.1393
     30 H7          0.5319   -8.2937   -2.2528 H         1 <0>         0.3875
     31 H8          3.7865   -4.3897   -0.5363 H         1 <0>         0.1328
     32 H9          3.6389   -2.1215    0.3171 H         1 <0>         0.1342
     33 H10         0.4211   -3.8426    0.6328 H         1 <0>         0.1395
     34 H11         2.1453   -0.0256   -0.3020 H         1 <0>         0.1375
     35 H12         1.4905    1.6567   -1.3552 H         1 <0>         0.0568
     36 H13         0.8353    3.0945   -0.5356 H         1 <0>         0.1033
     37 H14         1.8271    1.9275    0.3715 H         1 <0>         0.0585
     38 H15        -2.5933    0.4470   -1.3275 H         1 <0>         0.0434
     39 H16        -3.3076   -1.1356   -0.9357 H         1 <0>         0.0427
     40 H17        -4.0444    0.3552   -0.3008 H         1 <0>         0.0924
     41 H18        -2.7303   -4.8120    1.4183 H         1 <0>         0.1030
     42 H19        -1.2880   -4.7764    0.3758 H         1 <0>         0.0560
     43 H20        -1.1402   -4.4139    2.1122 H         1 <0>         0.0581
@<TRIPOS>BOND
     1    1    2 1
     2    1   24 1
     3    1   25 1
     4    1   26 1
     5    2    3 1
     6    3    8 ar
     7    3    4 ar
     8    4    5 ar
     9    4   27 1
    10    5    6 ar
    11    5   28 1
    12    6    7 ar
    13    6   10 1
    14    7    8 ar
    15    7   29 1
    16    8    9 1
    17    9   30 1
    18   10   11 2
    19   10   31 1
    20   11   12 1
    21   11   32 1
    22   12   17 ar
    23   12   13 ar
    24   13   14 ar
    25   13   33 1
    26   14   15 ar
    27   14   22 1
    28   15   16 ar
    29   15   20 1
    30   16   17 ar
    31   16   18 1
    32   17   34 1
    33   18   19 1
    34   19   35 1
    35   19   36 1
    36   19   37 1
    37   20   21 1
    38   21   38 1
    39   21   39 1
    40   21   40 1
    41   22   23 1
    42   23   41 1
    43   23   42 1
    44   23   43 1
