@<TRIPOS>MOLECULE
ZINC05613242
   41    44     0     0     0
SMALL
USER_CHARGES
3-(1-acetyl-5-phenyl-4,5-dihydropyrazol-3-yl)chromen-2-one
@<TRIPOS>ATOM
      1 C1          8.7907    2.5810   -0.0657 C.3       1 <0>        -0.1649
      2 C2          8.3652    4.0266   -0.0547 C.2       1 <0>         0.5528
      3 O1          9.2017    4.9052   -0.0581 O.2       1 <0>        -0.5149
      4 N1          7.0553    4.3434   -0.0412 N.am      1 <0>        -0.4667
      5 C3          6.5049    5.7081   -0.0294 C.3       1 <0>         0.1474
      6 H1          6.8070    6.2511   -0.9249 H         1 <0>         0.1041
      7 C4          4.9798    5.4835   -0.0220 C.3       1 <0>        -0.1206
      8 C5          4.8330    3.9786   -0.0217 C.2       1 <0>         0.1328
      9 N2          6.0012    3.4322   -0.0354 N.2       1 <0>        -0.1946
     10 C6          3.5548    3.2502   -0.0135 C.2       1 <0>        -0.1501
     11 C7          2.3547    3.9355    0.0007 C.2       1 <0>         0.0292
     12 C8          1.1453    3.1927    0.0078 C.ar      1 <0>        -0.1595
     13 C9         -0.0899    3.8568    0.0226 C.ar      1 <0>        -0.0480
     14 C10        -1.2496    3.1363    0.0299 C.ar      1 <0>        -0.1429
     15 C11        -1.2159    1.7490    0.0173 C.ar      1 <0>        -0.0524
     16 C12        -0.0126    1.0758    0.0080 C.ar      1 <0>        -0.1374
     17 C13         1.1820    1.7875    0.0004 C.ar      1 <0>         0.1550
     18 O2          2.3593    1.1256   -0.0135 O.3       1 <0>        -0.2624
     19 C14         3.5313    1.7814   -0.0207 C.2       1 <0>         0.5126
     20 O3          4.5759    1.1576   -0.0336 O.2       1 <0>        -0.4219
     21 C15         6.9431    6.4459    1.2093 C.ar      1 <0>        -0.0921
     22 C16         7.0107    5.7835    2.4208 C.ar      1 <0>        -0.1022
     23 C17         7.4173    6.4591    3.5562 C.ar      1 <0>        -0.1171
     24 C18         7.7467    7.7996    3.4821 C.ar      1 <0>        -0.1134
     25 C19         7.6737    8.4634    2.2717 C.ar      1 <0>        -0.1168
     26 C20         7.2721    7.7865    1.1353 C.ar      1 <0>        -0.0988
     27 H2          8.8839    2.2375   -1.0959 H         1 <0>         0.0975
     28 H3          9.7518    2.4813    0.4389 H         1 <0>         0.0939
     29 H4          8.0443    1.9786    0.4521 H         1 <0>         0.0937
     30 H5          4.5240    5.9119   -0.9147 H         1 <0>         0.1104
     31 H6          4.5368    5.9110    0.8774 H         1 <0>         0.1092
     32 H7          2.3375    5.0153    0.0067 H         1 <0>         0.1573
     33 H8         -0.1236    4.9363    0.0287 H         1 <0>         0.1421
     34 H9         -2.1997    3.6496    0.0417 H         1 <0>         0.1381
     35 H10        -2.1408    1.1914    0.0190 H         1 <0>         0.1429
     36 H11         0.0021   -0.0041    0.0020 H         1 <0>         0.1467
     37 H12         6.7494    4.7372    2.4795 H         1 <0>         0.1142
     38 H13         7.4740    5.9406    4.5019 H         1 <0>         0.1232
     39 H14         8.0608    8.3284    4.3698 H         1 <0>         0.1241
     40 H15         7.9307    9.5108    2.2139 H         1 <0>         0.1257
     41 H16         7.2150    8.3051    0.1897 H         1 <0>         0.1238
@<TRIPOS>BOND
     1    1    2 1
     2    1   27 1
     3    1   28 1
     4    1   29 1
     5    2    3 2
     6    2    4 am
     7    4    9 1
     8    4    5 1
     9    5    6 1
    10    5    7 1
    11    5   21 1
    12    7    8 1
    13    7   30 1
    14    7   31 1
    15    8    9 2
    16    8   10 1
    17   10   19 1
    18   10   11 2
    19   11   12 1
    20   11   32 1
    21   12   17 ar
    22   12   13 ar
    23   13   14 ar
    24   13   33 1
    25   14   15 ar
    26   14   34 1
    27   15   16 ar
    28   15   35 1
    29   16   17 ar
    30   16   36 1
    31   17   18 1
    32   18   19 1
    33   19   20 2
    34   21   26 ar
    35   21   22 ar
    36   22   23 ar
    37   22   37 1
    38   23   24 ar
    39   23   38 1
    40   24   25 ar
    41   24   39 1
    42   25   26 ar
    43   25   40 1
    44   26   41 1
@<TRIPOS>MOLECULE
ZINC05613247
   41    44     0     0     0
SMALL
USER_CHARGES
3-(1-acetyl-5-phenyl-4,5-dihydropyrazol-3-yl)chromen-2-one
@<TRIPOS>ATOM
      1 C1          3.4239   -2.8467   -0.0470 C.3       1 <0>        -0.1693
      2 C2          4.4317   -1.7263   -0.0504 C.2       1 <0>         0.5531
      3 O1          5.6184   -1.9779   -0.0630 O.2       1 <0>        -0.5157
      4 N1          4.0147   -0.4447   -0.0394 N.am      1 <0>        -0.4660
      5 C3          4.8881    0.7395   -0.0412 C.3       1 <0>         0.1473
      6 H1          5.5185    0.7524    0.8479 H         1 <0>         0.1048
      7 C4          3.8973    1.9204   -0.0309 C.3       1 <0>        -0.1204
      8 C5          2.5390    1.2563   -0.0154 C.2       1 <0>         0.1331
      9 N2          2.6861   -0.0250   -0.0241 N.2       1 <0>        -0.1951
     10 C6          1.2486    1.9628    0.0007 C.2       1 <0>        -0.1502
     11 C7          1.2029    3.3441    0.0081 C.2       1 <0>         0.0293
     12 C8         -0.0636    3.9845    0.0231 C.ar      1 <0>        -0.1595
     13 C9         -0.1460    5.3846    0.0314 C.ar      1 <0>        -0.0480
     14 C10        -1.3676    5.9941    0.0463 C.ar      1 <0>        -0.1429
     15 C11        -2.5311    5.2377    0.0534 C.ar      1 <0>        -0.0524
     16 C12        -2.4732    3.8602    0.0455 C.ar      1 <0>        -0.1374
     17 C13        -1.2408    3.2163    0.0303 C.ar      1 <0>         0.1550
     18 O2         -1.1873    1.8668    0.0178 O.3       1 <0>        -0.2623
     19 C14        -0.0144    1.2126    0.0087 C.2       1 <0>         0.5127
     20 O3          0.0021   -0.0041    0.0020 O.2       1 <0>        -0.4222
     21 C15         5.7329    0.7734   -1.2887 C.ar      1 <0>        -0.0927
     22 C16         5.1947    0.3776   -2.4989 C.ar      1 <0>        -0.1022
     23 C17         5.9681    0.4133   -3.6440 C.ar      1 <0>        -0.1173
     24 C18         7.2829    0.8349   -3.5771 C.ar      1 <0>        -0.1134
     25 C19         7.8227    1.2257   -2.3660 C.ar      1 <0>        -0.1169
     26 C20         7.0477    1.1950   -1.2218 C.ar      1 <0>        -0.0988
     27 H2          2.4169   -2.4296   -0.0353 H         1 <0>         0.0957
     28 H3          3.5545   -3.4556   -0.9416 H         1 <0>         0.0965
     29 H4          3.5713   -3.4653    0.8382 H         1 <0>         0.0971
     30 H5          4.0152    2.5287   -0.9276 H         1 <0>         0.1095
     31 H6          4.0368    2.5262    0.8644 H         1 <0>         0.1101
     32 H7          2.1134    3.9250    0.0028 H         1 <0>         0.1574
     33 H8          0.7554    5.9795    0.0263 H         1 <0>         0.1421
     34 H9         -1.4288    7.0723    0.0531 H         1 <0>         0.1381
     35 H10        -3.4909    5.7328    0.0649 H         1 <0>         0.1429
     36 H11        -3.3850    3.2813    0.0508 H         1 <0>         0.1467
     37 H12         4.1688    0.0441   -2.5503 H         1 <0>         0.1142
     38 H13         5.5465    0.1076   -4.5902 H         1 <0>         0.1232
     39 H14         7.8886    0.8586   -4.4710 H         1 <0>         0.1241
     40 H15         8.8500    1.5548   -2.3137 H         1 <0>         0.1257
     41 H16         7.4695    1.5000   -0.2755 H         1 <0>         0.1238
@<TRIPOS>BOND
     1    1    2 1
     2    1   27 1
     3    1   28 1
     4    1   29 1
     5    2    3 2
     6    2    4 am
     7    4    9 1
     8    4    5 1
     9    5    6 1
    10    5    7 1
    11    5   21 1
    12    7    8 1
    13    7   30 1
    14    7   31 1
    15    8    9 2
    16    8   10 1
    17   10   19 1
    18   10   11 2
    19   11   12 1
    20   11   32 1
    21   12   17 ar
    22   12   13 ar
    23   13   14 ar
    24   13   33 1
    25   14   15 ar
    26   14   34 1
    27   15   16 ar
    28   15   35 1
    29   16   17 ar
    30   16   36 1
    31   17   18 1
    32   18   19 1
    33   19   20 2
    34   21   26 ar
    35   21   22 ar
    36   22   23 ar
    37   22   37 1
    38   23   24 ar
    39   23   38 1
    40   24   25 ar
    41   24   39 1
    42   25   26 ar
    43   25   40 1
    44   26   41 1
@<TRIPOS>MOLECULE
ZINC13675781
   48    51     0     0     0
SMALL
USER_CHARGES
N,N-dimethyl-N'-(10H-quinolino[3,2-b]indol-11-yl)propane-1,3-diamine
@<TRIPOS>ATOM
      1 C1         -4.8876    5.8146   -0.3168 C.3       1 <0>        -0.0442
      2 C2         -2.8676    5.3899   -1.5824 C.3       1 <0>        -0.0491
      3 C3         -3.1691    4.3722    0.5938 C.3       1 <0>        -0.0052
      4 C4         -2.2651    3.1834    0.2616 C.3       1 <0>        -0.1538
      5 C5         -1.5683    2.7010    1.5355 C.3       1 <0>         0.0613
      6 N1         -0.7003    1.5596    1.2166 N.pl3     1 <0>        -0.6418
      7 C6          0.0388    1.1709    2.3266 C.ar      1 <0>         0.2512
      8 C7          1.3598    1.6327    2.5182 C.ar      1 <0>        -0.0617
      9 C8          1.9678    2.4968    1.5947 C.ar      1 <0>        -0.0517
     10 C9          3.2431    2.9232    1.8090 C.ar      1 <0>        -0.1055
     11 C10         3.9543    2.5125    2.9350 C.ar      1 <0>        -0.0244
     12 C11         3.3964    1.6755    3.8507 C.ar      1 <0>        -0.1526
     13 C12         2.0800    1.2128    3.6646 C.ar      1 <0>         0.1708
     14 C13         0.2775   -0.0573    4.3937 C.ar      1 <0>         0.2251
     15 C14        -0.5026    0.3200    3.2850 C.ar      1 <0>         0.0562
     16 N2         -1.7399   -0.3020    3.3854 N.pl3     1 <0>        -0.6040
     17 H1         -2.4620   -0.2088    2.7445 H         1 <0>         0.4324
     18 C15        -1.7956   -1.0682    4.5349 C.ar      1 <0>         0.1920
     19 C16        -0.5682   -0.9557    5.2047 C.ar      1 <0>        -0.1631
     20 C17        -0.3612   -1.6368    6.4022 C.ar      1 <0>        -0.0346
     21 C18        -1.3665   -2.4212    6.9258 C.ar      1 <0>        -0.1301
     22 C19        -2.5803   -2.5332    6.2655 C.ar      1 <0>        -0.0263
     23 C20        -2.7985   -1.8647    5.0800 C.ar      1 <0>        -0.1430
     24 H2         -4.4443    6.6741    0.1861 H         1 <0>         0.1253
     25 H3         -5.3666    6.1409   -1.2399 H         1 <0>         0.1275
     26 H4         -5.6304    5.3553    0.3354 H         1 <0>         0.1226
     27 H5         -2.1420    4.6219   -1.8504 H         1 <0>         0.1223
     28 H6         -3.3895    5.7252   -2.4787 H         1 <0>         0.1271
     29 H7         -2.3512    6.2341   -1.1254 H         1 <0>         0.1256
     30 H8         -3.9183    4.0661    1.3240 H         1 <0>         0.1304
     31 H9         -2.5677    5.1815    1.0077 H         1 <0>         0.1355
     32 H10        -1.5160    3.4894   -0.4686 H         1 <0>         0.1069
     33 H11        -2.8665    2.3740   -0.1523 H         1 <0>         0.0943
     34 H12        -0.9669    3.5103    1.9494 H         1 <0>         0.1015
     35 H13        -2.3174    2.3949    2.2657 H         1 <0>         0.0595
     36 H14        -1.2377    0.7875    0.8516 H         1 <0>         0.3764
     37 H15         1.4270    2.8217    0.7182 H         1 <0>         0.1599
     38 H16         3.7094    3.5885    1.0974 H         1 <0>         0.1542
     39 H17         4.9645    2.8647    3.0830 H         1 <0>         0.1579
     40 H18         3.9617    1.3667    4.7176 H         1 <0>         0.1585
     41 H19         0.5834   -1.5504    6.9186 H         1 <0>         0.1407
     42 H20        -1.2081   -2.9500    7.8540 H         1 <0>         0.1511
     43 H21        -3.3622   -3.1496    6.6840 H         1 <0>         0.1533
     44 H22        -3.7479   -1.9591    4.5740 H         1 <0>         0.1453
     45 N3         -3.8506    4.8126   -0.6417 N.4       1 <0>        -0.3972
     46 H23        -4.2980    4.0008   -1.0833 H         1 <0>         0.4323
     47 N4          1.5558    0.3674    4.6146 N.ar      1 <0>        -0.4817
     48 H24         2.0929    0.0739    5.4390 H         1 <0>         0.4729
@<TRIPOS>BOND
     1    1   24 1
     2    1   25 1
     3    1   26 1
     4    1   45 1
     5    2   27 1
     6    2   28 1
     7    2   29 1
     8    2   45 1
     9    3    4 1
    10    3   30 1
    11    3   31 1
    12    3   45 1
    13    4    5 1
    14    4   32 1
    15    4   33 1
    16    5    6 1
    17    5   34 1
    18    5   35 1
    19    6    7 1
    20    6   36 1
    21    7   15 ar
    22    7    8 ar
    23    8   13 ar
    24    8    9 ar
    25    9   10 ar
    26    9   37 1
    27   10   11 ar
    28   10   38 1
    29   11   12 ar
    30   11   39 1
    31   12   13 ar
    32   12   40 1
    33   13   47 ar
    34   14   19 1
    35   14   15 ar
    36   14   47 ar
    37   15   16 1
    38   16   17 1
    39   16   18 1
    40   18   23 ar
    41   18   19 ar
    42   19   20 ar
    43   20   21 ar
    44   20   41 1
    45   21   22 ar
    46   21   42 1
    47   22   23 ar
    48   22   43 1
    49   23   44 1
    50   45   46 1
    51   47   48 1
@<TRIPOS>MOLECULE
ZINC00057844
   31    33     0     0     0
SMALL
USER_CHARGES
2-(3,4-dihydroxyphenyl)-7,8-dihydroxy-chromen-4-one
@<TRIPOS>ATOM
      1 C1         -3.6976    3.3231    0.0513 C.ar      1 <0>        -0.0696
      2 C2         -4.8937    4.0081    0.0718 C.ar      1 <0>        -0.1316
      3 C3         -4.9023    5.3958    0.0793 C.ar      1 <0>         0.1108
      4 C4         -3.7012    6.1038    0.0717 C.ar      1 <0>         0.0790
      5 C5         -2.4989    5.4241    0.0565 C.ar      1 <0>        -0.0887
      6 C6         -2.4901    4.0261    0.0489 C.ar      1 <0>        -0.0680
      7 C7         -1.2092    3.2950    0.0323 C.2       1 <0>         0.2115
      8 C8         -1.2322    1.9341    0.0183 C.2       1 <0>        -0.3126
      9 C9         -0.0145    1.2160    0.0087 C.2       1 <0>         0.4244
     10 O1          0.0021   -0.0041    0.0020 O.2       1 <0>        -0.4636
     11 C10         1.2355    1.9996    0.0010 C.ar      1 <0>        -0.2189
     12 C11         2.4824    1.3742   -0.0148 C.ar      1 <0>        -0.0201
     13 C12         3.6217    2.1290   -0.0220 C.ar      1 <0>        -0.1564
     14 C13         3.5463    3.5186   -0.0138 C.ar      1 <0>         0.1482
     15 C14         2.3137    4.1575    0.0024 C.ar      1 <0>         0.0588
     16 C15         1.1461    3.4012    0.0094 C.ar      1 <0>         0.1386
     17 O2         -0.0653    3.9971    0.0247 O.3       1 <0>        -0.2101
     18 O3          2.2481    5.5167    0.0103 O.3       1 <0>        -0.4686
     19 O4          4.6876    4.2557   -0.0212 O.3       1 <0>        -0.4779
     20 O5         -3.7134    7.4637    0.0795 O.3       1 <0>        -0.4823
     21 O6         -6.0839    6.0660    0.0937 O.3       1 <0>        -0.4845
     22 H1         -3.6938    2.2432    0.0410 H         1 <0>         0.1454
     23 H2         -5.8264    3.4635    0.0777 H         1 <0>         0.1470
     24 H3         -1.5679    5.9713    0.0509 H         1 <0>         0.1474
     25 H4         -2.1745    1.4063    0.0193 H         1 <0>         0.1656
     26 H5          2.5473    0.2961   -0.0216 H         1 <0>         0.1526
     27 H6          4.5866    1.6441   -0.0346 H         1 <0>         0.1496
     28 H7          2.2200    5.9143   -0.8707 H         1 <0>         0.3892
     29 H8          5.0092    4.4739   -0.9066 H         1 <0>         0.3986
     30 H9         -3.7252    7.8620   -0.8015 H         1 <0>         0.3914
     31 H10        -6.4342    6.2645   -0.7854 H         1 <0>         0.3947
@<TRIPOS>BOND
     1    1    6 ar
     2    1    2 ar
     3    1   22 1
     4    2    3 ar
     5    2   23 1
     6    3    4 ar
     7    3   21 1
     8    4    5 ar
     9    4   20 1
    10    5    6 ar
    11    5   24 1
    12    6    7 1
    13    7   17 1
    14    7    8 2
    15    8    9 1
    16    8   25 1
    17    9   10 2
    18    9   11 1
    19   11   16 ar
    20   11   12 ar
    21   12   13 ar
    22   12   26 1
    23   13   14 ar
    24   13   27 1
    25   14   15 ar
    26   14   19 1
    27   15   16 ar
    28   15   18 1
    29   16   17 1
    30   18   28 1
    31   19   29 1
    32   20   30 1
    33   21   31 1
@<TRIPOS>MOLECULE
ZINC04097756
   33    34     0     0     0
SMALL
USER_CHARGES
3-(3,4-dihydroxyphenyl)-1-(2,3,4-trihydroxyphenyl)-prop-2-en-1-one
@<TRIPOS>ATOM
      1 C1         -2.5072    8.4749    0.0711 C.ar      1 <0>        -0.0900
      2 C2         -2.5189    9.8526    0.0781 C.ar      1 <0>        -0.1323
      3 C3         -3.7250   10.5401    0.0924 C.ar      1 <0>         0.0964
      4 C4         -4.9317    9.8402    0.1001 C.ar      1 <0>         0.0794
      5 C5         -4.9296    8.4599    0.0883 C.ar      1 <0>        -0.1035
      6 C6         -3.7136    7.7653    0.0788 C.ar      1 <0>        -0.0743
      7 C7         -3.7043    6.2961    0.0708 C.2       1 <0>        -0.0104
      8 C8         -2.5297    5.6279    0.0560 C.2       1 <0>        -0.2322
      9 C9         -2.5205    4.1661    0.0480 C.2       1 <0>         0.4232
     10 O1         -3.5715    3.5503    0.0547 O.2       1 <0>        -0.4396
     11 C10        -1.2390    3.4371    0.0318 C.ar      1 <0>        -0.1860
     12 C11        -0.0305    4.1417    0.0241 C.ar      1 <0>        -0.0498
     13 C12         1.1643    3.4596    0.0095 C.ar      1 <0>        -0.1530
     14 C13         1.1779    2.0687    0.0019 C.ar      1 <0>         0.1309
     15 C14        -0.0164    1.3568    0.0095 C.ar      1 <0>         0.0393
     16 C15        -1.2273    2.0347    0.0189 C.ar      1 <0>         0.1574
     17 O2         -2.3957    1.3431    0.0211 O.3       1 <0>        -0.4667
     18 O3          0.0021   -0.0041    0.0020 O.3       1 <0>        -0.4774
     19 O4          2.3620    1.4036   -0.0125 O.3       1 <0>        -0.4892
     20 O5         -6.1106   10.5181    0.1137 O.3       1 <0>        -0.4857
     21 O6         -3.7301   11.8983    0.0984 O.3       1 <0>        -0.4866
     22 H1         -1.5675    7.9427    0.0592 H         1 <0>         0.1366
     23 H2         -1.5874   10.3991    0.0722 H         1 <0>         0.1395
     24 H3         -5.8632    7.9170    0.0898 H         1 <0>         0.1408
     25 H4         -4.6361    5.7502    0.0767 H         1 <0>         0.1383
     26 H5         -1.5979    6.1738    0.0500 H         1 <0>         0.1355
     27 H6         -0.0354    5.2217    0.0299 H         1 <0>         0.1442
     28 H7          2.0957    4.0064    0.0035 H         1 <0>         0.1447
     29 H8         -2.7298    1.1383    0.9052 H         1 <0>         0.3956
     30 H9          0.0158   -0.4021    0.8832 H         1 <0>         0.3914
     31 H10         2.6966    1.2155   -0.9000 H         1 <0>         0.4016
     32 H11        -6.4595   10.7180   -0.7658 H         1 <0>         0.3902
     33 H12        -3.7398   12.2954   -0.7832 H         1 <0>         0.3916
@<TRIPOS>BOND
     1    1    6 ar
     2    1    2 ar
     3    1   22 1
     4    2    3 ar
     5    2   23 1
     6    3    4 ar
     7    3   21 1
     8    4    5 ar
     9    4   20 1
    10    5    6 ar
    11    5   24 1
    12    6    7 1
    13    7    8 2
    14    7   25 1
    15    8    9 1
    16    8   26 1
    17    9   10 2
    18    9   11 1
    19   11   16 ar
    20   11   12 ar
    21   12   13 ar
    22   12   27 1
    23   13   14 ar
    24   13   28 1
    25   14   15 ar
    26   14   19 1
    27   15   16 ar
    28   15   18 1
    29   16   17 1
    30   17   29 1
    31   18   30 1
    32   19   31 1
    33   20   32 1
    34   21   33 1
@<TRIPOS>MOLECULE
ZINC13488964
   41    43     0     0     0
SMALL
USER_CHARGES
2-[[(E)-3-(2-naphthyl)but-2-enoyl]amino]benzoic acid
@<TRIPOS>ATOM
      1 C1          0.2008    8.0609    0.9854 C.3       1 <0>        -0.1142
      2 C2          1.1089    7.3758   -0.0030 C.2       1 <0>        -0.0072
      3 C3          1.6566    8.0790   -1.0159 C.2       1 <0>        -0.1943
      4 C4          1.5029    9.5333   -1.0638 C.2       1 <0>         0.5417
      5 O1          0.9961   10.1229   -0.1274 O.2       1 <0>        -0.5386
      6 N1          1.9227   10.2200   -2.1448 N.am      1 <0>        -0.6382
      7 C5          1.6965   11.5900   -2.2296 C.ar      1 <0>         0.1725
      8 C6          1.7674   12.3811   -1.0901 C.ar      1 <0>        -0.1391
      9 C7          1.5483   13.7408   -1.1775 C.ar      1 <0>        -0.1081
     10 C8          1.2451   14.3258   -2.3968 C.ar      1 <0>        -0.1559
     11 C9          1.1647   13.5567   -3.5370 C.ar      1 <0>        -0.0623
     12 C10         1.3897   12.1792   -3.4660 C.ar      1 <0>        -0.1443
     13 C11         1.3048   11.3505   -4.6815 C.2       1 <0>         0.4945
     14 O2          1.3940   10.1414   -4.5999 O.co2     1 <0>        -0.6335
     15 C12         1.3983    5.9402    0.1365 C.ar      1 <0>        -0.0496
     16 C13         2.7111    5.5155    0.4213 C.ar      1 <0>        -0.0949
     17 C14         3.0015    4.1973    0.5544 C.ar      1 <0>        -0.1070
     18 C15         1.9864    3.2332    0.4077 C.ar      1 <0>        -0.0503
     19 C16         2.2650    1.8630    0.5405 C.ar      1 <0>        -0.1071
     20 C17         1.2632    0.9527    0.3929 C.ar      1 <0>        -0.1180
     21 C18        -0.0388    1.3581    0.1058 C.ar      1 <0>        -0.1200
     22 C19        -0.3485    2.6769   -0.0248 C.ar      1 <0>        -0.1025
     23 C20         0.6603    3.6466    0.1209 C.ar      1 <0>        -0.0501
     24 C21         0.3762    5.0132   -0.0137 C.ar      1 <0>        -0.0882
     25 H1          0.8008    8.5316    1.7643 H         1 <0>         0.0803
     26 H2         -0.3882    8.8206    0.4716 H         1 <0>         0.0921
     27 H3         -0.4668    7.3262    1.4353 H         1 <0>         0.0535
     28 H4          2.2083    7.5684   -1.7914 H         1 <0>         0.1315
     29 H5          2.3826    9.7590   -2.8638 H         1 <0>         0.4233
     30 H6          1.9987   11.9322   -0.1354 H         1 <0>         0.1329
     31 H7          1.6090   14.3522   -0.2894 H         1 <0>         0.1163
     32 H8          1.0707   15.3901   -2.4533 H         1 <0>         0.1160
     33 H9          0.9278   14.0177   -4.4845 H         1 <0>         0.1320
     34 H10         3.4959    6.2486    0.5354 H         1 <0>         0.1279
     35 H11         4.0127    3.8870    0.7728 H         1 <0>         0.1291
     36 H12         3.2699    1.5328    0.7586 H         1 <0>         0.1259
     37 H13         1.4819   -0.0999    0.4955 H         1 <0>         0.1214
     38 H14        -0.8142    0.6153   -0.0105 H         1 <0>         0.1222
     39 H15        -1.3625    2.9773   -0.2437 H         1 <0>         0.1276
     40 H16        -0.6293    5.3416   -0.2319 H         1 <0>         0.1320
     41 O3          1.1283   11.9335   -5.8836 O.co2     1 <0>        -0.7489
@<TRIPOS>BOND
     1    1    2 1
     2    1   25 1
     3    1   26 1
     4    1   27 1
     5    2    3 2
     6    2   15 1
     7    3    4 1
     8    3   28 1
     9    4    5 2
    10    4    6 am
    11    6    7 1
    12    6   29 1
    13    7   12 ar
    14    7    8 ar
    15    8    9 ar
    16    8   30 1
    17    9   10 ar
    18    9   31 1
    19   10   11 ar
    20   10   32 1
    21   11   12 ar
    22   11   33 1
    23   12   13 1
    24   13   14 2
    25   13   41 1
    26   15   24 ar
    27   15   16 ar
    28   16   17 ar
    29   16   34 1
    30   17   18 ar
    31   17   35 1
    32   18   23 ar
    33   18   19 ar
    34   19   20 ar
    35   19   36 1
    36   20   21 ar
    37   20   37 1
    38   21   22 ar
    39   21   38 1
    40   22   23 ar
    41   22   39 1
    42   23   24 ar
    43   24   40 1
@<TRIPOS>MOLECULE
ZINC13488965
   41    43     0     0     0
SMALL
USER_CHARGES
2-[[(Z)-3-(2-naphthyl)but-2-enoyl]amino]benzoic acid
@<TRIPOS>ATOM
      1 C1         -0.0159    1.0682    0.0133 C.3       1 <0>        -0.1183
      2 C2         -0.7193    1.5667    1.2493 C.2       1 <0>        -0.0140
      3 C3         -2.0531    1.7695    1.2309 C.2       1 <0>        -0.1946
      4 C4         -2.7362    2.2535    2.4309 C.2       1 <0>         0.5294
      5 O1         -2.1012    2.4731    3.4457 O.2       1 <0>        -0.5228
      6 N1         -4.0685    2.4560    2.4126 N.am      1 <0>        -0.6401
      7 C5         -4.7353    2.8046    3.5827 C.ar      1 <0>         0.1808
      8 C6         -4.2075    2.4526    4.8182 C.ar      1 <0>        -0.1511
      9 C7         -4.8684    2.8033    5.9778 C.ar      1 <0>        -0.1030
     10 C8         -6.0657    3.4990    5.9202 C.ar      1 <0>        -0.1625
     11 C9         -6.6075    3.8523    4.7038 C.ar      1 <0>        -0.0579
     12 C10        -5.9478    3.5088    3.5206 C.ar      1 <0>        -0.1542
     13 C11        -6.5219    3.8831    2.2161 C.2       1 <0>         0.4989
     14 O2         -5.9940    3.5051    1.1890 O.co2     1 <0>        -0.6370
     15 C12         0.0481    1.8322    2.4758 C.ar      1 <0>        -0.0252
     16 C13         0.1473    3.1486    2.9680 C.ar      1 <0>        -0.0427
     17 C14         0.8445    3.4165    4.1002 C.ar      1 <0>        -0.1169
     18 C15         1.4907    2.3756    4.7934 C.ar      1 <0>        -0.0428
     19 C16         2.2233    2.6315    5.9640 C.ar      1 <0>        -0.1063
     20 C17         2.8386    1.6051    6.6136 C.ar      1 <0>        -0.1242
     21 C18         2.7539    0.2990    6.1351 C.ar      1 <0>        -0.1260
     22 C19         2.0534    0.0119    5.0042 C.ar      1 <0>        -0.1052
     23 C20         1.4042    1.0465    4.3059 C.ar      1 <0>        -0.0502
     24 C21         0.6745    0.7850    3.1373 C.ar      1 <0>        -0.1028
     25 H1          0.0021   -0.0217    0.0201 H         1 <0>         0.0790
     26 H2          1.0056    1.4483   -0.0016 H         1 <0>         0.0723
     27 H3         -0.5465    1.4173   -0.8725 H         1 <0>         0.0759
     28 H4         -2.6166    1.5745    0.3304 H         1 <0>         0.1364
     29 H5         -4.5625    2.3587    1.5835 H         1 <0>         0.4274
     30 H6         -3.2768    1.9072    4.8717 H         1 <0>         0.1404
     31 H7         -4.4520    2.5305    6.9362 H         1 <0>         0.1149
     32 H8         -6.5768    3.7652    6.8336 H         1 <0>         0.1150
     33 H9         -7.5412    4.3938    4.6646 H         1 <0>         0.1315
     34 H10        -0.3416    3.9537    2.4397 H         1 <0>         0.1158
     35 H11         0.9078    4.4301    4.4677 H         1 <0>         0.1220
     36 H12         2.2979    3.6383    6.3477 H         1 <0>         0.1227
     37 H13         3.4012    1.8063    7.5133 H         1 <0>         0.1178
     38 H14         3.2517   -0.4969    6.6692 H         1 <0>         0.1178
     39 H15         1.9963   -1.0048    4.6444 H         1 <0>         0.1221
     40 H16         0.6008   -0.2224    2.7552 H         1 <0>         0.1227
     41 O3         -7.6324    4.6447    2.1621 O.co2     1 <0>        -0.7451
@<TRIPOS>BOND
     1    1    2 1
     2    1   25 1
     3    1   26 1
     4    1   27 1
     5    2    3 2
     6    2   15 1
     7    3    4 1
     8    3   28 1
     9    4    5 2
    10    4    6 am
    11    6    7 1
    12    6   29 1
    13    7   12 ar
    14    7    8 ar
    15    8    9 ar
    16    8   30 1
    17    9   10 ar
    18    9   31 1
    19   10   11 ar
    20   10   32 1
    21   11   12 ar
    22   11   33 1
    23   12   13 1
    24   13   14 2
    25   13   41 1
    26   15   24 ar
    27   15   16 ar
    28   16   17 ar
    29   16   34 1
    30   17   18 ar
    31   17   35 1
    32   18   23 ar
    33   18   19 ar
    34   19   20 ar
    35   19   36 1
    36   20   21 ar
    37   20   37 1
    38   21   22 ar
    39   21   38 1
    40   22   23 ar
    41   22   39 1
    42   23   24 ar
    43   24   40 1
@<TRIPOS>MOLECULE
ZINC00119632
   44    47     0     0     0
SMALL
USER_CHARGES

@<TRIPOS>ATOM
      1 C1          0.1715    1.6923   -0.0834 C.3       1 <0>        -0.1743
      2 C2          0.0455    0.1679   -0.0498 C.3       1 <0>         0.0257
      3 N1          0.6012   -0.3953   -1.2827 N.ar      1 <0>        -0.3384
      4 C3         -0.2026   -0.5044   -2.3519 C.ar      1 <0>         0.1284
      5 C4         -1.5395   -0.0845   -2.2735 C.ar      1 <0>        -0.2236
      6 C5         -2.3603   -0.1992   -3.3769 C.ar      1 <0>         0.2635
      7 C6         -1.8741   -0.7304   -4.5737 C.ar      1 <0>        -0.1464
      8 C7         -0.5781   -1.1446   -4.6718 C.ar      1 <0>        -0.0411
      9 C8          0.2744   -1.0395   -3.5711 C.ar      1 <0>        -0.0750
     10 C9          1.6723   -1.4772   -3.6491 C.ar      1 <0>        -0.0189
     11 C10         2.2215   -2.0149   -4.8122 C.ar      1 <0>        -0.0723
     12 C11         3.5299   -2.4048   -4.8259 C.ar      1 <0>        -0.1118
     13 C12         4.3265   -2.2715   -3.6868 C.ar      1 <0>         0.2299
     14 C13         3.8054   -1.7416   -2.5208 C.ar      1 <0>        -0.1562
     15 C14         2.4697   -1.3373   -2.4893 C.ar      1 <0>        -0.0623
     16 C15         1.8615   -0.7628   -1.2871 C.ar      1 <0>         0.3312
     17 C16         2.6759   -0.5993   -0.0614 C.ar      1 <0>        -0.1258
     18 C17         3.8200    0.1986   -0.0819 C.ar      1 <0>        -0.0683
     19 C18         4.5747    0.3470    1.0635 C.ar      1 <0>        -0.1107
     20 C19         4.1991   -0.2940    2.2307 C.ar      1 <0>        -0.0740
     21 C20         3.0655   -1.0868    2.2574 C.ar      1 <0>        -0.1087
     22 C21         2.2990   -1.2380    1.1202 C.ar      1 <0>        -0.0895
     23 N2          5.6622   -2.6775   -3.7256 N.pl3     1 <0>        -0.8602
     24 N3         -3.6895    0.2193   -3.2960 N.pl3     1 <0>        -0.8552
     25 H1          1.2256    1.9700   -0.0776 H         1 <0>         0.0740
     26 H2         -0.3004    2.0761   -0.9879 H         1 <0>         0.0757
     27 H3         -0.3208    2.1170    0.7915 H         1 <0>         0.1007
     28 H4          0.5934   -0.2232    0.8075 H         1 <0>         0.1312
     29 H5         -1.0056   -0.1080    0.0342 H         1 <0>         0.1257
     30 H6         -1.9248    0.3269   -1.3522 H         1 <0>         0.1467
     31 H7         -2.5295   -0.8142   -5.4280 H         1 <0>         0.1476
     32 H8         -0.2113   -1.5540   -5.6015 H         1 <0>         0.1526
     33 H9          1.6143   -2.1229   -5.6988 H         1 <0>         0.1506
     34 H10         3.9535   -2.8215   -5.7278 H         1 <0>         0.1471
     35 H11         4.4261   -1.6411   -1.6427 H         1 <0>         0.1455
     36 H12         4.1146    0.6990   -0.9926 H         1 <0>         0.1380
     37 H13         5.4606    0.9644    1.0489 H         1 <0>         0.1430
     38 H14         4.7935   -0.1754    3.1245 H         1 <0>         0.1408
     39 H15         2.7775   -1.5846    3.1716 H         1 <0>         0.1427
     40 H16         1.4117   -1.8532    1.1436 H         1 <0>         0.1342
     41 H17         6.0324   -3.0501   -4.5410 H         1 <0>         0.4099
     42 H18         6.2197   -2.5870   -2.9370 H         1 <0>         0.4081
     43 H19        -4.0322    0.5886   -2.4670 H         1 <0>         0.4084
     44 H20        -4.2706    0.1408   -4.0687 H         1 <0>         0.4120
@<TRIPOS>BOND
     1    1    2 1
     2    1   25 1
     3    1   26 1
     4    1   27 1
     5    2    3 1
     6    2   28 1
     7    2   29 1
     8    3   16 ar
     9    3    4 ar
    10    4    9 ar
    11    4    5 ar
    12    5    6 ar
    13    5   30 1
    14    6    7 ar
    15    6   24 1
    16    7    8 ar
    17    7   31 1
    18    8    9 ar
    19    8   32 1
    20    9   10 ar
    21   10   15 ar
    22   10   11 ar
    23   11   12 ar
    24   11   33 1
    25   12   13 ar
    26   12   34 1
    27   13   14 ar
    28   13   23 1
    29   14   15 ar
    30   14   35 1
    31   15   16 ar
    32   16   17 1
    33   17   22 ar
    34   17   18 ar
    35   18   19 ar
    36   18   36 1
    37   19   20 ar
    38   19   37 1
    39   20   21 ar
    40   20   38 1
    41   21   22 ar
    42   21   39 1
    43   22   40 1
    44   23   41 1
    45   23   42 1
    46   24   43 1
    47   24   44 1
@<TRIPOS>MOLECULE
ZINC27519870
   90    95     0     0     0
SMALL
USER_CHARGES

@<TRIPOS>ATOM
      1 C1         -3.9164   -7.1495   -2.7900 C.3       1 <0>         0.0879
      2 N1         -2.5222   -6.9097   -2.4095 N.pl3     1 <0>        -0.6324
      3 C2         -1.9130   -7.6902   -1.3296 C.3       1 <0>         0.0882
      4 C3         -1.7723   -5.9354   -3.0774 C.ar      1 <0>         0.2046
      5 C4         -0.4488   -5.7121   -2.7204 C.ar      1 <0>        -0.1529
      6 C5          0.2911   -4.7507   -3.3794 C.ar      1 <0>        -0.1004
      7 C6         -0.2880   -4.0071   -4.3997 C.ar      1 <0>         0.1034
      8 C7         -1.6115   -4.2308   -4.7569 C.ar      1 <0>        -0.1235
      9 C8         -2.3499   -5.1955   -4.1011 C.ar      1 <0>        -0.1618
     10 N2          0.4619   -3.0321   -5.0675 N.pl3     1 <0>        -0.7243
     11 C9         -0.1526   -2.1841   -5.9640 C.ar      1 <0>         0.4116
     12 C10        -0.7473   -0.9809   -5.5377 C.ar      1 <0>        -0.1505
     13 C11        -0.7350   -0.6033   -4.1834 C.ar      1 <0>         0.0073
     14 C12        -1.3169    0.5639   -3.8031 C.ar      1 <0>        -0.1534
     15 C13        -1.9346    1.4078   -4.7332 C.ar      1 <0>         0.2606
     16 C14        -1.9778    1.0908   -6.0715 C.ar      1 <0>        -0.1948
     17 C15        -1.3897   -0.1068   -6.5203 C.ar      1 <0>         0.2405
     18 N3         -1.4176   -0.4365   -7.8111 N.ar      1 <0>        -0.5019
     19 C16        -0.8677   -1.5652   -8.2576 C.ar      1 <0>         0.2400
     20 C17        -0.2016   -2.4888   -7.3380 C.ar      1 <0>        -0.1506
     21 C18         0.3735   -3.6685   -7.8425 C.ar      1 <0>         0.0065
     22 C19         0.3095   -3.9346   -9.1732 C.ar      1 <0>        -0.1510
     23 C20        -0.3195   -3.0566  -10.0632 C.ar      1 <0>         0.2634
     24 C21        -0.9094   -1.8927   -9.6261 C.ar      1 <0>        -0.1870
     25 N4         -0.3587   -3.3736  -11.4227 N.am      1 <0>        -0.6711
     26 C22        -0.1833   -2.4071  -12.3454 C.2       1 <0>         0.5300
     27 O1          0.0947   -1.2792  -11.9968 O.2       1 <0>        -0.5034
     28 C23        -0.3326   -2.7278  -13.8103 C.3       1 <0>        -0.1740
     29 C24        -0.0838   -1.4645  -14.6369 C.3       1 <0>         0.0104
     30 N5         -0.2293   -1.7772  -16.0648 N.4       1 <0>        -0.3961
     31 C25        -1.6490   -2.0782  -16.3811 C.3       1 <0>        -0.0111
     32 C26        -1.7340   -1.8235  -17.9070 C.3       1 <0>        -0.1460
     33 C27        -0.8139   -0.5969  -18.1045 C.3       1 <0>        -0.1465
     34 C28         0.1249   -0.5976  -16.8838 C.3       1 <0>        -0.0071
     35 N6         -2.5201    2.5969   -4.2934 N.am      1 <0>        -0.6653
     36 C29        -2.5117    3.6860   -5.0873 C.2       1 <0>         0.5310
     37 O2         -2.0704    3.6114   -6.2145 O.2       1 <0>        -0.5045
     38 C30        -3.0506    4.9966   -4.5743 C.3       1 <0>        -0.1740
     39 C31        -2.9248    6.0618   -5.6653 C.3       1 <0>         0.0105
     40 N7         -3.4501    7.3393   -5.1653 N.4       1 <0>        -0.3961
     41 C32        -2.5617    7.8782   -4.1039 C.3       1 <0>        -0.0117
     42 C33        -2.8953    9.3912   -4.0968 C.3       1 <0>        -0.1459
     43 C34        -3.1110    9.7047   -5.5952 C.3       1 <0>        -0.1467
     44 C35        -3.4470    8.3498   -6.2453 C.3       1 <0>        -0.0068
     45 H1         -4.5695   -6.5047   -2.2020 H         1 <0>         0.0528
     46 H2         -4.0468   -6.9295   -3.8496 H         1 <0>         0.0667
     47 H3         -4.1702   -8.1926   -2.6015 H         1 <0>         0.0745
     48 H4         -2.6446   -8.3940   -0.9327 H         1 <0>         0.0805
     49 H5         -1.0544   -8.2385   -1.7173 H         1 <0>         0.0592
     50 H6         -1.5868   -7.0187   -0.5354 H         1 <0>         0.0589
     51 H7          0.0015   -6.2903   -1.9271 H         1 <0>         0.1340
     52 H8          1.3201   -4.5766   -3.1014 H         1 <0>         0.1314
     53 H9         -2.0619   -3.6526   -5.5502 H         1 <0>         0.1076
     54 H10        -3.3778   -5.3720   -4.3814 H         1 <0>         0.1285
     55 H11         1.4139   -2.9531   -4.8995 H         1 <0>         0.4312
     56 H12        -0.2647   -1.2391   -3.4479 H         1 <0>         0.1682
     57 H13        -1.3029    0.8464   -2.7608 H         1 <0>         0.1590
     58 H14        -2.4599    1.7560   -6.7726 H         1 <0>         0.1728
     59 H15         0.8647   -4.3605   -7.1746 H         1 <0>         0.1686
     60 H16         0.7537   -4.8430   -9.5523 H         1 <0>         0.1592
     61 H17        -1.3897   -1.2289  -10.3297 H         1 <0>         0.1605
     62 H18        -0.5122   -4.2895  -11.7028 H         1 <0>         0.4310
     63 H19         0.3910   -3.4935  -14.0902 H         1 <0>         0.1295
     64 H20        -1.3413   -3.0940  -14.0011 H         1 <0>         0.1278
     65 H21        -0.8073   -0.6989  -14.3570 H         1 <0>         0.1378
     66 H22         0.9249   -1.0983  -14.4461 H         1 <0>         0.1404
     67 H23        -1.8823   -3.1178  -16.1511 H         1 <0>         0.1361
     68 H24        -2.3146   -1.4049  -15.8410 H         1 <0>         0.1336
     69 H25        -1.3570   -2.6819  -18.4630 H         1 <0>         0.1016
     70 H26        -2.7568   -1.5900  -18.2028 H         1 <0>         0.1193
     71 H27        -0.2384   -0.6998  -19.0244 H         1 <0>         0.1093
     72 H28        -1.4043    0.3191  -18.1272 H         1 <0>         0.1053
     73 H29        -0.0194    0.3140  -16.3039 H         1 <0>         0.1313
     74 H30         1.1614   -0.6716  -17.2126 H         1 <0>         0.1360
     75 H31        -2.9328    2.6391   -3.4166 H         1 <0>         0.4316
     76 H32        -4.0994    4.8768   -4.3028 H         1 <0>         0.1295
     77 H33        -2.4813    5.3053   -3.6976 H         1 <0>         0.1289
     78 H34        -1.8759    6.1816   -5.9369 H         1 <0>         0.1395
     79 H35        -3.4941    5.7530   -6.5420 H         1 <0>         0.1388
     80 H36        -2.7972    7.4278   -3.1397 H         1 <0>         0.1365
     81 H37        -1.5146    7.7163   -4.3599 H         1 <0>         0.1350
     82 H38        -3.8049    9.5829   -3.5278 H         1 <0>         0.1013
     83 H39        -2.0609    9.9683   -3.6982 H         1 <0>         0.1201
     84 H40        -3.9406   10.4005   -5.7205 H         1 <0>         0.1090
     85 H41        -2.2008   10.1177   -6.0301 H         1 <0>         0.1060
     86 H42        -2.6907    8.0968   -6.9883 H         1 <0>         0.1315
     87 H43        -4.4303    8.3961   -6.7133 H         1 <0>         0.1351
     88 H44         0.3567   -2.5606  -16.3114 H         1 <0>         0.4293
     89 H45        -4.3854    7.2152   -4.8076 H         1 <0>         0.4285
     90 H46        -1.8496    0.1603   -8.4420 H         1 <0>         0.4416
@<TRIPOS>BOND
     1    1    2 1
     2    1   45 1
     3    1   46 1
     4    1   47 1
     5    2    3 1
     6    2    4 1
     7    3   48 1
     8    3   49 1
     9    3   50 1
    10    4    9 ar
    11    4    5 ar
    12    5    6 ar
    13    5   51 1
    14    6    7 ar
    15    6   52 1
    16    7    8 ar
    17    7   10 1
    18    8    9 ar
    19    8   53 1
    20    9   54 1
    21   10   11 1
    22   10   55 1
    23   11   20 ar
    24   11   12 ar
    25   12   17 ar
    26   12   13 ar
    27   13   14 ar
    28   13   56 1
    29   14   15 ar
    30   14   57 1
    31   15   16 ar
    32   15   35 1
    33   16   17 ar
    34   16   58 1
    35   17   18 ar
    36   18   19 ar
    37   18   90 1
    38   19   24 ar
    39   19   20 ar
    40   20   21 ar
    41   21   22 ar
    42   21   59 1
    43   22   23 ar
    44   22   60 1
    45   23   24 ar
    46   23   25 1
    47   24   61 1
    48   25   26 am
    49   25   62 1
    50   26   27 2
    51   26   28 1
    52   28   29 1
    53   28   63 1
    54   28   64 1
    55   29   30 1
    56   29   65 1
    57   29   66 1
    58   30   34 1
    59   30   31 1
    60   30   88 1
    61   31   32 1
    62   31   67 1
    63   31   68 1
    64   32   33 1
    65   32   69 1
    66   32   70 1
    67   33   34 1
    68   33   71 1
    69   33   72 1
    70   34   73 1
    71   34   74 1
    72   35   36 am
    73   35   75 1
    74   36   37 2
    75   36   38 1
    76   38   39 1
    77   38   76 1
    78   38   77 1
    79   39   40 1
    80   39   78 1
    81   39   79 1
    82   40   44 1
    83   40   41 1
    84   40   89 1
    85   41   42 1
    86   41   80 1
    87   41   81 1
    88   42   43 1
    89   42   82 1
    90   42   83 1
    91   43   44 1
    92   43   84 1
    93   43   85 1
    94   44   86 1
    95   44   87 1
@<TRIPOS>MOLECULE
ZINC04208821
   92   100     0     0     0
SMALL
USER_CHARGES

@<TRIPOS>ATOM
      1 C1         -0.0178    1.4608    0.0101 C.3       1 <0>        -0.0079
      2 N1          0.0021   -0.0041    0.0020 N.ar      1 <0>        -0.3124
      3 C2          0.0051   -0.6364   -1.1560 C.ar      1 <0>         0.1510
      4 C3          0.0236   -2.0144   -1.2109 C.ar      1 <0>        -0.0981
      5 C4          0.0392   -2.7414   -0.0131 C.ar      1 <0>         0.0067
      6 C5          0.0353   -2.0275    1.1927 C.ar      1 <0>        -0.0981
      7 C6          0.0218   -0.6488    1.1529 C.ar      1 <0>         0.1512
      8 C7          0.0588   -4.2245   -0.0212 C.ar      1 <0>         0.0565
      9 C8         -1.0494   -4.9147   -0.5455 C.ar      1 <0>         0.1443
     10 C9         -2.2391   -4.2850   -0.9753 C.ar      1 <0>        -0.0690
     11 C10        -3.0621   -5.2544   -1.4518 C.ar      1 <0>        -0.0687
     12 C11        -2.3847   -6.4867   -1.3174 C.ar      1 <0>         0.1392
     13 N2         -1.1915   -6.2473   -0.7272 N.pl3     1 <0>        -0.5646
     14 H1         -0.5422   -6.9224   -0.4754 H         1 <0>         0.3908
     15 C12        -2.8975   -7.7190   -1.7642 C.ar      1 <0>         0.0626
     16 C13        -2.2553   -8.9427   -1.5001 C.ar      1 <0>         0.1376
     17 N3         -1.1430   -9.1565   -0.7605 N.ar      1 <0>        -0.5665
     18 C14        -0.9037  -10.4859   -0.6994 C.ar      1 <0>         0.1527
     19 C15         0.1116  -11.1524    0.0119 C.ar      1 <0>         0.0469
     20 C16         1.1462  -10.4646    0.6722 C.ar      1 <0>         0.1498
     21 C17         2.1548  -11.0992    1.4317 C.ar      1 <0>        -0.0670
     22 C18         2.9928  -10.1307    1.8825 C.ar      1 <0>        -0.0738
     23 C19         2.5016   -8.8934    1.4097 C.ar      1 <0>         0.1574
     24 N4          1.3707   -9.1312    0.7081 N.pl3     1 <0>        -0.5703
     25 H2          0.8103   -8.4546    0.2970 H         1 <0>         0.3909
     26 C20         3.1319   -7.6571    1.6461 C.ar      1 <0>         0.0398
     27 C21         2.5700   -6.4331    1.2401 C.ar      1 <0>         0.1582
     28 N5          1.3687   -6.2201    0.6560 N.ar      1 <0>        -0.5689
     29 C22         1.1885   -4.8899    0.4909 C.ar      1 <0>         0.1418
     30 C23         2.3589   -4.2306    0.9291 C.2       1 <0>        -0.0637
     31 C24         3.2082   -5.1822    1.3972 C.2       1 <0>        -0.0756
     32 C25         4.4366   -7.6450    2.3520 C.ar      1 <0>         0.0128
     33 C26         4.5395   -8.0698    3.6834 C.ar      1 <0>        -0.1032
     34 C27         5.7728   -8.0420    4.3003 C.ar      1 <0>         0.1523
     35 N6          6.8445   -7.6234    3.6545 N.ar      1 <0>        -0.3138
     36 C28         6.7927   -7.2149    2.4010 C.ar      1 <0>         0.1523
     37 C29         5.6022   -7.2139    1.7046 C.ar      1 <0>        -0.1028
     38 C30         8.1329   -7.6114    4.3516 C.3       1 <0>        -0.0077
     39 C31         0.0880  -12.6345    0.0693 C.ar      1 <0>         0.0083
     40 C32        -0.9536  -13.3140    0.7149 C.ar      1 <0>        -0.0978
     41 C33        -0.9353  -14.6929    0.7434 C.ar      1 <0>         0.1510
     42 N7          0.0438  -15.3697    0.1743 N.ar      1 <0>        -0.3126
     43 C34         1.0435  -14.7704   -0.4439 C.ar      1 <0>         0.1509
     44 C35         1.1035  -13.3948   -0.5258 C.ar      1 <0>        -0.0993
     45 C36         0.0204  -16.8334    0.2309 C.3       1 <0>        -0.0079
     46 C37        -1.8689  -11.1422   -1.4959 C.2       1 <0>        -0.0726
     47 C38        -2.7025  -10.1905   -1.9892 C.2       1 <0>        -0.0652
     48 C39        -4.1588   -7.7270   -2.5444 C.ar      1 <0>         0.0093
     49 C40        -5.3670   -7.3167   -1.9651 C.ar      1 <0>        -0.1027
     50 C41        -6.5157   -7.3400   -2.7282 C.ar      1 <0>         0.1527
     51 N8         -6.4868   -7.7408   -3.9849 N.ar      1 <0>        -0.3133
     52 C42        -5.3717   -8.1352   -4.5695 C.ar      1 <0>         0.1527
     53 C43        -4.1751   -8.1395   -3.8835 C.ar      1 <0>        -0.1019
     54 C44        -7.7327   -7.7487   -4.7555 C.3       1 <0>        -0.0079
     55 H3          1.0048    1.8381    0.0023 H         1 <0>         0.1429
     56 H4         -0.5450    1.8219   -0.8730 H         1 <0>         0.1408
     57 H5         -0.5280    1.8123    0.9069 H         1 <0>         0.1409
     58 H6         -0.0074   -0.0670   -2.0736 H         1 <0>         0.2281
     59 H7          0.0256   -2.5253   -2.1625 H         1 <0>         0.1933
     60 H8          0.0466   -2.5487    2.1386 H         1 <0>         0.1935
     61 H9          0.0229   -0.0894    2.0767 H         1 <0>         0.2282
     62 H10        -2.4544   -3.2275   -0.9325 H         1 <0>         0.2049
     63 H11        -4.0521   -5.1099   -1.8585 H         1 <0>         0.2045
     64 H12         2.2427  -12.1592    1.6193 H         1 <0>         0.2053
     65 H13         3.8728  -10.2789    2.4908 H         1 <0>         0.2050
     66 H14         2.5399   -3.1661    0.9065 H         1 <0>         0.2053
     67 H15         4.1932   -5.0139    1.8069 H         1 <0>         0.2048
     68 H16         3.6664   -8.4134    4.2183 H         1 <0>         0.1938
     69 H17         5.8625   -8.3670    5.3263 H         1 <0>         0.2281
     70 H18         7.6959   -6.8806    1.9122 H         1 <0>         0.2281
     71 H19         5.5681   -6.8821    0.6774 H         1 <0>         0.1937
     72 H20         8.6345   -8.5680    4.2047 H         1 <0>         0.1426
     73 H21         8.7546   -6.8101    3.9524 H         1 <0>         0.1406
     74 H22         7.9683   -7.4473    5.4166 H         1 <0>         0.1407
     75 H23        -1.7582  -12.7665    1.1833 H         1 <0>         0.1927
     76 H24        -1.7333  -15.2259    1.2389 H         1 <0>         0.2279
     77 H25         1.8235  -15.3653   -0.8957 H         1 <0>         0.2281
     78 H26         1.9227  -12.9112   -1.0371 H         1 <0>         0.1938
     79 H27        -0.5149  -17.2220   -0.6355 H         1 <0>         0.1428
     80 H28         1.0420  -17.2135    0.2273 H         1 <0>         0.1408
     81 H29        -0.4833  -17.1538    1.1429 H         1 <0>         0.1407
     82 H30        -1.9318  -12.2047   -1.6788 H         1 <0>         0.2052
     83 H31        -3.5513  -10.3569   -2.6358 H         1 <0>         0.2046
     84 H32        -5.3982   -6.9877   -0.9369 H         1 <0>         0.1946
     85 H33        -7.4520   -7.0261   -2.2908 H         1 <0>         0.2286
     86 H34        -5.3955   -8.4552   -5.6007 H         1 <0>         0.2284
     87 H35        -3.2654   -8.4596   -4.3698 H         1 <0>         0.1939
     88 H36        -7.8600   -6.7858   -5.2503 H         1 <0>         0.1428
     89 H37        -7.6916   -8.5394   -5.5046 H         1 <0>         0.1408
     90 H38        -8.5735   -7.9267   -4.0851 H         1 <0>         0.1409
     91 H39         0.7395   -6.9104    0.3943 H         1 <0>         0.3908
     92 H40        -0.6038   -8.4673   -0.3419 H         1 <0>         0.3910
@<TRIPOS>BOND
     1    1    2 1
     2    1   55 1
     3    1   56 1
     4    1   57 1
     5    2    7 ar
     6    2    3 ar
     7    3    4 ar
     8    3   58 1
     9    4    5 ar
    10    4   59 1
    11    5    6 ar
    12    5    8 1
    13    6    7 ar
    14    6   60 1
    15    7   61 1
    16    8   29 ar
    17    8    9 ar
    18    9   13 1
    19    9   10 ar
    20   10   11 ar
    21   10   62 1
    22   11   12 ar
    23   11   63 1
    24   12   13 1
    25   12   15 ar
    26   13   14 1
    27   15   16 ar
    28   15   48 1
    29   16   47 1
    30   16   17 ar
    31   17   18 ar
    32   17   92 1
    33   18   19 ar
    34   18   46 1
    35   19   20 ar
    36   19   39 1
    37   20   24 1
    38   20   21 ar
    39   21   22 ar
    40   21   64 1
    41   22   23 ar
    42   22   65 1
    43   23   24 1
    44   23   26 ar
    45   24   25 1
    46   26   27 ar
    47   26   32 1
    48   27   31 1
    49   27   28 ar
    50   28   29 ar
    51   28   91 1
    52   29   30 1
    53   30   31 2
    54   30   66 1
    55   31   67 1
    56   32   37 ar
    57   32   33 ar
    58   33   34 ar
    59   33   68 1
    60   34   35 ar
    61   34   69 1
    62   35   36 ar
    63   35   38 1
    64   36   37 ar
    65   36   70 1
    66   37   71 1
    67   38   72 1
    68   38   73 1
    69   38   74 1
    70   39   44 ar
    71   39   40 ar
    72   40   41 ar
    73   40   75 1
    74   41   42 ar
    75   41   76 1
    76   42   43 ar
    77   42   45 1
    78   43   44 ar
    79   43   77 1
    80   44   78 1
    81   45   79 1
    82   45   80 1
    83   45   81 1
    84   46   47 2
    85   46   82 1
    86   47   83 1
    87   48   53 ar
    88   48   49 ar
    89   49   50 ar
    90   49   84 1
    91   50   51 ar
    92   50   85 1
    93   51   52 ar
    94   51   54 1
    95   52   53 ar
    96   52   86 1
    97   53   87 1
    98   54   88 1
    99   54   89 1
   100   54   90 1
@<TRIPOS>MOLECULE
ZINC00057915
   30    32     0     0     0
SMALL
USER_CHARGES
7,8-dihydroxy-2-(4-hydroxyphenyl)-chromen-4-one
@<TRIPOS>ATOM
      1 C1          3.6109    3.4226   -0.0083 C.ar      1 <0>        -0.0602
      2 C2          4.7856    4.1415   -0.0215 C.ar      1 <0>        -0.1481
      3 C3          4.7524    5.5308   -0.0137 C.ar      1 <0>         0.1370
      4 C4          3.5349    6.2008    0.0016 C.ar      1 <0>        -0.1500
      5 C5          2.3554    5.4899    0.0091 C.ar      1 <0>        -0.0586
      6 C6          2.3841    4.0924    0.0013 C.ar      1 <0>        -0.0872
      7 C7          1.1234    3.3268    0.0092 C.2       1 <0>         0.2138
      8 C8          1.1833    1.9669    0.0013 C.2       1 <0>        -0.3175
      9 C9         -0.0145    1.2160    0.0087 C.2       1 <0>         0.4244
     10 O1          0.0021   -0.0041    0.0020 O.2       1 <0>        -0.4653
     11 C10        -1.2853    1.9654    0.0187 C.ar      1 <0>        -0.2188
     12 C11        -2.5148    1.3062    0.0346 C.ar      1 <0>        -0.0202
     13 C12        -3.6741    2.0298    0.0510 C.ar      1 <0>        -0.1568
     14 C13        -3.6363    3.4210    0.0581 C.ar      1 <0>         0.1478
     15 C14        -2.4215    4.0931    0.0492 C.ar      1 <0>         0.0585
     16 C15        -1.2339    3.3688    0.0325 C.ar      1 <0>         0.1387
     17 O2         -0.0390    3.9974    0.0244 O.3       1 <0>        -0.2102
     18 O3         -2.3927    5.4536    0.0572 O.3       1 <0>        -0.4692
     19 O4         -4.7971    4.1268    0.0745 O.3       1 <0>        -0.4782
     20 O5          5.9128    6.2355   -0.0206 O.3       1 <0>        -0.4968
     21 H1          3.6376    2.3429   -0.0099 H         1 <0>         0.1418
     22 H2          5.7339    3.6248   -0.0334 H         1 <0>         0.1416
     23 H3          3.5137    7.2806    0.0080 H         1 <0>         0.1395
     24 H4          1.4098    6.0114    0.0214 H         1 <0>         0.1411
     25 H5          2.1395    1.4650   -0.0109 H         1 <0>         0.1643
     26 H6         -2.5504    0.2268    0.0291 H         1 <0>         0.1523
     27 H7         -4.6255    1.5188    0.0587 H         1 <0>         0.1493
     28 H8         -2.3935    5.8522   -0.8238 H         1 <0>         0.3895
     29 H9         -5.1425    4.3362   -0.8042 H         1 <0>         0.3986
     30 H10         6.2572    6.4346    0.8607 H         1 <0>         0.3988
@<TRIPOS>BOND
     1    1    6 ar
     2    1    2 ar
     3    1   21 1
     4    2    3 ar
     5    2   22 1
     6    3    4 ar
     7    3   20 1
     8    4    5 ar
     9    4   23 1
    10    5    6 ar
    11    5   24 1
    12    6    7 1
    13    7   17 1
    14    7    8 2
    15    8    9 1
    16    8   25 1
    17    9   10 2
    18    9   11 1
    19   11   16 ar
    20   11   12 ar
    21   12   13 ar
    22   12   26 1
    23   13   14 ar
    24   13   27 1
    25   14   15 ar
    26   14   19 1
    27   15   16 ar
    28   15   18 1
    29   16   17 1
    30   18   28 1
    31   19   29 1
    32   20   30 1
@<TRIPOS>MOLECULE
ZINC03871389
   35    37     0     0     0
SMALL
USER_CHARGES
7-ethoxyacridine-3,9-diamine
@<TRIPOS>ATOM
      1 C1          9.5389    4.0157   -0.0642 C.3       1 <0>        -0.1565
      2 C2          8.3090    3.1056   -0.0578 C.3       1 <0>         0.0494
      3 O1          7.1248    3.9053   -0.0431 O.3       1 <0>        -0.3066
      4 C3          5.9353    3.2468   -0.0358 C.ar      1 <0>         0.1236
      5 C4          5.9185    1.8480   -0.0422 C.ar      1 <0>        -0.1012
      6 C5          4.7464    1.1616   -0.0351 C.ar      1 <0>        -0.1272
      7 C6          3.5203    1.8596   -0.0211 C.ar      1 <0>         0.1957
      8 C7          3.5391    3.2779   -0.0142 C.ar      1 <0>        -0.1269
      9 C8          4.7704    3.9572   -0.0218 C.ar      1 <0>        -0.1000
     10 C9          2.3271    3.9990    0.0008 C.ar      1 <0>         0.4026
     11 C10         1.1284    3.2650    0.0083 C.ar      1 <0>        -0.2190
     12 C11        -0.1253    3.9010    0.0222 C.ar      1 <0>         0.0102
     13 C12        -1.2590    3.1532    0.0281 C.ar      1 <0>        -0.1974
     14 C13        -1.2108    1.7535    0.0173 C.ar      1 <0>         0.3271
     15 C14        -0.0126    1.0758    0.0080 C.ar      1 <0>        -0.2821
     16 C15         1.1927    1.8014    0.0003 C.ar      1 <0>         0.2891
     17 N1         -2.4021    1.0309    0.0190 N.pl3     1 <0>        -0.8360
     18 N2          2.3184    5.3786    0.0083 N.pl3     1 <0>        -0.7855
     19 H1          9.5174    4.6493   -0.9509 H         1 <0>         0.0704
     20 H2          9.5333    4.6403    0.8290 H         1 <0>         0.0705
     21 H3         10.4422    3.4057   -0.0754 H         1 <0>         0.0864
     22 H4          8.3305    2.4720    0.8289 H         1 <0>         0.0692
     23 H5          8.3145    2.4809   -0.9510 H         1 <0>         0.0692
     24 H6          6.8522    1.3053   -0.0526 H         1 <0>         0.1543
     25 H7          4.7530    0.0816   -0.0406 H         1 <0>         0.1562
     26 H8          4.7940    5.0369   -0.0162 H         1 <0>         0.1505
     27 H9         -0.1865    4.9792    0.0278 H         1 <0>         0.1475
     28 H10        -2.2186    3.6487    0.0384 H         1 <0>         0.1476
     29 H11         0.0021   -0.0041    0.0020 H         1 <0>         0.1506
     30 H12        -2.3811    0.0611    0.0136 H         1 <0>         0.4139
     31 H13        -3.2524    1.4975    0.0255 H         1 <0>         0.4152
     32 H14         1.4753    5.8582    0.0189 H         1 <0>         0.4252
     33 H15         3.1553    5.8689    0.0029 H         1 <0>         0.4262
     34 N3          2.3728    1.1017   -0.0137 N.ar      1 <0>        -0.5727
     35 H16         2.3977    0.0753   -0.0183 H         1 <0>         0.4607
@<TRIPOS>BOND
     1    1    2 1
     2    1   19 1
     3    1   20 1
     4    1   21 1
     5    2    3 1
     6    2   22 1
     7    2   23 1
     8    3    4 1
     9    4    9 ar
    10    4    5 ar
    11    5    6 ar
    12    5   24 1
    13    6    7 ar
    14    6   25 1
    15    7    8 ar
    16    7   34 ar
    17    8    9 ar
    18    8   10 ar
    19    9   26 1
    20   10   11 ar
    21   10   18 1
    22   11   16 ar
    23   11   12 ar
    24   12   13 ar
    25   12   27 1
    26   13   14 ar
    27   13   28 1
    28   14   15 ar
    29   14   17 1
    30   15   16 ar
    31   15   29 1
    32   16   34 ar
    33   17   30 1
    34   17   31 1
    35   18   32 1
    36   18   33 1
    37   34   35 1
