@<TRIPOS>MOLECULE
ZINC08581462
   19    20     0     0     0
SMALL
USER_CHARGES

@<TRIPOS>ATOM
      1 C1         -0.0169    1.3917    0.0097 C.ar      1 <0>        -0.2079
      2 C2          1.1468    2.1057    0.0024 C.ar      1 <0>        -0.0216
      3 C3          2.3705    1.4354   -0.0129 C.ar      1 <0>        -0.1854
      4 C4          2.4005    0.0212   -0.0208 C.ar      1 <0>        -0.0191
      5 C5          1.2051   -0.6926   -0.0132 C.ar      1 <0>        -0.1651
      6 C6          0.0021   -0.0041    0.0020 C.ar      1 <0>         0.2210
      7 N1         -1.1977   -0.7108    0.0102 N.pl3     1 <0>        -0.8771
      8 C7          3.7036   -0.6529   -0.0374 C.2       1 <0>         0.3929
      9 N2          4.7997    0.0524   -0.0445 N.2       1 <0>        -0.4157
     10 N3          4.7956    1.4474   -0.0370 N.am      1 <0>        -0.5194
     11 C8          3.6479    2.1559   -0.0217 C.2       1 <0>         0.5136
     12 O1          3.6720    3.3744   -0.0158 O.2       1 <0>        -0.5951
     13 O2          3.7676   -2.0088   -0.0449 O.3       1 <0>        -0.7093
     14 H1         -0.9627    1.9127    0.0261 H         1 <0>         0.1189
     15 H2          1.1203    3.1854    0.0081 H         1 <0>         0.1300
     16 H3          1.2151   -1.7725   -0.0198 H         1 <0>         0.1336
     17 H4         -2.0419   -0.2331    0.0211 H         1 <0>         0.3940
     18 H5         -1.1893   -1.6807    0.0049 H         1 <0>         0.3978
     19 H6          5.6419    1.9213   -0.0428 H         1 <0>         0.4140
@<TRIPOS>BOND
     1    1    6 ar
     2    1    2 ar
     3    1   14 1
     4    2    3 ar
     5    2   15 1
     6    3   11 1
     7    3    4 ar
     8    4    5 ar
     9    4    8 1
    10    5    6 ar
    11    5   16 1
    12    6    7 1
    13    7   17 1
    14    7   18 1
    15    8    9 2
    16    8   13 1
    17    9   10 1
    18   10   11 am
    19   10   19 1
    20   11   12 2
@<TRIPOS>MOLECULE
ZINC00403052
   20    21     0     0     0
SMALL
USER_CHARGES
2-amino-6-methyl-3H-pteridin-4-one
@<TRIPOS>ATOM
      1 C1         -1.2961   -0.7693    0.0108 C.3       1 <0>        -0.0967
      2 C2          0.0021   -0.0041    0.0020 C.ar      1 <0>         0.0371
      3 C3          1.2101   -0.6945   -0.0132 C.ar      1 <0>         0.1326
      4 N1          2.3569   -0.0444   -0.0202 N.ar      1 <0>        -0.4450
      5 C4          2.3592    1.2892   -0.0131 C.ar      1 <0>         0.3590
      6 C5          1.1283    1.9844    0.0019 C.ar      1 <0>        -0.0683
      7 N2         -0.0158    1.3137    0.0093 N.ar      1 <0>        -0.3609
      8 C6          1.1641    3.4570    0.0090 C.2       1 <0>         0.5841
      9 O1          0.1396    4.1134    0.0219 O.2       1 <0>        -0.4786
     10 N3          2.3794    4.0523    0.0002 N.am      1 <0>        -0.6792
     11 H1          2.4543    5.1497    0.0054 H         1 <0>         0.4460
     12 C7          3.5167    3.3002   -0.0151 C.2       1 <0>         0.6699
     13 N4          3.5082    1.9901   -0.0194 N.2       1 <0>        -0.5866
     14 N5          4.7260    3.9454   -0.0241 N.pl3     1 <0>        -0.8394
     15 H2         -1.0854   -1.8489    0.0029 H         1 <0>         0.0823
     16 H3         -1.8842   -0.5039   -0.8801 H         1 <0>         0.0817
     17 H4         -1.8663   -0.5136    0.9161 H         1 <0>         0.0817
     18 H5          1.2082   -1.7744   -0.0190 H         1 <0>         0.1818
     19 H6          5.6596    3.3638   -0.0365 H         1 <0>         0.4591
     20 H7          4.7629    5.0448   -0.0189 H         1 <0>         0.4395
@<TRIPOS>BOND
     1    1    2 1
     2    1   15 1
     3    1   16 1
     4    1   17 1
     5    2    7 ar
     6    2    3 ar
     7    3    4 ar
     8    3   18 1
     9    4    5 ar
    10    5   13 1
    11    5    6 ar
    12    6    7 ar
    13    6    8 1
    14    8    9 2
    15    8   10 am
    16   10   11 1
    17   10   12 1
    18   12   13 2
    19   12   14 1
    20   14   19 1
    21   14   20 1
@<TRIPOS>MOLECULE
ZINC03066699
   25    26     0     0     0
SMALL
USER_CHARGES

@<TRIPOS>ATOM
      1 C1         -0.0169    1.3932    0.0097 C.2       1 <0>        -0.3860
      2 C2          1.1763    2.0892    0.0020 C.2       1 <0>         0.3068
      3 C3          2.3965    1.3589   -0.0135 C.2       1 <0>        -0.4103
      4 C4          3.4400    2.2916   -0.0189 C.2       1 <0>         0.5438
      5 N1          2.8959    3.5391   -0.0073 N.pl3     1 <0>        -0.3803
      6 N2          1.4995    3.4266    0.0057 N.pl3     1 <0>        -0.4872
      7 C5          3.6485    4.7960   -0.0075 C.3       1 <0>         0.1226
      8 C6          3.8973    5.2413   -1.4499 C.3       1 <0>         0.0494
      9 O1          2.6498    5.5476   -2.0758 O.3       1 <0>        -0.5688
     10 N3          4.7698    2.0011   -0.0326 N.pl3     1 <0>        -0.7997
     11 C7          2.3496   -0.0540   -0.0207 C.2       1 <0>         0.6074
     12 N4          1.1601   -0.6856   -0.0127 N.am      1 <0>        -0.6668
     13 C8          0.0021   -0.0041    0.0020 C.2       1 <0>         0.5734
     14 O2         -1.0531   -0.6170    0.0092 O.2       1 <0>        -0.5585
     15 O3          3.3833   -0.6990   -0.0344 O.2       1 <0>        -0.5628
     16 H1         -0.9569    1.9246    0.0260 H         1 <0>         0.1407
     17 H2          3.0764    5.5622    0.5157 H         1 <0>         0.1142
     18 H3          4.6034    4.6478    0.4969 H         1 <0>         0.1205
     19 H4          4.5323    6.1273   -1.4523 H         1 <0>         0.0761
     20 H5          4.3913    4.4388   -1.9978 H         1 <0>         0.0564
     21 H6          2.7314    5.8377   -2.9947 H         1 <0>         0.3918
     22 H7          5.0643    1.0769   -0.0400 H         1 <0>         0.4435
     23 H8          5.4229    2.7183   -0.0350 H         1 <0>         0.4081
     24 H9          1.1388   -1.6554   -0.0180 H         1 <0>         0.4116
     25 H10         0.8695    4.1640    0.0159 H         1 <0>         0.4541
@<TRIPOS>BOND
     1    1   13 1
     2    1    2 2
     3    1   16 1
     4    2    6 1
     5    2    3 1
     6    3    4 2
     7    3   11 1
     8    4    5 1
     9    4   10 1
    10    5    6 1
    11    5    7 1
    12    6   25 1
    13    7    8 1
    14    7   17 1
    15    7   18 1
    16    8    9 1
    17    8   19 1
    18    8   20 1
    19    9   21 1
    20   10   22 1
    21   10   23 1
    22   11   12 am
    23   11   15 2
    24   12   13 am
    25   12   24 1
    26   13   14 2
@<TRIPOS>MOLECULE
ZINC17819771
   17    18     0     0     0
SMALL
USER_CHARGES
2-amino-3H-pteridin-4-one
@<TRIPOS>ATOM
      1 C1         -4.6552    5.0086    0.0528 C.ar      1 <0>         0.0072
      2 C2         -3.4335    5.6748    0.0511 C.ar      1 <0>         0.1310
      3 N1         -2.2999    5.0020    0.0411 N.ar      1 <0>        -0.4491
      4 C3         -2.3243    3.6686    0.0330 C.ar      1 <0>         0.3664
      5 C4         -3.5689    2.9981    0.0353 C.ar      1 <0>        -0.0767
      6 N2         -4.6994    3.6914    0.0449 N.ar      1 <0>        -0.3587
      7 C5         -3.5626    1.5251    0.0272 C.2       1 <0>         0.5841
      8 O1         -4.6001    0.8892    0.0283 O.2       1 <0>        -0.4784
      9 N3         -2.3595    0.9057    0.0182 N.am      1 <0>        -0.6795
     10 H1         -2.3066   -0.1930    0.0120 H         1 <0>         0.4461
     11 C6         -1.2073    1.6349    0.0167 C.2       1 <0>         0.6719
     12 N4         -1.1895    2.9450    0.0290 N.2       1 <0>        -0.5881
     13 N5         -0.0111    0.9658    0.0074 N.pl3     1 <0>        -0.8387
     14 H2         -5.5744    5.5754    0.0606 H         1 <0>         0.1800
     15 H3         -3.4139    6.7546    0.0576 H         1 <0>         0.1830
     16 H4          0.9340    1.5287    0.0060 H         1 <0>         0.4594
     17 H5          0.0038   -0.1341    0.0014 H         1 <0>         0.4399
@<TRIPOS>BOND
     1    1    6 ar
     2    1    2 ar
     3    1   14 1
     4    2    3 ar
     5    2   15 1
     6    3    4 ar
     7    4   12 1
     8    4    5 ar
     9    5    6 ar
    10    5    7 1
    11    7    8 2
    12    7    9 am
    13    9   10 1
    14    9   11 1
    15   11   12 2
    16   11   13 1
    17   13   16 1
    18   13   17 1
