@<TRIPOS>MOLECULE
ZINC00005389
   28    29     0     0     0
SMALL
USER_CHARGES

@<TRIPOS>ATOM
      1 C1         -0.0167    1.3799    0.0096 C.ar      1 <0>        -0.0952
      2 C2          1.1656    2.0891    0.0021 C.ar      1 <0>        -0.1189
      3 C3          2.3864    1.4061   -0.0131 C.ar      1 <0>        -0.0173
      4 C4          2.3968    0.0072   -0.0207 C.ar      1 <0>        -0.1227
      5 C5          1.2058   -0.6873   -0.0131 C.ar      1 <0>        -0.0937
      6 C6          0.0021   -0.0041    0.0020 C.ar      1 <0>        -0.1416
      7 C7         -1.2950   -0.7712    0.0102 C.3       1 <0>         0.1515
      8 N1         -1.7285   -1.0124   -1.3682 N.pl3     1 <0>        -0.4518
      9 C8         -2.5251   -0.1951   -2.1239 C.2       1 <0>        -0.0534
     10 C9         -2.6720   -0.7931   -3.3216 C.2       1 <0>        -0.0341
     11 N2         -1.9838   -1.9441   -3.2978 N.2       1 <0>        -0.4988
     12 C10        -1.4119   -2.0797   -2.1327 C.2       1 <0>         0.1832
     13 C11         3.6525    2.1550   -0.0217 C.2       1 <0>        -0.1275
     14 C12         4.8298    1.4916   -0.0364 C.2       1 <0>        -0.1529
     15 C13         6.0485    2.2124   -0.0447 C.2       1 <0>         0.4984
     16 O1          6.0357    3.4373   -0.0384 O.co2     1 <0>        -0.6926
     17 O2          7.1156    1.6111   -0.0580 O.co2     1 <0>        -0.6961
     18 H1         -0.9600    1.9057    0.0260 H         1 <0>         0.1185
     19 H2          1.1493    3.1690    0.0077 H         1 <0>         0.1271
     20 H3          3.3352   -0.5272   -0.0328 H         1 <0>         0.1300
     21 H4          1.2120   -1.7672   -0.0192 H         1 <0>         0.1202
     22 H5         -1.1499   -1.7250    0.5176 H         1 <0>         0.1001
     23 H6         -2.0559   -0.1929    0.5344 H         1 <0>         0.0976
     24 H7         -2.9538    0.7479   -1.8183 H         1 <0>         0.1707
     25 H8         -3.2437   -0.4126   -4.1551 H         1 <0>         0.1667
     26 H9         -0.7905   -2.9092   -1.8291 H         1 <0>         0.2011
     27 H10         3.6412    3.2349   -0.0162 H         1 <0>         0.1303
     28 H11         4.8411    0.4117   -0.0420 H         1 <0>         0.1012
@<TRIPOS>BOND
     1    1    6 ar
     2    1    2 ar
     3    1   18 1
     4    2    3 ar
     5    2   19 1
     6    3    4 ar
     7    3   13 1
     8    4    5 ar
     9    4   20 1
    10    5    6 ar
    11    5   21 1
    12    6    7 1
    13    7    8 1
    14    7   22 1
    15    7   23 1
    16    8   12 1
    17    8    9 1
    18    9   10 2
    19    9   24 1
    20   10   11 1
    21   10   25 1
    22   11   12 2
    23   12   26 1
    24   13   14 2
    25   13   27 1
    26   14   15 1
    27   14   28 1
    28   15   16 2
    29   15   17 1
@<TRIPOS>MOLECULE
ZINC00005389
   29    30     0     0     0
SMALL
USER_CHARGES

@<TRIPOS>ATOM
      1 C1         -0.0167    1.3799    0.0096 C.ar      1 <0>        -0.0853
      2 C2          1.1656    2.0891    0.0021 C.ar      1 <0>        -0.1209
      3 C3          2.3864    1.4061   -0.0131 C.ar      1 <0>         0.0113
      4 C4          2.3968    0.0072   -0.0207 C.ar      1 <0>        -0.1276
      5 C5          1.2058   -0.6873   -0.0131 C.ar      1 <0>        -0.0878
      6 C6          0.0021   -0.0041    0.0020 C.ar      1 <0>        -0.1794
      7 C7         -1.2950   -0.7712    0.0102 C.3       1 <0>         0.1454
      8 N1         -1.7285   -1.0124   -1.3682 N.pl3     1 <0>        -0.3990
      9 C8         -2.5247   -0.1949   -2.1241 C.2       1 <0>         0.0283
     10 C9         -2.6718   -0.7930   -3.3217 C.2       1 <0>        -0.0024
     11 N2         -1.9840   -1.9443   -3.2977 N.pl3     1 <0>        -0.4790
     12 C10        -1.4123   -2.0799   -2.1325 C.cat     1 <0>         0.2867
     13 C11         3.6525    2.1550   -0.0217 C.2       1 <0>        -0.1488
     14 C12         4.8298    1.4916   -0.0364 C.2       1 <0>        -0.1269
     15 C13         6.0485    2.2124   -0.0447 C.2       1 <0>         0.4924
     16 O1          6.0357    3.4373   -0.0384 O.co2     1 <0>        -0.6854
     17 O2          7.1156    1.6111   -0.0580 O.co2     1 <0>        -0.6881
     18 H1         -0.9600    1.9057    0.0260 H         1 <0>         0.1232
     19 H2          1.1493    3.1690    0.0077 H         1 <0>         0.1341
     20 H3          3.3352   -0.5272   -0.0328 H         1 <0>         0.1357
     21 H4          1.2120   -1.7672   -0.0192 H         1 <0>         0.1225
     22 H5         -1.1499   -1.7250    0.5176 H         1 <0>         0.1251
     23 H6         -2.0559   -0.1929    0.5344 H         1 <0>         0.1276
     24 H7         -2.9531    0.7483   -1.8186 H         1 <0>         0.2199
     25 H8         -3.2433   -0.4124   -4.1553 H         1 <0>         0.2210
     26 H9         -0.7913   -2.9097   -1.8288 H         1 <0>         0.2568
     27 H10         3.6412    3.2349   -0.0162 H         1 <0>         0.1355
     28 H11         4.8411    0.4117   -0.0420 H         1 <0>         0.1025
     29 H12        -1.9188   -2.5748   -4.0320 H         1 <0>         0.4626
@<TRIPOS>BOND
     1    1    6 ar
     2    1    2 ar
     3    1   18 1
     4    2    3 ar
     5    2   19 1
     6    3    4 ar
     7    3   13 1
     8    4    5 ar
     9    4   20 1
    10    5    6 ar
    11    5   21 1
    12    6    7 1
    13    7    8 1
    14    7   22 1
    15    7   23 1
    16    8   12 1
    17    8    9 1
    18    9   10 2
    19    9   24 1
    20   10   11 1
    21   10   25 1
    22   11   12 2
    23   11   29 1
    24   12   26 1
    25   13   14 2
    26   13   27 1
    27   14   15 1
    28   14   28 1
    29   15   16 2
    30   15   17 1
@<TRIPOS>MOLECULE
ZINC00017088
   26    28     0     0     0
SMALL
USER_CHARGES
2-methyl-4-thiazol-5-yl-phthalazin-1-one
@<TRIPOS>ATOM
      1 C1         -0.2403    1.0927   -0.1099 C.3       1 <0>         0.1005
      2 N1         -0.8069    1.5616    1.1571 N.am      1 <0>        -0.4256
      3 C2         -0.8290    2.8851    1.4150 C.2       1 <0>         0.5262
      4 O1         -0.3839    3.6801    0.6064 O.2       1 <0>        -0.5113
      5 C3         -1.4024    3.3538    2.6836 C.ar      1 <0>        -0.1213
      6 C4         -1.4594    4.7081    3.0100 C.ar      1 <0>        -0.0514
      7 C5         -2.0028    5.0938    4.2156 C.ar      1 <0>        -0.1080
      8 C6         -2.4922    4.1479    5.1067 C.ar      1 <0>        -0.0821
      9 C7         -2.4446    2.8047    4.8040 C.ar      1 <0>        -0.1010
     10 C8         -1.8995    2.3919    3.5896 C.ar      1 <0>        -0.0571
     11 C9         -1.8241    0.9706    3.2173 C.2       1 <0>         0.2220
     12 N2         -1.3031    0.6258    2.0651 N.2       1 <0>        -0.2165
     13 C10        -2.3330   -0.0637    4.1386 C.2       1 <0>        -0.1567
     14 C11        -1.9119   -1.3570    4.3250 C.2       1 <0>         0.0854
     15 N3         -2.5356   -2.0854    5.2213 N.2       1 <0>        -0.5074
     16 C12        -3.5418   -1.6075    5.9190 C.2       1 <0>         0.0751
     17 S1         -3.6745    0.0158    5.3168 S.3       1 <0>         0.0985
     18 H1         -0.2970    0.0051   -0.1530 H         1 <0>         0.0963
     19 H2          0.8016    1.4052   -0.1797 H         1 <0>         0.0793
     20 H3         -0.8038    1.5191   -0.9398 H         1 <0>         0.0794
     21 H4         -1.0802    5.4496    2.3224 H         1 <0>         0.1465
     22 H5         -2.0484    6.1423    4.4705 H         1 <0>         0.1409
     23 H6         -2.9144    4.4686    6.0476 H         1 <0>         0.1401
     24 H7         -2.8276    2.0762    5.5032 H         1 <0>         0.1389
     25 H8         -1.0897   -1.7619    3.7537 H         1 <0>         0.1790
     26 H9         -4.1357   -2.0998    6.6749 H         1 <0>         0.2302
@<TRIPOS>BOND
     1    1    2 1
     2    1   18 1
     3    1   19 1
     4    1   20 1
     5    2   12 1
     6    2    3 am
     7    3    4 2
     8    3    5 1
     9    5   10 ar
    10    5    6 ar
    11    6    7 ar
    12    6   21 1
    13    7    8 ar
    14    7   22 1
    15    8    9 ar
    16    8   23 1
    17    9   10 ar
    18    9   24 1
    19   10   11 1
    20   11   12 2
    21   11   13 1
    22   13   17 1
    23   13   14 2
    24   14   15 1
    25   14   25 1
    26   15   16 2
    27   16   17 1
    28   16   26 1
@<TRIPOS>MOLECULE
ZINC27563308
   36    37     0     0     0
SMALL
USER_CHARGES
N-(3-imidazol-1-ylpropyl)-4-methylsulfanyl-benzamide
@<TRIPOS>ATOM
      1 C1          2.9045    4.3093   -0.0029 C.3       1 <0>        -0.1513
      2 S1          1.1516    3.8426    0.0111 S.3       1 <0>        -0.1025
      3 C2          1.1795    2.0809    0.0020 C.ar      1 <0>        -0.0583
      4 C3         -0.0165    1.3667    0.0096 C.ar      1 <0>        -0.1079
      5 C4          0.0021   -0.0041    0.0020 C.ar      1 <0>        -0.0375
      6 C5          1.2232   -0.6853   -0.0133 C.ar      1 <0>        -0.1445
      7 C6          2.4221    0.0343   -0.0208 C.ar      1 <0>        -0.0634
      8 C7          2.3974    1.4049   -0.0132 C.ar      1 <0>        -0.1437
      9 C8          1.2465   -2.1599   -0.0209 C.2       1 <0>         0.5624
     10 O1          0.2031   -2.7845   -0.0139 O.2       1 <0>        -0.5371
     11 N1          2.4241   -2.8152   -0.0357 N.am      1 <0>        -0.7389
     12 C9          2.4472   -4.2800   -0.0433 C.3       1 <0>         0.1244
     13 C10         3.8975   -4.7671   -0.0598 C.3       1 <0>        -0.1481
     14 C11         3.9217   -6.2968   -0.0678 C.3       1 <0>         0.1057
     15 N2          5.3104   -6.7632   -0.0836 N.pl3     1 <0>        -0.4604
     16 C12         6.0679   -7.0215   -1.1941 C.2       1 <0>        -0.0573
     17 C13         7.2768   -7.4222   -0.7566 C.2       1 <0>        -0.0287
     18 N3          7.2551   -7.4179    0.5845 N.2       1 <0>        -0.4950
     19 C14         6.0804   -7.0242    0.9947 C.2       1 <0>         0.1814
     20 H1          2.9920    5.4058    0.0018 H         1 <0>         0.1144
     21 H2          3.3838    3.9070   -0.9076 H         1 <0>         0.0875
     22 H3          3.4005    3.8980    0.8886 H         1 <0>         0.0875
     23 H4         -0.9593    1.8934    0.0169 H         1 <0>         0.1373
     24 H5         -0.9255   -0.5573    0.0082 H         1 <0>         0.1429
     25 H6          3.3667   -0.4893   -0.0323 H         1 <0>         0.1283
     26 H7          3.3231    1.9612   -0.0194 H         1 <0>         0.1306
     27 H8          3.3679   -2.2502   -0.0421 H         1 <0>         0.4199
     28 H9          1.9432   -4.6593    0.8579 H         1 <0>         0.0734
     29 H10         1.9258   -4.6503   -0.9383 H         1 <0>         0.0727
     30 H11         4.4015   -4.3877   -0.9610 H         1 <0>         0.0797
     31 H12         4.4189   -4.3968    0.8352 H         1 <0>         0.0804
     32 H13         3.4177   -6.6762    0.8334 H         1 <0>         0.1006
     33 H14         3.4003   -6.6671   -0.9628 H         1 <0>         0.0982
     34 H15         5.7566   -6.9208   -2.2234 H         1 <0>         0.1737
     35 H16         8.1152   -7.7029   -1.3768 H         1 <0>         0.1696
     36 H17         5.7749   -6.9234    2.0256 H         1 <0>         0.2038
@<TRIPOS>BOND
     1    1    2 1
     2    1   20 1
     3    1   21 1
     4    1   22 1
     5    2    3 1
     6    3    8 ar
     7    3    4 ar
     8    4    5 ar
     9    4   23 1
    10    5    6 ar
    11    5   24 1
    12    6    7 ar
    13    6    9 1
    14    7    8 ar
    15    7   25 1
    16    8   26 1
    17    9   10 2
    18    9   11 am
    19   11   12 1
    20   11   27 1
    21   12   13 1
    22   12   28 1
    23   12   29 1
    24   13   14 1
    25   13   30 1
    26   13   31 1
    27   14   15 1
    28   14   32 1
    29   14   33 1
    30   15   19 1
    31   15   16 1
    32   16   17 2
    33   16   34 1
    34   17   18 1
    35   17   35 1
    36   18   19 2
    37   19   36 1
@<TRIPOS>MOLECULE
ZINC27563308
   37    38     0     0     0
SMALL
USER_CHARGES
N-(3-imidazol-1-ylpropyl)-4-methylsulfanyl-benzamide
@<TRIPOS>ATOM
      1 C1          2.9045    4.3093   -0.0029 C.3       1 <0>        -0.1532
      2 S1          1.1516    3.8426    0.0111 S.3       1 <0>        -0.0930
      3 C2          1.1795    2.0809    0.0020 C.ar      1 <0>        -0.0542
      4 C3         -0.0165    1.3667    0.0096 C.ar      1 <0>        -0.1072
      5 C4          0.0021   -0.0041    0.0020 C.ar      1 <0>        -0.0343
      6 C5          1.2232   -0.6853   -0.0133 C.ar      1 <0>        -0.1525
      7 C6          2.4221    0.0343   -0.0208 C.ar      1 <0>        -0.0629
      8 C7          2.3974    1.4049   -0.0132 C.ar      1 <0>        -0.1457
      9 C8          1.2465   -2.1599   -0.0209 C.2       1 <0>         0.5671
     10 O1          0.2031   -2.7845   -0.0139 O.2       1 <0>        -0.5311
     11 N1          2.4241   -2.8152   -0.0357 N.am      1 <0>        -0.7448
     12 C9          2.4472   -4.2800   -0.0433 C.3       1 <0>         0.1240
     13 C10         3.8975   -4.7671   -0.0598 C.3       1 <0>        -0.1535
     14 C11         3.9217   -6.2968   -0.0678 C.3       1 <0>         0.0927
     15 N2          5.3104   -6.7632   -0.0836 N.pl3     1 <0>        -0.4111
     16 C12         6.0679   -7.0215   -1.1941 C.2       1 <0>         0.0204
     17 C13         7.2768   -7.4222   -0.7566 C.2       1 <0>        -0.0038
     18 N3          7.2551   -7.4179    0.5845 N.pl3     1 <0>        -0.4949
     19 C14         6.0804   -7.0242    0.9947 C.cat     1 <0>         0.2953
     20 H1          2.9920    5.4058    0.0018 H         1 <0>         0.1167
     21 H2          3.3838    3.9070   -0.9076 H         1 <0>         0.0876
     22 H3          3.4005    3.8980    0.8886 H         1 <0>         0.0875
     23 H4         -0.9593    1.8934    0.0169 H         1 <0>         0.1396
     24 H5         -0.9255   -0.5573    0.0082 H         1 <0>         0.1435
     25 H6          3.3667   -0.4893   -0.0323 H         1 <0>         0.1250
     26 H7          3.3231    1.9612   -0.0194 H         1 <0>         0.1311
     27 H8          3.3679   -2.2502   -0.0421 H         1 <0>         0.4202
     28 H9          1.9432   -4.6593    0.8579 H         1 <0>         0.0771
     29 H10         1.9258   -4.6503   -0.9383 H         1 <0>         0.0773
     30 H11         4.4015   -4.3877   -0.9610 H         1 <0>         0.0888
     31 H12         4.4189   -4.3968    0.8352 H         1 <0>         0.0868
     32 H13         3.4177   -6.6762    0.8334 H         1 <0>         0.1274
     33 H14         3.4003   -6.6671   -0.9628 H         1 <0>         0.1299
     34 H15         5.7566   -6.9208   -2.2234 H         1 <0>         0.2195
     35 H16         8.1152   -7.7029   -1.3768 H         1 <0>         0.2217
     36 H17         5.7749   -6.9234    2.0256 H         1 <0>         0.2567
     37 H18         8.1491   -7.7195    1.1500 H         1 <0>         0.5062
@<TRIPOS>BOND
     1    1    2 1
     2    1   20 1
     3    1   21 1
     4    1   22 1
     5    2    3 1
     6    3    8 ar
     7    3    4 ar
     8    4    5 ar
     9    4   23 1
    10    5    6 ar
    11    5   24 1
    12    6    7 ar
    13    6    9 1
    14    7    8 ar
    15    7   25 1
    16    8   26 1
    17    9   10 2
    18    9   11 am
    19   11   12 1
    20   11   27 1
    21   12   13 1
    22   12   28 1
    23   12   29 1
    24   13   14 1
    25   13   30 1
    26   13   31 1
    27   14   15 1
    28   14   32 1
    29   14   33 1
    30   15   19 1
    31   15   16 1
    32   16   17 2
    33   16   34 1
    34   17   18 1
    35   17   35 1
    36   18   19 2
    37   18   37 1
    38   19   36 1
@<TRIPOS>MOLECULE
ZINC12546492
   32    33     0     0     0
SMALL
USER_CHARGES
N-(3-imidazol-1-ylpropyl)-4-iodo-benzamide
@<TRIPOS>ATOM
      1 C1         -1.3267    3.3287    0.0323 C.ar      1 <0>        -0.0825
      2 C2         -2.5337    3.9962    0.0367 C.ar      1 <0>        -0.0919
      3 C3         -3.7213    3.2849    0.0385 C.ar      1 <0>        -0.0774
      4 C4         -3.7059    1.9007    0.0304 C.ar      1 <0>        -0.0912
      5 C5         -2.5055    1.2215    0.0206 C.ar      1 <0>        -0.0535
      6 C6         -1.3044    1.9330    0.0187 C.ar      1 <0>        -0.1195
      7 C7         -0.0144    1.2114    0.0087 C.2       1 <0>         0.5598
      8 O1          0.0021   -0.0041    0.0020 O.2       1 <0>        -0.5273
      9 N1          1.1435    1.9011    0.0014 N.am      1 <0>        -0.7267
     10 C8          2.4220    1.1859   -0.0147 C.3       1 <0>         0.1220
     11 C9          3.5713    2.1959   -0.0202 C.3       1 <0>        -0.1492
     12 C10         4.9065    1.4490   -0.0370 C.3       1 <0>         0.1085
     13 N2          6.0069    2.4161   -0.0423 N.pl3     1 <0>        -0.4612
     14 C11         6.6101    2.9540   -1.1470 C.2       1 <0>        -0.0575
     15 C12         7.5637    3.7935   -0.7003 C.2       1 <0>        -0.0282
     16 N3          7.5495    3.7618    0.6405 N.2       1 <0>        -0.4945
     17 C13         6.6195    2.9388    1.0417 C.2       1 <0>         0.1816
     18 I1         -5.5497    4.3076    0.0528 I         1 <0>        -0.0289
     19 H1         -0.4008    3.8847    0.0354 H         1 <0>         0.1339
     20 H2         -2.5522    5.0760    0.0431 H         1 <0>         0.1378
     21 H3         -4.6358    1.3514    0.0315 H         1 <0>         0.1392
     22 H4         -2.4948    0.1416    0.0139 H         1 <0>         0.1466
     23 H5          1.1303    2.8710    0.0067 H         1 <0>         0.4021
     24 H6          2.4967    0.5553    0.8712 H         1 <0>         0.0764
     25 H7          2.4797    0.5649   -0.9086 H         1 <0>         0.0757
     26 H8          3.4965    2.8265   -0.9062 H         1 <0>         0.0799
     27 H9          3.5135    2.8169    0.8737 H         1 <0>         0.0806
     28 H10         4.9812    0.8184    0.8489 H         1 <0>         0.0999
     29 H11         4.9642    0.8280   -0.9309 H         1 <0>         0.0976
     30 H12         6.3665    2.7469   -2.1786 H         1 <0>         0.1740
     31 H13         8.2272    4.3846   -1.3142 H         1 <0>         0.1699
     32 H14         6.3792    2.7136    2.0703 H         1 <0>         0.2041
@<TRIPOS>BOND
     1    1    6 ar
     2    1    2 ar
     3    1   19 1
     4    2    3 ar
     5    2   20 1
     6    3    4 ar
     7    3   18 1
     8    4    5 ar
     9    4   21 1
    10    5    6 ar
    11    5   22 1
    12    6    7 1
    13    7    8 2
    14    7    9 am
    15    9   10 1
    16    9   23 1
    17   10   11 1
    18   10   24 1
    19   10   25 1
    20   11   12 1
    21   11   26 1
    22   11   27 1
    23   12   13 1
    24   12   28 1
    25   12   29 1
    26   13   17 1
    27   13   14 1
    28   14   15 2
    29   14   30 1
    30   15   16 1
    31   15   31 1
    32   16   17 2
    33   17   32 1
@<TRIPOS>MOLECULE
ZINC12546492
   33    34     0     0     0
SMALL
USER_CHARGES
N-(3-imidazol-1-ylpropyl)-4-iodo-benzamide
@<TRIPOS>ATOM
      1 C1         -1.3267    3.3287    0.0323 C.ar      1 <0>        -0.0833
      2 C2         -2.5337    3.9962    0.0367 C.ar      1 <0>        -0.0924
      3 C3         -3.7213    3.2849    0.0385 C.ar      1 <0>        -0.0745
      4 C4         -3.7059    1.9007    0.0304 C.ar      1 <0>        -0.0893
      5 C5         -2.5055    1.2215    0.0206 C.ar      1 <0>        -0.0511
      6 C6         -1.3044    1.9330    0.0187 C.ar      1 <0>        -0.1261
      7 C7         -0.0144    1.2114    0.0087 C.2       1 <0>         0.5643
      8 O1          0.0021   -0.0041    0.0020 O.2       1 <0>        -0.5209
      9 N1          1.1435    1.9011    0.0014 N.am      1 <0>        -0.7325
     10 C8          2.4220    1.1859   -0.0147 C.3       1 <0>         0.1219
     11 C9          3.5713    2.1959   -0.0202 C.3       1 <0>        -0.1546
     12 C10         4.9065    1.4490   -0.0370 C.3       1 <0>         0.0956
     13 N2          6.0069    2.4161   -0.0423 N.pl3     1 <0>        -0.4103
     14 C11         6.6101    2.9540   -1.1470 C.2       1 <0>         0.0235
     15 C12         7.5637    3.7935   -0.7003 C.2       1 <0>         0.0055
     16 C13         6.6195    2.9388    1.0417 C.cat     1 <0>         0.2879
     17 I1         -5.5497    4.3076    0.0528 I         1 <0>        -0.0212
     18 H1         -0.4008    3.8847    0.0354 H         1 <0>         0.1308
     19 H2         -2.5522    5.0760    0.0431 H         1 <0>         0.1385
     20 H3         -4.6358    1.3514    0.0315 H         1 <0>         0.1416
     21 H4         -2.4948    0.1416    0.0139 H         1 <0>         0.1474
     22 H5          1.1303    2.8710    0.0067 H         1 <0>         0.4025
     23 H6          2.4967    0.5553    0.8712 H         1 <0>         0.0802
     24 H7          2.4797    0.5649   -0.9086 H         1 <0>         0.0804
     25 H8          3.4965    2.8265   -0.9062 H         1 <0>         0.0892
     26 H9          3.5135    2.8169    0.8737 H         1 <0>         0.0872
     27 H10         4.9812    0.8184    0.8489 H         1 <0>         0.1269
     28 H11         4.9642    0.8280   -0.9309 H         1 <0>         0.1294
     29 H12         6.3665    2.7469   -2.1786 H         1 <0>         0.2223
     30 H13         8.2272    4.3846   -1.3142 H         1 <0>         0.2233
     31 H14         6.3792    2.7136    2.0703 H         1 <0>         0.2591
     32 N3          7.5487    3.7611    0.6397 N.pl3     1 <0>        -0.4834
     33 H15         8.1713    4.2994    1.2536 H         1 <0>         0.4822
@<TRIPOS>BOND
     1    1    6 ar
     2    1    2 ar
     3    1   18 1
     4    2    3 ar
     5    2   19 1
     6    3    4 ar
     7    3   17 1
     8    4    5 ar
     9    4   20 1
    10    5    6 ar
    11    5   21 1
    12    6    7 1
    13    7    8 2
    14    7    9 am
    15    9   10 1
    16    9   22 1
    17   10   11 1
    18   10   23 1
    19   10   24 1
    20   11   12 1
    21   11   25 1
    22   11   26 1
    23   12   13 1
    24   12   27 1
    25   12   28 1
    26   13   16 1
    27   13   14 1
    28   14   15 2
    29   14   29 1
    30   15   30 1
    31   15   32 1
    32   16   31 1
    33   16   32 2
    34   32   33 1
@<TRIPOS>MOLECULE
ZINC27564702
   35    36     0     0     0
SMALL
USER_CHARGES
4-chloro-N-(4-imidazol-1-ylbutyl)benzamide
@<TRIPOS>ATOM
      1 C1          0.0810   -2.8557   -0.0198 C.ar      1 <0>        -0.0744
      2 C2          0.0934   -4.2346   -0.0206 C.ar      1 <0>        -0.1176
      3 C3         -1.0982   -4.9407   -0.0134 C.ar      1 <0>        -0.0117
      4 C4         -2.3086   -4.2673    0.0012 C.ar      1 <0>        -0.1162
      5 C5         -2.3336   -2.8886    0.0088 C.ar      1 <0>        -0.0472
      6 C6         -1.1358   -2.1715    0.0012 C.ar      1 <0>        -0.1313
      7 C7         -1.1558   -0.6938    0.0094 C.2       1 <0>         0.5593
      8 O1         -2.2167   -0.1004    0.0227 O.2       1 <0>        -0.5341
      9 N1          0.0021   -0.0041    0.0020 N.am      1 <0>        -0.7373
     10 C8         -0.0178    1.4608    0.0101 C.3       1 <0>         0.1210
     11 C9          1.4176    1.9904   -0.0008 C.3       1 <0>        -0.1288
     12 C10         1.3968    3.5202    0.0076 C.3       1 <0>        -0.1341
     13 C11         2.8322    4.0498   -0.0032 C.3       1 <0>         0.1033
     14 N2          2.8124    5.5146    0.0048 N.pl3     1 <0>        -0.4609
     15 C12         2.7963    6.3327   -1.0925 C.2       1 <0>        -0.0576
     16 C13         2.7776    7.5989   -0.6342 C.2       1 <0>        -0.0290
     17 N3          2.7915    7.5553    0.7063 N.2       1 <0>        -0.4955
     18 C14         2.8123    6.3100    1.0962 C.2       1 <0>         0.1808
     19 Cl1        -1.0747   -6.6765   -0.0224 Cl        1 <0>        -0.0580
     20 H1          1.0107   -2.3062   -0.0306 H         1 <0>         0.1354
     21 H2          1.0341   -4.7651   -0.0316 H         1 <0>         0.1417
     22 H3         -3.2345   -4.8232    0.0071 H         1 <0>         0.1429
     23 H4         -3.2779   -2.3647    0.0210 H         1 <0>         0.1467
     24 H5          0.9621   -0.5411   -0.0101 H         1 <0>         0.4197
     25 H6         -0.5499    1.8252   -0.8810 H         1 <0>         0.0702
     26 H7         -0.5327    1.8155    0.9151 H         1 <0>         0.0706
     27 H8          1.9496    1.6260    0.8904 H         1 <0>         0.0763
     28 H9          1.9325    1.6356   -0.9058 H         1 <0>         0.0756
     29 H10         0.8648    3.8845   -0.8836 H         1 <0>         0.0762
     30 H11         0.8819    3.8750    0.9126 H         1 <0>         0.0770
     31 H12         3.3642    3.6854    0.8880 H         1 <0>         0.0966
     32 H13         3.3472    3.6950   -0.9082 H         1 <0>         0.0941
     33 H14         2.7962    6.0224   -2.1269 H         1 <0>         0.1733
     34 H15         2.7600    8.4929   -1.2399 H         1 <0>         0.1694
     35 H16         2.8266    5.9717    2.1217 H         1 <0>         0.2034
@<TRIPOS>BOND
     1    1    6 ar
     2    1    2 ar
     3    1   20 1
     4    2    3 ar
     5    2   21 1
     6    3    4 ar
     7    3   19 1
     8    4    5 ar
     9    4   22 1
    10    5    6 ar
    11    5   23 1
    12    6    7 1
    13    7    8 2
    14    7    9 am
    15    9   10 1
    16    9   24 1
    17   10   11 1
    18   10   25 1
    19   10   26 1
    20   11   12 1
    21   11   27 1
    22   11   28 1
    23   12   13 1
    24   12   29 1
    25   12   30 1
    26   13   14 1
    27   13   31 1
    28   13   32 1
    29   14   18 1
    30   14   15 1
    31   15   16 2
    32   15   33 1
    33   16   17 1
    34   16   34 1
    35   17   18 2
    36   18   35 1
@<TRIPOS>MOLECULE
ZINC27564702
   36    37     0     0     0
SMALL
USER_CHARGES
4-chloro-N-(4-imidazol-1-ylbutyl)benzamide
@<TRIPOS>ATOM
      1 C1          0.0810   -2.8557   -0.0198 C.ar      1 <0>        -0.0744
      2 C2          0.0934   -4.2346   -0.0206 C.ar      1 <0>        -0.1178
      3 C3         -1.0982   -4.9407   -0.0134 C.ar      1 <0>        -0.0089
      4 C4         -2.3086   -4.2673    0.0012 C.ar      1 <0>        -0.1151
      5 C5         -2.3336   -2.8886    0.0088 C.ar      1 <0>        -0.0455
      6 C6         -1.1358   -2.1715    0.0012 C.ar      1 <0>        -0.1373
      7 C7         -1.1558   -0.6938    0.0094 C.2       1 <0>         0.5636
      8 O1         -2.2167   -0.1004    0.0227 O.2       1 <0>        -0.5319
      9 N1          0.0021   -0.0041    0.0020 N.am      1 <0>        -0.7418
     10 C8         -0.0178    1.4608    0.0101 C.3       1 <0>         0.1219
     11 C9          1.4176    1.9904   -0.0008 C.3       1 <0>        -0.1314
     12 C10         1.3968    3.5202    0.0076 C.3       1 <0>        -0.1388
     13 C11         2.8322    4.0498   -0.0032 C.3       1 <0>         0.0898
     14 N2          2.8124    5.5146    0.0048 N.pl3     1 <0>        -0.4112
     15 C12         2.7963    6.3327   -1.0925 C.2       1 <0>         0.0199
     16 C13         2.7776    7.5989   -0.6342 C.2       1 <0>        -0.0040
     17 N3          2.7915    7.5553    0.7063 N.pl3     1 <0>        -0.4951
     18 C14         2.8123    6.3100    1.0962 C.cat     1 <0>         0.2944
     19 Cl1        -1.0747   -6.6765   -0.0224 Cl        1 <0>        -0.0522
     20 H1          1.0107   -2.3062   -0.0306 H         1 <0>         0.1336
     21 H2          1.0341   -4.7651   -0.0316 H         1 <0>         0.1427
     22 H3         -3.2345   -4.8232    0.0071 H         1 <0>         0.1448
     23 H4         -3.2779   -2.3647    0.0210 H         1 <0>         0.1469
     24 H5          0.9621   -0.5411   -0.0101 H         1 <0>         0.4213
     25 H6         -0.5499    1.8252   -0.8810 H         1 <0>         0.0706
     26 H7         -0.5327    1.8155    0.9151 H         1 <0>         0.0702
     27 H8          1.9496    1.6260    0.8904 H         1 <0>         0.0820
     28 H9          1.9325    1.6356   -0.9058 H         1 <0>         0.0823
     29 H10         0.8648    3.8845   -0.8836 H         1 <0>         0.0855
     30 H11         0.8819    3.8750    0.9126 H         1 <0>         0.0835
     31 H12         3.3642    3.6854    0.8880 H         1 <0>         0.1234
     32 H13         3.3472    3.6950   -0.9082 H         1 <0>         0.1260
     33 H14         2.7962    6.0224   -2.1269 H         1 <0>         0.2191
     34 H15         2.7600    8.4929   -1.2399 H         1 <0>         0.2215
     35 H16         2.8266    5.9717    2.1217 H         1 <0>         0.2563
     36 H17         2.7846    8.4895    1.2871 H         1 <0>         0.5061
@<TRIPOS>BOND
     1    1    6 ar
     2    1    2 ar
     3    1   20 1
     4    2    3 ar
     5    2   21 1
     6    3    4 ar
     7    3   19 1
     8    4    5 ar
     9    4   22 1
    10    5    6 ar
    11    5   23 1
    12    6    7 1
    13    7    8 2
    14    7    9 am
    15    9   10 1
    16    9   24 1
    17   10   11 1
    18   10   25 1
    19   10   26 1
    20   11   12 1
    21   11   27 1
    22   11   28 1
    23   12   13 1
    24   12   29 1
    25   12   30 1
    26   13   14 1
    27   13   31 1
    28   13   32 1
    29   14   18 1
    30   14   15 1
    31   15   16 2
    32   15   33 1
    33   16   17 1
    34   16   34 1
    35   17   18 2
    36   17   36 1
    37   18   35 1
@<TRIPOS>MOLECULE
ZINC27898231
   35    37     0     0     0
SMALL
USER_CHARGES
2-(4-imidazol-1-ylbutyl)isoindoline-1,3-dione
@<TRIPOS>ATOM
      1 C1          0.6111    6.0496    0.0265 C.ar      1 <0>        -0.0940
      2 C2         -0.7710    6.0308    0.0391 C.ar      1 <0>        -0.0940
      3 C3         -1.4573    4.8265    0.0396 C.ar      1 <0>        -0.0436
      4 C4         -0.7520    3.6339    0.0273 C.ar      1 <0>        -0.1426
      5 C5          0.6572    3.6531    0.0145 C.ar      1 <0>        -0.1426
      6 C6          1.3299    4.8645    0.0142 C.ar      1 <0>        -0.0435
      7 C7          1.0809    2.2370    0.0038 C.2       1 <0>         0.5748
      8 O1          2.2288    1.8406   -0.0087 O.2       1 <0>        -0.4590
      9 N1         -0.0178    1.4608    0.0101 N.am      1 <0>        -0.5770
     10 C8         -1.1372    2.2068    0.0189 C.2       1 <0>         0.5749
     11 O2         -2.2739    1.7793    0.0221 O.2       1 <0>        -0.4594
     12 C9          0.0021   -0.0041    0.0020 C.3       1 <0>         0.1093
     13 C10         0.0228   -0.5218    1.4416 C.3       1 <0>        -0.1352
     14 C11         0.0435   -2.0516    1.4332 C.3       1 <0>        -0.1321
     15 C12         0.0642   -2.5693    2.8728 C.3       1 <0>         0.1033
     16 N2          0.0841   -4.0341    2.8648 N.pl3     1 <0>        -0.4602
     17 C13        -1.0065   -4.8613    2.8762 C.2       1 <0>        -0.0574
     18 C14        -0.5381   -6.1238    2.8592 C.2       1 <0>        -0.0294
     19 N3          0.8020   -6.0691    2.8473 N.2       1 <0>        -0.4956
     20 C15         1.1818   -4.8206    2.8505 C.2       1 <0>         0.1809
     21 H1          1.1346    6.9943    0.0259 H         1 <0>         0.1444
     22 H2         -1.3199    6.9609    0.0483 H         1 <0>         0.1444
     23 H3         -2.5373    4.8179    0.0491 H         1 <0>         0.1435
     24 H4          2.4097    4.8852    0.0047 H         1 <0>         0.1436
     25 H5         -0.8959   -0.3802   -0.5100 H         1 <0>         0.1005
     26 H6          0.9001   -0.3557   -0.5271 H         1 <0>         0.1008
     27 H7          0.9208   -0.1458    1.9536 H         1 <0>         0.0762
     28 H8         -0.8752   -0.1701    1.9707 H         1 <0>         0.0756
     29 H9         -0.8545   -2.4276    0.9212 H         1 <0>         0.0775
     30 H10         0.9415   -2.4033    0.9041 H         1 <0>         0.0783
     31 H11         0.9622   -2.1932    3.3848 H         1 <0>         0.0970
     32 H12        -0.8338   -2.2177    3.4019 H         1 <0>         0.0946
     33 H13        -2.0433   -4.5594    2.8932 H         1 <0>         0.1733
     34 H14        -1.1366   -7.0228    2.8603 H         1 <0>         0.1694
     35 H15         2.2045   -4.4737    2.8425 H         1 <0>         0.2034
@<TRIPOS>BOND
     1    1    6 ar
     2    1    2 ar
     3    1   21 1
     4    2    3 ar
     5    2   22 1
     6    3    4 ar
     7    3   23 1
     8    4   10 1
     9    4    5 ar
    10    5    6 ar
    11    5    7 1
    12    6   24 1
    13    7    8 2
    14    7    9 am
    15    9   10 am
    16    9   12 1
    17   10   11 2
    18   12   13 1
    19   12   25 1
    20   12   26 1
    21   13   14 1
    22   13   27 1
    23   13   28 1
    24   14   15 1
    25   14   29 1
    26   14   30 1
    27   15   16 1
    28   15   31 1
    29   15   32 1
    30   16   20 1
    31   16   17 1
    32   17   18 2
    33   17   33 1
    34   18   19 1
    35   18   34 1
    36   19   20 2
    37   20   35 1
@<TRIPOS>MOLECULE
ZINC27898231
   36    38     0     0     0
SMALL
USER_CHARGES
2-(4-imidazol-1-ylbutyl)isoindoline-1,3-dione
@<TRIPOS>ATOM
      1 C1          0.6111    6.0496    0.0265 C.ar      1 <0>        -0.0909
      2 C2         -0.7710    6.0308    0.0391 C.ar      1 <0>        -0.0907
      3 C3         -1.4573    4.8265    0.0396 C.ar      1 <0>        -0.0412
      4 C4         -0.7520    3.6339    0.0273 C.ar      1 <0>        -0.1464
      5 C5          0.6572    3.6531    0.0145 C.ar      1 <0>        -0.1468
      6 C6          1.3299    4.8645    0.0142 C.ar      1 <0>        -0.0411
      7 C7          1.0809    2.2370    0.0038 C.2       1 <0>         0.5777
      8 O1          2.2288    1.8406   -0.0087 O.2       1 <0>        -0.4609
      9 N1         -0.0178    1.4608    0.0101 N.am      1 <0>        -0.5798
     10 C8         -1.1372    2.2068    0.0189 C.2       1 <0>         0.5772
     11 O2         -2.2739    1.7793    0.0221 O.2       1 <0>        -0.4597
     12 C9          0.0021   -0.0041    0.0020 C.3       1 <0>         0.1102
     13 C10         0.0228   -0.5218    1.4416 C.3       1 <0>        -0.1385
     14 C11         0.0435   -2.0516    1.4332 C.3       1 <0>        -0.1369
     15 C12         0.0642   -2.5693    2.8728 C.3       1 <0>         0.0898
     16 N2          0.0841   -4.0341    2.8648 N.pl3     1 <0>        -0.4107
     17 C13        -1.0065   -4.8613    2.8762 C.2       1 <0>         0.0202
     18 C14        -0.5381   -6.1238    2.8592 C.2       1 <0>        -0.0044
     19 N3          0.8020   -6.0691    2.8473 N.pl3     1 <0>        -0.4951
     20 C15         1.1818   -4.8206    2.8505 C.cat     1 <0>         0.2945
     21 H1          1.1346    6.9943    0.0259 H         1 <0>         0.1468
     22 H2         -1.3199    6.9609    0.0483 H         1 <0>         0.1468
     23 H3         -2.5373    4.8179    0.0491 H         1 <0>         0.1446
     24 H4          2.4097    4.8852    0.0047 H         1 <0>         0.1444
     25 H5         -0.8959   -0.3802   -0.5100 H         1 <0>         0.1014
     26 H6          0.9001   -0.3557   -0.5271 H         1 <0>         0.1009
     27 H7          0.9208   -0.1458    1.9536 H         1 <0>         0.0819
     28 H8         -0.8752   -0.1701    1.9707 H         1 <0>         0.0822
     29 H9         -0.8545   -2.4276    0.9212 H         1 <0>         0.0868
     30 H10         0.9415   -2.4033    0.9041 H         1 <0>         0.0848
     31 H11         0.9622   -2.1932    3.3848 H         1 <0>         0.1238
     32 H12        -0.8338   -2.2177    3.4019 H         1 <0>         0.1264
     33 H13        -2.0433   -4.5594    2.8932 H         1 <0>         0.2191
     34 H14        -1.1366   -7.0228    2.8603 H         1 <0>         0.2215
     35 H15         2.2045   -4.4737    2.8425 H         1 <0>         0.2563
     36 H16         1.3903   -6.9985    2.8370 H         1 <0>         0.5058
@<TRIPOS>BOND
     1    1    6 ar
     2    1    2 ar
     3    1   21 1
     4    2    3 ar
     5    2   22 1
     6    3    4 ar
     7    3   23 1
     8    4   10 1
     9    4    5 ar
    10    5    6 ar
    11    5    7 1
    12    6   24 1
    13    7    8 2
    14    7    9 am
    15    9   10 am
    16    9   12 1
    17   10   11 2
    18   12   13 1
    19   12   25 1
    20   12   26 1
    21   13   14 1
    22   13   27 1
    23   13   28 1
    24   14   15 1
    25   14   29 1
    26   14   30 1
    27   15   16 1
    28   15   31 1
    29   15   32 1
    30   16   20 1
    31   16   17 1
    32   17   18 2
    33   17   33 1
    34   18   19 1
    35   18   34 1
    36   19   20 2
    37   19   36 1
    38   20   35 1
@<TRIPOS>MOLECULE
ZINC04810567
   33    35     0     0     0
SMALL
USER_CHARGES

@<TRIPOS>ATOM
      1 C1         -0.0167    1.3819    0.0096 C.ar      1 <0>        -0.0894
      2 C2          1.1651    2.0988    0.0022 C.ar      1 <0>        -0.0897
      3 C3          2.3854    1.4416   -0.0134 C.ar      1 <0>        -0.0400
      4 C4          2.4197    0.0564   -0.0211 C.ar      1 <0>        -0.1480
      5 C5          1.2146   -0.6746   -0.0131 C.ar      1 <0>        -0.1474
      6 C6          0.0021   -0.0041    0.0020 C.ar      1 <0>        -0.0399
      7 C7          1.6061   -2.0999   -0.0250 C.2       1 <0>         0.5777
      8 O1          0.8430   -3.0446   -0.0230 O.2       1 <0>        -0.4574
      9 N1          2.9491   -2.1754   -0.0390 N.am      1 <0>        -0.5806
     10 C8          3.5027   -0.9494   -0.0377 C.2       1 <0>         0.5784
     11 O2          4.6932   -0.7091   -0.0487 O.2       1 <0>        -0.4594
     12 C9          3.7088   -3.4280   -0.0532 C.3       1 <0>         0.1146
     13 C10         3.9587   -3.8565   -1.5006 C.3       1 <0>        -0.1621
     14 C11         4.7522   -5.1646   -1.5154 C.3       1 <0>         0.0968
     15 N2          4.9914   -5.5749   -2.9013 N.pl3     1 <0>        -0.4088
     16 C12         4.1791   -6.3689   -3.6651 C.2       1 <0>         0.0263
     17 C13         4.7730   -6.4915   -4.8675 C.2       1 <0>         0.0041
     18 N3          5.9168   -5.7914   -4.8387 N.pl3     1 <0>        -0.4759
     19 C14         6.0517   -5.2355   -3.6658 C.cat     1 <0>         0.2896
     20 H1         -0.9613    1.9053    0.0260 H         1 <0>         0.1478
     21 H2          1.1375    3.1784    0.0082 H         1 <0>         0.1477
     22 H3          3.3057    2.0069   -0.0199 H         1 <0>         0.1450
     23 H4         -0.9244   -0.5590    0.0082 H         1 <0>         0.1453
     24 H5          4.6634   -3.2797    0.4518 H         1 <0>         0.1077
     25 H6          3.1415   -4.2029    0.4623 H         1 <0>         0.1078
     26 H7          3.0042   -4.0047   -2.0056 H         1 <0>         0.0893
     27 H8          4.5261   -3.0815   -2.0161 H         1 <0>         0.0872
     28 H9          5.7067   -5.0163   -1.0104 H         1 <0>         0.1281
     29 H10         4.1848   -5.9395   -0.9999 H         1 <0>         0.1307
     30 H11         3.2422   -6.8122   -3.3616 H         1 <0>         0.2237
     31 H12         4.3947   -7.0548   -5.7077 H         1 <0>         0.2246
     32 H13         6.8760   -4.6099   -3.3568 H         1 <0>         0.2605
     33 H14         6.5429   -5.7084   -5.5748 H         1 <0>         0.4658
@<TRIPOS>BOND
     1    1    6 ar
     2    1    2 ar
     3    1   20 1
     4    2    3 ar
     5    2   21 1
     6    3    4 ar
     7    3   22 1
     8    4   10 1
     9    4    5 ar
    10    5    6 ar
    11    5    7 1
    12    6   23 1
    13    7    8 2
    14    7    9 am
    15    9   10 am
    16    9   12 1
    17   10   11 2
    18   12   13 1
    19   12   24 1
    20   12   25 1
    21   13   14 1
    22   13   26 1
    23   13   27 1
    24   14   15 1
    25   14   28 1
    26   14   29 1
    27   15   19 1
    28   15   16 1
    29   16   17 2
    30   16   30 1
    31   17   18 1
    32   17   31 1
    33   18   19 2
    34   18   33 1
    35   19   32 1
@<TRIPOS>MOLECULE
ZINC04810567
   32    34     0     0     0
SMALL
USER_CHARGES

@<TRIPOS>ATOM
      1 C1         -0.0167    1.3819    0.0096 C.ar      1 <0>        -0.0935
      2 C2          1.1651    2.0988    0.0022 C.ar      1 <0>        -0.0934
      3 C3          2.3854    1.4416   -0.0134 C.ar      1 <0>        -0.0430
      4 C4          2.4197    0.0564   -0.0211 C.ar      1 <0>        -0.1426
      5 C5          1.2146   -0.6746   -0.0131 C.ar      1 <0>        -0.1428
      6 C6          0.0021   -0.0041    0.0020 C.ar      1 <0>        -0.0431
      7 C7          1.6061   -2.0999   -0.0250 C.2       1 <0>         0.5755
      8 O1          0.8430   -3.0446   -0.0230 O.2       1 <0>        -0.4586
      9 N1          2.9491   -2.1754   -0.0390 N.am      1 <0>        -0.5772
     10 C8          3.5027   -0.9494   -0.0377 C.2       1 <0>         0.5754
     11 O2          4.6932   -0.7091   -0.0487 O.2       1 <0>        -0.4580
     12 C9          3.7088   -3.4280   -0.0532 C.3       1 <0>         0.1146
     13 C10         3.9587   -3.8565   -1.5006 C.3       1 <0>        -0.1550
     14 C11         4.7522   -5.1646   -1.5154 C.3       1 <0>         0.1101
     15 N2          4.9914   -5.5749   -2.9013 N.pl3     1 <0>        -0.4608
     16 C12         4.1794   -6.3693   -3.6649 C.2       1 <0>        -0.0568
     17 C13         4.7732   -6.4917   -4.8674 C.2       1 <0>        -0.0286
     18 N3          5.9166   -5.7912   -4.8388 N.2       1 <0>        -0.4946
     19 C14         6.0514   -5.2351   -3.6659 C.2       1 <0>         0.1822
     20 H1         -0.9613    1.9053    0.0260 H         1 <0>         0.1448
     21 H2          1.1375    3.1784    0.0082 H         1 <0>         0.1448
     22 H3          3.3057    2.0069   -0.0199 H         1 <0>         0.1439
     23 H4         -0.9244   -0.5590    0.0082 H         1 <0>         0.1437
     24 H5          4.6634   -3.2797    0.4518 H         1 <0>         0.1032
     25 H6          3.1415   -4.2029    0.4623 H         1 <0>         0.1026
     26 H7          3.0042   -4.0047   -2.0056 H         1 <0>         0.0796
     27 H8          4.5261   -3.0815   -2.0161 H         1 <0>         0.0802
     28 H9          5.7067   -5.0163   -1.0104 H         1 <0>         0.1006
     29 H10         4.1848   -5.9395   -0.9999 H         1 <0>         0.0982
     30 H11         3.2427   -6.8129   -3.3613 H         1 <0>         0.1741
     31 H12         4.3950   -7.0552   -5.7076 H         1 <0>         0.1700
     32 H13         6.8755   -4.6092   -3.3571 H         1 <0>         0.2042
@<TRIPOS>BOND
     1    1    6 ar
     2    1    2 ar
     3    1   20 1
     4    2    3 ar
     5    2   21 1
     6    3    4 ar
     7    3   22 1
     8    4   10 1
     9    4    5 ar
    10    5    6 ar
    11    5    7 1
    12    6   23 1
    13    7    8 2
    14    7    9 am
    15    9   10 am
    16    9   12 1
    17   10   11 2
    18   12   13 1
    19   12   24 1
    20   12   25 1
    21   13   14 1
    22   13   26 1
    23   13   27 1
    24   14   15 1
    25   14   28 1
    26   14   29 1
    27   15   19 1
    28   15   16 1
    29   16   17 2
    30   16   30 1
    31   17   18 1
    32   17   31 1
    33   18   19 2
    34   19   32 1
@<TRIPOS>MOLECULE
ZINC36242168
   30    32     0     0     0
SMALL
USER_CHARGES

@<TRIPOS>ATOM
      1 C1         -0.0161    1.3371    0.0094 C.2       1 <0>        -0.0016
      2 C2          1.2587    1.7711   -0.0004 C.2       1 <0>         0.0287
      3 N1          2.0558    0.6583   -0.0140 N.pl3     1 <0>        -0.4019
      4 C3          1.2397   -0.4176   -0.0120 C.cat     1 <0>         0.2900
      5 N2          0.0021   -0.0041    0.0020 N.pl3     1 <0>        -0.4789
      6 C4          3.5206    0.6384   -0.0281 C.3       1 <0>         0.2016
      7 C5          4.0364    0.6240    1.3878 C.2       1 <0>        -0.3607
      8 C6          4.3124   -0.4575    2.1640 C.2       1 <0>        -0.0812
      9 C7          4.7823   -0.2736    3.4423 C.2       1 <0>        -0.1637
     10 C8          4.9311    1.0708    3.8058 C.2       1 <0>        -0.0722
     11 S1          4.4087    1.9434    2.3651 S.3       1 <0>         0.2126
     12 C9          5.4085    1.5031    5.0447 C.2       1 <0>        -0.1136
     13 C10         6.0190    0.5672    5.8352 C.2       1 <0>        -0.0220
     14 C11         6.2565   -0.8343    5.3530 C.3       1 <0>        -0.0953
     15 C12         5.1319   -1.3502    4.4569 C.3       1 <0>        -0.0470
     16 C13         6.4342    0.9276    7.1306 C.2       1 <0>         0.4376
     17 O1          6.2315    2.1678    7.5745 O.co2     1 <0>        -0.6861
     18 O2          7.0302    0.0286    7.9136 O.co2     1 <0>        -0.6855
     19 H1         -0.8984    1.9597    0.0252 H         1 <0>         0.2217
     20 H2          1.5887    2.7994    0.0016 H         1 <0>         0.2205
     21 H3          1.5585   -1.4495   -0.0206 H         1 <0>         0.2565
     22 H4          3.8668   -0.2536   -0.5501 H         1 <0>         0.1320
     23 H5          3.8911    1.5261   -0.5408 H         1 <0>         0.1302
     24 H6          4.1630   -1.4552    1.7784 H         1 <0>         0.1259
     25 H7          5.3013    2.5291    5.3645 H         1 <0>         0.1491
     26 H8          7.1918   -0.8599    4.7939 H         1 <0>         0.0814
     27 H9          6.3476   -1.4926    6.2170 H         1 <0>         0.1033
     28 H10         4.2559   -1.5783    5.0642 H         1 <0>         0.0759
     29 H11         5.4626   -2.2491    3.9367 H         1 <0>         0.0802
     30 H12        -0.7811   -0.5763    0.0069 H         1 <0>         0.4625
@<TRIPOS>BOND
     1    1    5 1
     2    1    2 2
     3    1   19 1
     4    2    3 1
     5    2   20 1
     6    3    4 1
     7    3    6 1
     8    4    5 2
     9    4   21 1
    10    5   30 1
    11    6    7 1
    12    6   22 1
    13    6   23 1
    14    7   11 1
    15    7    8 2
    16    8    9 1
    17    8   24 1
    18    9   15 1
    19    9   10 2
    20   10   11 1
    21   10   12 1
    22   12   13 2
    23   12   25 1
    24   13   14 1
    25   13   16 1
    26   14   15 1
    27   14   26 1
    28   14   27 1
    29   15   28 1
    30   15   29 1
    31   16   17 2
    32   16   18 1
@<TRIPOS>MOLECULE
ZINC34677951
   29    30     0     0     0
SMALL
USER_CHARGES

@<TRIPOS>ATOM
      1 C1         -0.0169    1.3948    0.0097 C.ar      1 <0>        -0.0463
      2 C2          1.1668    2.0970    0.0022 C.ar      1 <0>        -0.1552
      3 C3          2.3803    1.4181   -0.0135 C.ar      1 <0>         0.0971
      4 C4          2.4040    0.0278   -0.0217 C.ar      1 <0>        -0.2198
      5 C5          1.2254   -0.6827   -0.0142 C.ar      1 <0>        -0.0498
      6 C6          0.0021   -0.0041    0.0020 C.ar      1 <0>        -0.1512
      7 C7         -1.2616   -0.7598    0.0105 C.2       1 <0>         0.5174
      8 O1         -2.3302   -0.1645    0.0243 O.co2     1 <0>        -0.6812
      9 O2         -1.2429   -1.9830    0.0038 O.co2     1 <0>        -0.6851
     10 O3          3.5446    2.1144   -0.0213 O.3       1 <0>        -0.3112
     11 C8          4.7548    1.3547   -0.0374 C.3       1 <0>         0.0427
     12 C9          5.9536    2.3052   -0.0442 C.3       1 <0>         0.0945
     13 N1          7.1943    1.5263   -0.0607 N.pl3     1 <0>        -0.4047
     14 C10         7.8899    1.0834    1.0318 C.2       1 <0>         0.0286
     15 C11         8.9608    0.4126    0.5663 C.2       1 <0>         0.0024
     16 N2          8.9202    0.4450   -0.7740 N.pl3     1 <0>        -0.4764
     17 C12         7.8621    1.1061   -1.1567 C.cat     1 <0>         0.2925
     18 H1         -0.9589    1.9228    0.0260 H         1 <0>         0.1400
     19 H2          1.1531    3.1769    0.0081 H         1 <0>         0.1266
     20 H3          3.3488   -0.4952   -0.0342 H         1 <0>         0.1136
     21 H4          1.2447   -1.7625   -0.0213 H         1 <0>         0.1323
     22 H5          4.7981    0.7215    0.8488 H         1 <0>         0.0747
     23 H6          4.7804    0.7311   -0.9311 H         1 <0>         0.0726
     24 H7          5.9103    2.9383   -0.9305 H         1 <0>         0.1335
     25 H8          5.9280    2.9288    0.8494 H         1 <0>         0.1361
     26 H9          7.6300    1.2419    2.0681 H         1 <0>         0.2246
     27 H10         9.7194   -0.0673    1.1668 H         1 <0>         0.2245
     28 H11         7.5703    1.2890   -2.1803 H         1 <0>         0.2619
     29 H12         9.5724    0.0380   -1.3655 H         1 <0>         0.4652
@<TRIPOS>BOND
     1    1    6 ar
     2    1    2 ar
     3    1   18 1
     4    2    3 ar
     5    2   19 1
     6    3    4 ar
     7    3   10 1
     8    4    5 ar
     9    4   20 1
    10    5    6 ar
    11    5   21 1
    12    6    7 1
    13    7    8 2
    14    7    9 1
    15   10   11 1
    16   11   12 1
    17   11   22 1
    18   11   23 1
    19   12   13 1
    20   12   24 1
    21   12   25 1
    22   13   17 1
    23   13   14 1
    24   14   15 2
    25   14   26 1
    26   15   16 1
    27   15   27 1
    28   16   17 2
    29   16   29 1
    30   17   28 1
@<TRIPOS>MOLECULE
ZINC34677951
   28    29     0     0     0
SMALL
USER_CHARGES

@<TRIPOS>ATOM
      1 C1         -0.0169    1.3948    0.0097 C.ar      1 <0>        -0.0483
      2 C2          1.1668    2.0970    0.0022 C.ar      1 <0>        -0.1637
      3 C3          2.3803    1.4181   -0.0135 C.ar      1 <0>         0.1099
      4 C4          2.4040    0.0278   -0.0217 C.ar      1 <0>        -0.2213
      5 C5          1.2254   -0.6827   -0.0142 C.ar      1 <0>        -0.0479
      6 C6          0.0021   -0.0041    0.0020 C.ar      1 <0>        -0.1634
      7 C7         -1.2616   -0.7598    0.0105 C.2       1 <0>         0.5212
      8 O1         -2.3302   -0.1645    0.0243 O.co2     1 <0>        -0.6883
      9 O2         -1.2429   -1.9830    0.0038 O.co2     1 <0>        -0.6890
     10 O3          3.5446    2.1144   -0.0213 O.3       1 <0>        -0.3166
     11 C8          4.7548    1.3547   -0.0374 C.3       1 <0>         0.0472
     12 C9          5.9536    2.3052   -0.0442 C.3       1 <0>         0.1088
     13 N1          7.1943    1.5263   -0.0607 N.pl3     1 <0>        -0.4568
     14 C10         7.8902    1.0838    1.0318 C.2       1 <0>        -0.0549
     15 C11         8.9610    0.4129    0.5663 C.2       1 <0>        -0.0298
     16 N2          8.9201    0.4448   -0.7740 N.2       1 <0>        -0.4952
     17 C12         7.8619    1.1057   -1.1567 C.2       1 <0>         0.1843
     18 H1         -0.9589    1.9228    0.0260 H         1 <0>         0.1354
     19 H2          1.1531    3.1769    0.0081 H         1 <0>         0.1238
     20 H3          3.3488   -0.4952   -0.0342 H         1 <0>         0.1177
     21 H4          1.2447   -1.7625   -0.0213 H         1 <0>         0.1299
     22 H5          4.7981    0.7215    0.8488 H         1 <0>         0.0675
     23 H6          4.7804    0.7311   -0.9311 H         1 <0>         0.0682
     24 H7          5.9103    2.9383   -0.9305 H         1 <0>         0.1065
     25 H8          5.9280    2.9288    0.8494 H         1 <0>         0.1040
     26 H9          7.6305    1.2426    2.0681 H         1 <0>         0.1752
     27 H10         9.7197   -0.0668    1.1668 H         1 <0>         0.1701
     28 H11         7.5698    1.2883   -2.1803 H         1 <0>         0.2057
@<TRIPOS>BOND
     1    1    6 ar
     2    1    2 ar
     3    1   18 1
     4    2    3 ar
     5    2   19 1
     6    3    4 ar
     7    3   10 1
     8    4    5 ar
     9    4   20 1
    10    5    6 ar
    11    5   21 1
    12    6    7 1
    13    7    8 2
    14    7    9 1
    15   10   11 1
    16   11   12 1
    17   11   22 1
    18   11   23 1
    19   12   13 1
    20   12   24 1
    21   12   25 1
    22   13   17 1
    23   13   14 1
    24   14   15 2
    25   14   26 1
    26   15   16 1
    27   15   27 1
    28   16   17 2
    29   17   28 1
@<TRIPOS>MOLECULE
ZINC01536934
   42    43     0     0     0
SMALL
USER_CHARGES
5-[3-pyridyl-[3-(trifluoromethyl)phenyl]-methylene]aminooxypentanoic acid
@<TRIPOS>ATOM
      1 C1          0.6493    1.8443   -1.1875 C.ar      1 <0>        -0.1217
      2 C2          0.6891    3.2181   -1.0616 C.ar      1 <0>        -0.0667
      3 C3         -0.1086    3.8514   -0.1093 C.ar      1 <0>        -0.0902
      4 C4         -0.9425    3.0913    0.7107 C.ar      1 <0>        -0.0234
      5 C5         -0.9771    1.7191    0.5721 C.ar      1 <0>        -0.1825
      6 C6         -0.1793    1.0959   -0.3712 C.ar      1 <0>        -0.0583
      7 C7         -1.8817    0.8968    1.4533 C.3       1 <0>         0.5084
      8 F1         -1.7400   -0.4575    1.1326 F         1 <0>        -0.1775
      9 F2         -1.5350    1.0973    2.7938 F         1 <0>        -0.1759
     10 F3         -3.2099    1.2873    1.2518 F         1 <0>        -0.1688
     11 C8         -0.0702    5.3258    0.0314 C.2       1 <0>         0.2048
     12 N1         -1.1644    5.9842    0.2847 N.2       1 <0>        -0.3140
     13 O1         -2.4090    5.3091    0.3024 O.3       1 <0>        -0.2193
     14 C9         -3.5243    6.1538    0.5936 C.3       1 <0>         0.0704
     15 C10        -4.8090    5.3228    0.5863 C.3       1 <0>        -0.1153
     16 C11        -6.0031    6.2271    0.8981 C.3       1 <0>        -0.0929
     17 C12        -7.2877    5.3961    0.8909 C.3       1 <0>        -0.1566
     18 C13        -8.4639    6.2868    1.1979 C.2       1 <0>         0.4583
     19 O2         -8.2923    7.4653    1.4017 O.co2     1 <0>        -0.6423
     20 C14         1.2134    6.0509   -0.1163 C.ar      1 <0>        -0.0950
     21 C15         1.2326    7.4439   -0.2425 C.ar      1 <0>        -0.0354
     22 C16         2.4574    8.0736   -0.3779 C.ar      1 <0>        -0.1727
     23 C17         3.6126    7.3126   -0.3841 C.ar      1 <0>         0.1106
     24 N2          3.5635    6.0001   -0.2632 N.ar      1 <0>        -0.4820
     25 C18         2.4223    5.3566   -0.1261 C.ar      1 <0>         0.1254
     26 H1          1.2667    1.3527   -1.9248 H         1 <0>         0.1415
     27 H2          1.3364    3.8014   -1.6996 H         1 <0>         0.1381
     28 H3         -1.5625    3.5763    1.4501 H         1 <0>         0.1418
     29 H4         -0.2070    0.0211   -0.4734 H         1 <0>         0.1423
     30 H5         -3.3902    6.6069    1.5758 H         1 <0>         0.0604
     31 H6         -3.5939    6.9369   -0.1614 H         1 <0>         0.0607
     32 H7         -4.9430    4.8696   -0.3959 H         1 <0>         0.0682
     33 H8         -4.7394    4.5397    1.3413 H         1 <0>         0.0680
     34 H9         -5.8690    6.6802    1.8803 H         1 <0>         0.0636
     35 H10        -6.0727    7.0102    0.1431 H         1 <0>         0.0636
     36 H11        -7.4218    4.9430   -0.0914 H         1 <0>         0.0641
     37 H12        -7.2181    4.6130    1.6458 H         1 <0>         0.0644
     38 H13         0.3150    8.0135   -0.2340 H         1 <0>         0.1463
     39 H14         2.5108    9.1477   -0.4772 H         1 <0>         0.1426
     40 H15         4.5701    7.8010   -0.4899 H         1 <0>         0.1608
     41 H16         2.4229    4.2814   -0.0248 H         1 <0>         0.1634
     42 O3         -9.7022    5.7709    1.2451 O.co2     1 <0>        -0.7770
@<TRIPOS>BOND
     1    1    6 ar
     2    1    2 ar
     3    1   26 1
     4    2    3 ar
     5    2   27 1
     6    3    4 ar
     7    3   11 1
     8    4    5 ar
     9    4   28 1
    10    5    6 ar
    11    5    7 1
    12    6   29 1
    13    7    8 1
    14    7    9 1
    15    7   10 1
    16   11   12 2
    17   11   20 1
    18   12   13 1
    19   13   14 1
    20   14   15 1
    21   14   30 1
    22   14   31 1
    23   15   16 1
    24   15   32 1
    25   15   33 1
    26   16   17 1
    27   16   34 1
    28   16   35 1
    29   17   18 1
    30   17   36 1
    31   17   37 1
    32   18   19 2
    33   18   42 1
    34   20   25 ar
    35   20   21 ar
    36   21   22 ar
    37   21   38 1
    38   22   23 ar
    39   22   39 1
    40   23   24 ar
    41   23   40 1
    42   24   25 ar
    43   25   41 1
@<TRIPOS>MOLECULE
ZINC00005882
   32    34     0     0     0
SMALL
USER_CHARGES
2-ethyl-4-(3-pyridyl)phthalazin-1-one
@<TRIPOS>ATOM
      1 C1         -2.3206   -4.7009   -1.6959 C.3       1 <0>        -0.1686
      2 C2         -2.2822   -4.3088   -0.2175 C.3       1 <0>         0.1238
      3 N1         -2.3984   -2.8536   -0.0950 N.am      1 <0>        -0.4251
      4 C3         -3.6236   -2.3010    0.0164 C.2       1 <0>         0.5271
      5 O1         -4.6204   -3.0010    0.0153 O.2       1 <0>        -0.5152
      6 C4         -3.7370   -0.8418    0.1396 C.ar      1 <0>        -0.1243
      7 C5         -4.9724   -0.2063    0.2577 C.ar      1 <0>        -0.0526
      8 C6         -5.0222    1.1656    0.3699 C.ar      1 <0>        -0.1103
      9 C7         -3.8559    1.9195    0.3665 C.ar      1 <0>        -0.0859
     10 C8         -2.6252    1.3118    0.2508 C.ar      1 <0>        -0.1064
     11 C9         -2.5508   -0.0756    0.1360 C.ar      1 <0>        -0.0544
     12 C10        -1.2637   -0.7745    0.0095 C.2       1 <0>         0.1779
     13 N2         -1.2387   -2.0779   -0.1018 N.2       1 <0>        -0.2214
     14 C11         0.0021   -0.0041    0.0020 C.ar      1 <0>        -0.0901
     15 C12         0.1767    1.0847    0.8625 C.ar      1 <0>        -0.0550
     16 C13         1.3775    1.7710    0.8169 C.ar      1 <0>        -0.1701
     17 C14         2.3575    1.3622   -0.0697 C.ar      1 <0>         0.1150
     18 N3          2.1643    0.3313   -0.8694 N.ar      1 <0>        -0.4811
     19 C15         1.0386   -0.3528   -0.8624 C.ar      1 <0>         0.1419
     20 H1         -3.2633   -4.3735   -2.1342 H         1 <0>         0.0598
     21 H2         -1.4917   -4.2248   -2.2197 H         1 <0>         0.0624
     22 H3         -2.2342   -5.7836   -1.7871 H         1 <0>         0.0779
     23 H4         -1.3394   -4.6363    0.2208 H         1 <0>         0.0954
     24 H5         -3.1111   -4.7849    0.3063 H         1 <0>         0.0999
     25 H6         -5.8838   -0.7857    0.2608 H         1 <0>         0.1446
     26 H7         -5.9780    1.6600    0.4619 H         1 <0>         0.1389
     27 H8         -3.9144    2.9943    0.4558 H         1 <0>         0.1380
     28 H9         -1.7236    1.9063    0.2490 H         1 <0>         0.1439
     29 H10        -0.6058    1.3825    1.5447 H         1 <0>         0.1445
     30 H11         1.5479    2.6166    1.4669 H         1 <0>         0.1448
     31 H12         3.2958    1.8957   -0.1077 H         1 <0>         0.1624
     32 H13         0.9194   -1.1941   -1.5291 H         1 <0>         0.1623
@<TRIPOS>BOND
     1    1    2 1
     2    1   20 1
     3    1   21 1
     4    1   22 1
     5    2    3 1
     6    2   23 1
     7    2   24 1
     8    3   13 1
     9    3    4 am
    10    4    5 2
    11    4    6 1
    12    6   11 ar
    13    6    7 ar
    14    7    8 ar
    15    7   25 1
    16    8    9 ar
    17    8   26 1
    18    9   10 ar
    19    9   27 1
    20   10   11 ar
    21   10   28 1
    22   11   12 1
    23   12   13 2
    24   12   14 1
    25   14   19 ar
    26   14   15 ar
    27   15   16 ar
    28   15   29 1
    29   16   17 ar
    30   16   30 1
    31   17   18 ar
    32   17   31 1
    33   18   19 ar
    34   19   32 1
@<TRIPOS>MOLECULE
ZINC13745251
   35    36     0     0     0
SMALL
USER_CHARGES
N-(3-imidazol-1-ylpropyl)-3-(trifluoromethyl)benzamide
@<TRIPOS>ATOM
      1 C1         -2.7446    2.5394    2.3614 C.ar      1 <0>        -0.1239
      2 C2         -2.0375    2.7762    3.5223 C.ar      1 <0>        -0.0553
      3 C3         -0.6584    2.5642    3.5511 C.ar      1 <0>        -0.1379
      4 C4         -0.0035    2.1136    2.4037 C.ar      1 <0>        -0.0108
      5 C5         -0.7223    1.8808    1.2496 C.ar      1 <0>        -0.1887
      6 C6         -2.0887    2.0980    1.2262 C.ar      1 <0>        -0.0429
      7 C7         -0.0169    1.3948    0.0097 C.3       1 <0>         0.5099
      8 F1          0.0021   -0.0041    0.0020 F         1 <0>        -0.1731
      9 F2          1.2956    1.8790   -0.0002 F         1 <0>        -0.1729
     10 F3         -0.6935    1.8582   -1.1237 F         1 <0>        -0.1743
     11 C8          0.1057    2.8163    4.7915 C.2       1 <0>         0.5618
     12 O1          1.3068    2.6312    4.8136 O.2       1 <0>        -0.5253
     13 N1         -0.5296    3.2513    5.8977 N.am      1 <0>        -0.7264
     14 C9          0.2276    3.5011    7.1267 C.3       1 <0>         0.1219
     15 C10        -0.7243    3.9837    8.2230 C.3       1 <0>        -0.1491
     16 C11         0.0664    4.2445    9.5066 C.3       1 <0>         0.1084
     17 N2         -0.8451    4.7066   10.5563 N.pl3     1 <0>        -0.4613
     18 C12        -1.1797    6.0059   10.8273 C.2       1 <0>        -0.0574
     19 C13        -2.0418    5.9786   11.8616 C.2       1 <0>        -0.0282
     20 N3         -2.2212    4.6982   12.2185 N.2       1 <0>        -0.4944
     21 C14        -1.5075    3.9306   11.4410 C.2       1 <0>         0.1816
     22 H1         -3.8119    2.7031    2.3377 H         1 <0>         0.1453
     23 H2         -2.5501    3.1251    4.4066 H         1 <0>         0.1360
     24 H3          1.0635    1.9473    2.4195 H         1 <0>         0.1512
     25 H4         -2.6462    1.9184    0.3188 H         1 <0>         0.1443
     26 H5         -1.4881    3.3990    5.8801 H         1 <0>         0.4018
     27 H6          0.7139    2.5798    7.4474 H         1 <0>         0.0769
     28 H7          0.9828    4.2644    6.9394 H         1 <0>         0.0763
     29 H8         -1.2106    4.9049    7.9023 H         1 <0>         0.0799
     30 H9         -1.4796    3.2204    8.4103 H         1 <0>         0.0807
     31 H10         0.5527    3.3232    9.8273 H         1 <0>         0.1001
     32 H11         0.8217    5.0078    9.3193 H         1 <0>         0.0977
     33 H12        -0.8229    6.8840   10.3096 H         1 <0>         0.1740
     34 H13        -2.5035    6.8375   12.3257 H         1 <0>         0.1699
     35 H14        -1.4557    2.8533   11.4957 H         1 <0>         0.2041
@<TRIPOS>BOND
     1    1    6 ar
     2    1    2 ar
     3    1   22 1
     4    2    3 ar
     5    2   23 1
     6    3    4 ar
     7    3   11 1
     8    4    5 ar
     9    4   24 1
    10    5    6 ar
    11    5    7 1
    12    6   25 1
    13    7    8 1
    14    7    9 1
    15    7   10 1
    16   11   12 2
    17   11   13 am
    18   13   14 1
    19   13   26 1
    20   14   15 1
    21   14   27 1
    22   14   28 1
    23   15   16 1
    24   15   29 1
    25   15   30 1
    26   16   17 1
    27   16   31 1
    28   16   32 1
    29   17   21 1
    30   17   18 1
    31   18   19 2
    32   18   33 1
    33   19   20 1
    34   19   34 1
    35   20   21 2
    36   21   35 1
@<TRIPOS>MOLECULE
ZINC13745251
   36    37     0     0     0
SMALL
USER_CHARGES
N-(3-imidazol-1-ylpropyl)-3-(trifluoromethyl)benzamide
@<TRIPOS>ATOM
      1 C1         -2.7446    2.5394    2.3614 C.ar      1 <0>        -0.1238
      2 C2         -2.0375    2.7762    3.5223 C.ar      1 <0>        -0.0564
      3 C3         -0.6584    2.5642    3.5511 C.ar      1 <0>        -0.1437
      4 C4         -0.0035    2.1136    2.4037 C.ar      1 <0>        -0.0089
      5 C5         -0.7223    1.8808    1.2496 C.ar      1 <0>        -0.1851
      6 C6         -2.0887    2.0980    1.2262 C.ar      1 <0>        -0.0384
      7 C7         -0.0169    1.3948    0.0097 C.3       1 <0>         0.5089
      8 F1          0.0021   -0.0041    0.0020 F         1 <0>        -0.1717
      9 F2          1.2956    1.8790   -0.0002 F         1 <0>        -0.1722
     10 F3         -0.6935    1.8582   -1.1237 F         1 <0>        -0.1725
     11 C8          0.1057    2.8163    4.7915 C.2       1 <0>         0.5662
     12 O1          1.3068    2.6312    4.8136 O.2       1 <0>        -0.5188
     13 N1         -0.5296    3.2513    5.8977 N.am      1 <0>        -0.7320
     14 C9          0.2276    3.5011    7.1267 C.3       1 <0>         0.1218
     15 C10        -0.7243    3.9837    8.2230 C.3       1 <0>        -0.1545
     16 C11         0.0664    4.2445    9.5066 C.3       1 <0>         0.0954
     17 N2         -0.8451    4.7066   10.5563 N.pl3     1 <0>        -0.4104
     18 C12        -1.1797    6.0059   10.8273 C.2       1 <0>         0.0235
     19 C13        -2.0418    5.9786   11.8616 C.2       1 <0>         0.0056
     20 C14        -1.5075    3.9306   11.4410 C.cat     1 <0>         0.2880
     21 H1         -3.8119    2.7031    2.3377 H         1 <0>         0.1462
     22 H2         -2.5501    3.1251    4.4066 H         1 <0>         0.1331
     23 H3          1.0635    1.9473    2.4195 H         1 <0>         0.1522
     24 H4         -2.6462    1.9184    0.3188 H         1 <0>         0.1468
     25 H5         -1.4881    3.3990    5.8801 H         1 <0>         0.4023
     26 H6          0.7139    2.5798    7.4474 H         1 <0>         0.0808
     27 H7          0.9828    4.2644    6.9394 H         1 <0>         0.0810
     28 H8         -1.2106    4.9049    7.9023 H         1 <0>         0.0893
     29 H9         -1.4796    3.2204    8.4103 H         1 <0>         0.0873
     30 H10         0.5527    3.3232    9.8273 H         1 <0>         0.1270
     31 H11         0.8217    5.0078    9.3193 H         1 <0>         0.1295
     32 H12        -0.8229    6.8840   10.3096 H         1 <0>         0.2223
     33 H13        -2.5035    6.8375   12.3257 H         1 <0>         0.2233
     34 H14        -1.4557    2.8533   11.4957 H         1 <0>         0.2591
     35 N3         -2.2204    4.6986   12.2175 N.pl3     1 <0>        -0.4834
     36 H15        -2.8241    4.3737   12.9819 H         1 <0>         0.4822
@<TRIPOS>BOND
     1    1    6 ar
     2    1    2 ar
     3    1   21 1
     4    2    3 ar
     5    2   22 1
     6    3    4 ar
     7    3   11 1
     8    4    5 ar
     9    4   23 1
    10    5    6 ar
    11    5    7 1
    12    6   24 1
    13    7    8 1
    14    7    9 1
    15    7   10 1
    16   11   12 2
    17   11   13 am
    18   13   14 1
    19   13   25 1
    20   14   15 1
    21   14   26 1
    22   14   27 1
    23   15   16 1
    24   15   28 1
    25   15   29 1
    26   16   17 1
    27   16   30 1
    28   16   31 1
    29   17   20 1
    30   17   18 1
    31   18   19 2
    32   18   32 1
    33   19   33 1
    34   19   35 1
    35   20   34 1
    36   20   35 2
    37   35   36 1
@<TRIPOS>MOLECULE
ZINC20745549
   32    34     0     0     0
SMALL
USER_CHARGES
3-(3-imidazol-1-ylpropyl)-1,2,3-benzotriazin-4-one
@<TRIPOS>ATOM
      1 C1         -3.9036    1.1649    7.2542 C.ar      1 <0>        -0.0984
      2 C2         -3.4786    2.3901    7.7509 C.ar      1 <0>        -0.0824
      3 C3         -2.4735    3.0935    7.1269 C.ar      1 <0>        -0.0667
      4 C4         -1.8708    2.5709    5.9796 C.ar      1 <0>         0.0563
      5 C5         -2.3053    1.3247    5.4780 C.ar      1 <0>        -0.1512
      6 C6         -3.3245    0.6283    6.1252 C.ar      1 <0>        -0.0522
      7 C7         -1.6552    0.7960    4.2691 C.2       1 <0>         0.5282
      8 O1         -1.9861   -0.2725    3.7885 O.2       1 <0>        -0.5003
      9 N1         -0.6746    1.5449    3.7117 N.am      1 <0>        -0.4576
     10 N2         -0.3118    2.7651    4.2878 N.2       1 <0>         0.0838
     11 N3         -0.8774    3.2362    5.3393 N.2       1 <0>        -0.1948
     12 C8          0.0111    1.0724    2.5063 C.3       1 <0>         0.1234
     13 C9         -0.7288    1.5792    1.2668 C.3       1 <0>        -0.1540
     14 C10        -0.0127    1.0858    0.0080 C.3       1 <0>         0.1080
     15 N4         -0.7213    1.5711   -1.1789 N.pl3     1 <0>        -0.4602
     16 C11        -1.7343    0.9295   -1.8390 C.2       1 <0>        -0.0565
     17 C12        -2.0963    1.7245   -2.8640 C.2       1 <0>        -0.0289
     18 N5         -1.3191    2.8173   -2.8361 N.2       1 <0>        -0.4948
     19 C13        -0.4931    2.7323   -1.8294 C.2       1 <0>         0.1820
     20 H1         -4.6942    0.6281    7.7573 H         1 <0>         0.1441
     21 H2         -3.9428    2.7963    8.6375 H         1 <0>         0.1457
     22 H3         -2.1520    4.0457    7.5222 H         1 <0>         0.1519
     23 H4         -3.6590   -0.3249    5.7434 H         1 <0>         0.1473
     24 H5          1.0431    1.4531    2.4985 H         1 <0>         0.1088
     25 H6          0.0260   -0.0275    2.5002 H         1 <0>         0.1078
     26 H7         -1.7608    1.1985    1.2746 H         1 <0>         0.0783
     27 H8         -0.7437    2.6791    1.2728 H         1 <0>         0.0829
     28 H9          1.0193    1.4666    0.0002 H         1 <0>         0.1029
     29 H10         0.0023   -0.0141    0.0019 H         1 <0>         0.0990
     30 H11        -2.1625   -0.0289   -1.5852 H         1 <0>         0.1736
     31 H12        -2.8727    1.5161   -3.5852 H         1 <0>         0.1697
     32 H13         0.2496    3.4690   -1.5607 H         1 <0>         0.2047
@<TRIPOS>BOND
     1    1    6 ar
     2    1    2 ar
     3    1   20 1
     4    2    3 ar
     5    2   21 1
     6    3    4 ar
     7    3   22 1
     8    4   11 1
     9    4    5 ar
    10    5    6 ar
    11    5    7 1
    12    6   23 1
    13    7    8 2
    14    7    9 am
    15    9   10 1
    16    9   12 1
    17   10   11 2
    18   12   13 1
    19   12   24 1
    20   12   25 1
    21   13   14 1
    22   13   26 1
    23   13   27 1
    24   14   15 1
    25   14   28 1
    26   14   29 1
    27   15   19 1
    28   15   16 1
    29   16   17 2
    30   16   30 1
    31   17   18 1
    32   17   31 1
    33   18   19 2
    34   19   32 1
@<TRIPOS>MOLECULE
ZINC20745549
   33    35     0     0     0
SMALL
USER_CHARGES
3-(3-imidazol-1-ylpropyl)-1,2,3-benzotriazin-4-one
@<TRIPOS>ATOM
      1 C1         -3.9036    1.1649    7.2542 C.ar      1 <0>        -0.0913
      2 C2         -3.4786    2.3901    7.7509 C.ar      1 <0>        -0.0795
      3 C3         -2.4735    3.0935    7.1269 C.ar      1 <0>        -0.0614
      4 C4         -1.8708    2.5709    5.9796 C.ar      1 <0>         0.0499
      5 C5         -2.3053    1.3247    5.4780 C.ar      1 <0>        -0.1514
      6 C6         -3.3245    0.6283    6.1252 C.ar      1 <0>        -0.0530
      7 C7         -1.6552    0.7960    4.2691 C.2       1 <0>         0.5311
      8 O1         -1.9861   -0.2725    3.7885 O.2       1 <0>        -0.5014
      9 N1         -0.6746    1.5449    3.7117 N.am      1 <0>        -0.4655
     10 N2         -0.3118    2.7651    4.2878 N.2       1 <0>         0.0731
     11 N3         -0.8774    3.2362    5.3393 N.2       1 <0>        -0.1809
     12 C8          0.0111    1.0724    2.5063 C.3       1 <0>         0.1248
     13 C9         -0.7288    1.5792    1.2668 C.3       1 <0>        -0.1607
     14 C10        -0.0127    1.0858    0.0080 C.3       1 <0>         0.0948
     15 N4         -0.7213    1.5711   -1.1789 N.pl3     1 <0>        -0.4110
     16 C11        -1.7343    0.9295   -1.8390 C.2       1 <0>         0.0211
     17 C12        -2.0963    1.7245   -2.8640 C.2       1 <0>        -0.0044
     18 N5         -1.3191    2.8173   -2.8361 N.pl3     1 <0>        -0.4947
     19 C13        -0.4931    2.7323   -1.8294 C.cat     1 <0>         0.2959
     20 H1         -4.6942    0.6281    7.7573 H         1 <0>         0.1473
     21 H2         -3.9428    2.7963    8.6375 H         1 <0>         0.1493
     22 H3         -2.1520    4.0457    7.5222 H         1 <0>         0.1543
     23 H4         -3.6590   -0.3249    5.7434 H         1 <0>         0.1486
     24 H5          1.0431    1.4531    2.4985 H         1 <0>         0.1125
     25 H6          0.0260   -0.0275    2.5002 H         1 <0>         0.1115
     26 H7         -1.7608    1.1985    1.2746 H         1 <0>         0.0870
     27 H8         -0.7437    2.6791    1.2728 H         1 <0>         0.0892
     28 H9          1.0193    1.4666    0.0002 H         1 <0>         0.1296
     29 H10         0.0023   -0.0141    0.0019 H         1 <0>         0.1305
     30 H11        -2.1625   -0.0289   -1.5852 H         1 <0>         0.2193
     31 H12        -2.8727    1.5161   -3.5852 H         1 <0>         0.2218
     32 H13         0.2496    3.4690   -1.5607 H         1 <0>         0.2577
     33 H14        -1.4463    3.6022   -3.5962 H         1 <0>         0.5061
@<TRIPOS>BOND
     1    1    6 ar
     2    1    2 ar
     3    1   20 1
     4    2    3 ar
     5    2   21 1
     6    3    4 ar
     7    3   22 1
     8    4   11 1
     9    4    5 ar
    10    5    6 ar
    11    5    7 1
    12    6   23 1
    13    7    8 2
    14    7    9 am
    15    9   10 1
    16    9   12 1
    17   10   11 2
    18   12   13 1
    19   12   24 1
    20   12   25 1
    21   13   14 1
    22   13   26 1
    23   13   27 1
    24   14   15 1
    25   14   28 1
    26   14   29 1
    27   15   19 1
    28   15   16 1
    29   16   17 2
    30   16   30 1
    31   17   18 1
    32   17   31 1
    33   18   19 2
    34   18   33 1
    35   19   32 1
@<TRIPOS>MOLECULE
ZINC26388776
   40    41     0     0     0
SMALL
USER_CHARGES
2-amino-N-(4-imidazol-1-ylbutyl)-5-methyl-benzamide
@<TRIPOS>ATOM
      1 C1         -4.1605    3.6746   -6.9363 C.3       1 <0>        -0.1069
      2 C2         -2.8663    2.9171   -7.0857 C.ar      1 <0>        -0.1686
      3 C3         -2.3541    2.6699   -8.3498 C.ar      1 <0>        -0.0348
      4 C4         -1.1709    1.9769   -8.5009 C.ar      1 <0>        -0.2177
      5 C5         -0.4832    1.5215   -7.3826 C.ar      1 <0>         0.2903
      6 C6         -0.9990    1.7705   -6.1013 C.ar      1 <0>        -0.2427
      7 C7         -2.2016    2.4689   -5.9655 C.ar      1 <0>        -0.0307
      8 C8         -0.2795    1.2930   -4.9063 C.2       1 <0>         0.5793
      9 O1          0.7080    0.5942   -5.0300 O.2       1 <0>        -0.5563
     10 N1         -0.7162    1.6309   -3.6769 N.am      1 <0>        -0.7367
     11 C9         -0.0013    1.1564   -2.4895 C.3       1 <0>         0.1212
     12 C10        -0.6986    1.6785   -1.2317 C.3       1 <0>        -0.1290
     13 C11         0.0480    1.1830    0.0084 C.3       1 <0>        -0.1335
     14 C12        -0.6493    1.7052    1.2661 C.3       1 <0>         0.1031
     15 N2          0.0657    1.2307    2.4535 N.pl3     1 <0>        -0.4606
     16 C13        -0.1760    0.0697    3.1372 C.2       1 <0>        -0.0576
     17 C14         0.7069    0.0248    4.1531 C.2       1 <0>        -0.0292
     18 N3          1.4607    1.1327    4.0970 N.2       1 <0>        -0.4956
     19 C15         1.0823    1.8598    3.0815 C.2       1 <0>         0.1807
     20 N4          0.7083    0.8240   -7.5320 N.pl3     1 <0>        -0.8780
     21 H1         -4.5416    3.9490   -7.9310 H         1 <0>         0.0629
     22 H2         -3.9857    4.5863   -6.3463 H         1 <0>         0.0636
     23 H3         -4.8988    3.0413   -6.4226 H         1 <0>         0.0634
     24 H4         -2.8849    3.0219   -9.2220 H         1 <0>         0.1237
     25 H5         -0.7789    1.7878   -9.4893 H         1 <0>         0.1253
     26 H6         -2.6074    2.6607   -4.9832 H         1 <0>         0.1195
     27 H7         -1.6095    2.2630   -3.5651 H         1 <0>         0.4216
     28 H8          0.0006    0.0565   -2.4779 H         1 <0>         0.0685
     29 H9          1.0350    1.5246   -2.5138 H         1 <0>         0.0689
     30 H10        -0.7005    2.7784   -1.2434 H         1 <0>         0.0761
     31 H11        -1.7348    1.3103   -1.2073 H         1 <0>         0.0754
     32 H12         0.0499    0.0831    0.0201 H         1 <0>         0.0757
     33 H13         1.0843    1.5512   -0.0160 H         1 <0>         0.0765
     34 H14        -0.6512    2.8051    1.2544 H         1 <0>         0.0966
     35 H15        -1.6856    1.3370    1.2905 H         1 <0>         0.0942
     36 H16        -0.9284   -0.6695    2.9050 H         1 <0>         0.1732
     37 H17         0.7898   -0.7627    4.8876 H         1 <0>         0.1694
     38 H18         1.5116    2.8073    2.7910 H         1 <0>         0.2033
     39 H19         1.2503    0.4648   -6.6448 H         1 <0>         0.4374
     40 H20         1.1101    0.6307   -8.5376 H         1 <0>         0.4080
@<TRIPOS>BOND
     1    1    2 1
     2    1   21 1
     3    1   22 1
     4    1   23 1
     5    2    7 ar
     6    2    3 ar
     7    3    4 ar
     8    3   24 1
     9    4    5 ar
    10    4   25 1
    11    5    6 ar
    12    5   20 1
    13    6    7 ar
    14    6    8 1
    15    7   26 1
    16    8    9 2
    17    8   10 am
    18   10   11 1
    19   10   27 1
    20   11   12 1
    21   11   28 1
    22   11   29 1
    23   12   13 1
    24   12   30 1
    25   12   31 1
    26   13   14 1
    27   13   32 1
    28   13   33 1
    29   14   15 1
    30   14   34 1
    31   14   35 1
    32   15   19 1
    33   15   16 1
    34   16   17 2
    35   16   36 1
    36   17   18 1
    37   17   37 1
    38   18   19 2
    39   19   38 1
    40   20   39 1
    41   20   40 1
@<TRIPOS>MOLECULE
ZINC26388776
   41    42     0     0     0
SMALL
USER_CHARGES
2-amino-N-(4-imidazol-1-ylbutyl)-5-methyl-benzamide
@<TRIPOS>ATOM
      1 C1         -4.1605    3.6746   -6.9363 C.3       1 <0>        -0.1081
      2 C2         -2.8663    2.9171   -7.0857 C.ar      1 <0>        -0.1663
      3 C3         -2.3541    2.6699   -8.3498 C.ar      1 <0>        -0.0319
      4 C4         -1.1709    1.9769   -8.5009 C.ar      1 <0>        -0.2153
      5 C5         -0.4832    1.5215   -7.3826 C.ar      1 <0>         0.2917
      6 C6         -0.9990    1.7705   -6.1013 C.ar      1 <0>        -0.2480
      7 C7         -2.2016    2.4689   -5.9655 C.ar      1 <0>        -0.0319
      8 C8         -0.2795    1.2930   -4.9063 C.2       1 <0>         0.5830
      9 O1          0.7080    0.5942   -5.0300 O.2       1 <0>        -0.5551
     10 N1         -0.7162    1.6309   -3.6769 N.am      1 <0>        -0.7412
     11 C9         -0.0013    1.1564   -2.4895 C.3       1 <0>         0.1222
     12 C10        -0.6986    1.6785   -1.2317 C.3       1 <0>        -0.1316
     13 C11         0.0480    1.1830    0.0084 C.3       1 <0>        -0.1382
     14 C12        -0.6493    1.7052    1.2661 C.3       1 <0>         0.0897
     15 N2          0.0657    1.2307    2.4535 N.pl3     1 <0>        -0.4110
     16 C13        -0.1760    0.0697    3.1372 C.2       1 <0>         0.0199
     17 C14         0.7069    0.0248    4.1531 C.2       1 <0>        -0.0042
     18 N3          1.4607    1.1327    4.0970 N.pl3     1 <0>        -0.4951
     19 C15         1.0823    1.8598    3.0815 C.cat     1 <0>         0.2943
     20 N4          0.7083    0.8240   -7.5320 N.pl3     1 <0>        -0.8775
     21 H1         -4.5416    3.9490   -7.9310 H         1 <0>         0.0648
     22 H2         -3.9857    4.5863   -6.3463 H         1 <0>         0.0637
     23 H3         -4.8988    3.0413   -6.4226 H         1 <0>         0.0638
     24 H4         -2.8849    3.0219   -9.2220 H         1 <0>         0.1260
     25 H5         -0.7789    1.7878   -9.4893 H         1 <0>         0.1273
     26 H6         -2.6074    2.6607   -4.9832 H         1 <0>         0.1179
     27 H7         -1.6095    2.2630   -3.5651 H         1 <0>         0.4231
     28 H8          0.0006    0.0565   -2.4779 H         1 <0>         0.0688
     29 H9          1.0350    1.5246   -2.5138 H         1 <0>         0.0684
     30 H10        -0.7005    2.7784   -1.2434 H         1 <0>         0.0817
     31 H11        -1.7348    1.3103   -1.2073 H         1 <0>         0.0820
     32 H12         0.0499    0.0831    0.0201 H         1 <0>         0.0851
     33 H13         1.0843    1.5512   -0.0160 H         1 <0>         0.0830
     34 H14        -0.6512    2.8051    1.2544 H         1 <0>         0.1234
     35 H15        -1.6856    1.3370    1.2905 H         1 <0>         0.1260
     36 H16        -0.9284   -0.6695    2.9050 H         1 <0>         0.2191
     37 H17         0.7898   -0.7627    4.8876 H         1 <0>         0.2215
     38 H18         1.5116    2.8073    2.7910 H         1 <0>         0.2562
     39 H19         1.2503    0.4648   -6.6448 H         1 <0>         0.4361
     40 H20         1.1101    0.6307   -8.5376 H         1 <0>         0.4108
     41 H21         2.2495    1.2997    4.8453 H         1 <0>         0.5059
@<TRIPOS>BOND
     1    1    2 1
     2    1   21 1
     3    1   22 1
     4    1   23 1
     5    2    7 ar
     6    2    3 ar
     7    3    4 ar
     8    3   24 1
     9    4    5 ar
    10    4   25 1
    11    5    6 ar
    12    5   20 1
    13    6    7 ar
    14    6    8 1
    15    7   26 1
    16    8    9 2
    17    8   10 am
    18   10   11 1
    19   10   27 1
    20   11   12 1
    21   11   28 1
    22   11   29 1
    23   12   13 1
    24   12   30 1
    25   12   31 1
    26   13   14 1
    27   13   32 1
    28   13   33 1
    29   14   15 1
    30   14   34 1
    31   14   35 1
    32   15   19 1
    33   15   16 1
    34   16   17 2
    35   16   36 1
    36   17   18 1
    37   17   37 1
    38   18   19 2
    39   18   41 1
    40   19   38 1
    41   20   39 1
    42   20   40 1
@<TRIPOS>MOLECULE
ZINC26383047
   34    36     0     0     0
SMALL
USER_CHARGES
3-(3-imidazol-1-ylpropyl)-1H-quinazoline-2,4-dione
@<TRIPOS>ATOM
      1 C1          1.2044   -0.6945   -0.0136 C.ar      1 <0>        -0.1565
      2 C2          0.0021   -0.0041    0.0020 C.ar      1 <0>        -0.0436
      3 C3         -0.0166    1.3764    0.0096 C.ar      1 <0>        -0.1666
      4 C4          1.1775    2.0809    0.0020 C.ar      1 <0>         0.2044
      5 C5          2.3970    1.3820   -0.0139 C.ar      1 <0>        -0.2031
      6 C6          2.4021   -0.0109   -0.0219 C.ar      1 <0>        -0.0130
      7 C7          3.6476    2.1619   -0.0226 C.2       1 <0>         0.5642
      8 O1          4.7290    1.6062   -0.0371 O.2       1 <0>        -0.4905
      9 N1          3.5613    3.5098   -0.0144 N.am      1 <0>        -0.5569
     10 C8          2.3719    4.1317    0.0007 C.2       1 <0>         0.7056
     11 O2          2.3509    5.3472    0.0067 O.2       1 <0>        -0.5418
     12 N2          1.2031    3.4680    0.0092 N.am      1 <0>        -0.6587
     13 H1          0.2608    4.0354    0.0220 H         1 <0>         0.4658
     14 C9          4.7894    4.3084   -0.0228 C.3       1 <0>         0.1110
     15 C10         5.2021    4.5942   -1.4681 C.3       1 <0>        -0.1505
     16 C11         6.4848    5.4282   -1.4769 C.3       1 <0>         0.1084
     17 N3          6.8799    5.7018   -2.8608 N.pl3     1 <0>        -0.4593
     18 C12         7.7039    4.9327   -3.6374 C.2       1 <0>        -0.0564
     19 C13         7.7956    5.5450   -4.8333 C.2       1 <0>        -0.0297
     20 N4          7.0554    6.6625   -4.7851 N.2       1 <0>        -0.4955
     21 C14         6.5040    6.7630   -3.6066 C.2       1 <0>         0.1820
     22 H2          1.2029   -1.7745   -0.0198 H         1 <0>         0.1382
     23 H3         -0.9289   -0.5515    0.0080 H         1 <0>         0.1388
     24 H4         -0.9581    1.9056    0.0170 H         1 <0>         0.1410
     25 H5          3.3370   -0.5514   -0.0348 H         1 <0>         0.1447
     26 H6          4.6126    5.2584    0.5027 H         1 <0>         0.1076
     27 H7          5.5917    3.7526    0.4845 H         1 <0>         0.1055
     28 H8          5.3789    3.6442   -1.9936 H         1 <0>         0.0778
     29 H9          4.3998    5.1501   -1.9754 H         1 <0>         0.0798
     30 H10         6.3080    6.3782   -0.9514 H         1 <0>         0.1015
     31 H11         7.2871    4.8723   -0.9696 H         1 <0>         0.0988
     32 H12         8.1859    4.0107   -3.3476 H         1 <0>         0.1737
     33 H13         8.3689    5.1996   -5.6809 H         1 <0>         0.1696
     34 H14         5.8541    7.5621   -3.2818 H         1 <0>         0.2038
@<TRIPOS>BOND
     1    1    6 ar
     2    1    2 ar
     3    1   22 1
     4    2    3 ar
     5    2   23 1
     6    3    4 ar
     7    3   24 1
     8    4   12 1
     9    4    5 ar
    10    5    6 ar
    11    5    7 1
    12    6   25 1
    13    7    8 2
    14    7    9 am
    15    9   10 am
    16    9   14 1
    17   10   11 2
    18   10   12 am
    19   12   13 1
    20   14   15 1
    21   14   26 1
    22   14   27 1
    23   15   16 1
    24   15   28 1
    25   15   29 1
    26   16   17 1
    27   16   30 1
    28   16   31 1
    29   17   21 1
    30   17   18 1
    31   18   19 2
    32   18   32 1
    33   19   20 1
    34   19   33 1
    35   20   21 2
    36   21   34 1
@<TRIPOS>MOLECULE
ZINC26383047
   35    37     0     0     0
SMALL
USER_CHARGES
3-(3-imidazol-1-ylpropyl)-1H-quinazoline-2,4-dione
@<TRIPOS>ATOM
      1 C1          1.2044   -0.6945   -0.0136 C.ar      1 <0>        -0.1519
      2 C2          0.0021   -0.0041    0.0020 C.ar      1 <0>        -0.0395
      3 C3         -0.0166    1.3764    0.0096 C.ar      1 <0>        -0.1636
      4 C4          1.1775    2.0809    0.0020 C.ar      1 <0>         0.2004
      5 C5          2.3970    1.3820   -0.0139 C.ar      1 <0>        -0.2063
      6 C6          2.4021   -0.0109   -0.0219 C.ar      1 <0>        -0.0133
      7 C7          3.6476    2.1619   -0.0226 C.2       1 <0>         0.5665
      8 O1          4.7290    1.6062   -0.0371 O.2       1 <0>        -0.4912
      9 N1          3.5613    3.5098   -0.0144 N.am      1 <0>        -0.5596
     10 C8          2.3719    4.1317    0.0007 C.2       1 <0>         0.7070
     11 O2          2.3509    5.3472    0.0067 O.2       1 <0>        -0.5471
     12 N2          1.2031    3.4680    0.0092 N.am      1 <0>        -0.6566
     13 H1          0.2608    4.0354    0.0220 H         1 <0>         0.4688
     14 C9          4.7894    4.3084   -0.0228 C.3       1 <0>         0.1108
     15 C10         5.2021    4.5942   -1.4681 C.3       1 <0>        -0.1574
     16 C11         6.4848    5.4282   -1.4769 C.3       1 <0>         0.0952
     17 N3          6.8799    5.7018   -2.8608 N.pl3     1 <0>        -0.4101
     18 C12         7.7039    4.9327   -3.6374 C.2       1 <0>         0.0212
     19 C13         7.7956    5.5450   -4.8333 C.2       1 <0>        -0.0050
     20 N4          7.0554    6.6625   -4.7851 N.pl3     1 <0>        -0.4950
     21 C14         6.5040    6.7630   -3.6066 C.cat     1 <0>         0.2958
     22 H2          1.2029   -1.7745   -0.0198 H         1 <0>         0.1411
     23 H3         -0.9289   -0.5515    0.0080 H         1 <0>         0.1421
     24 H4         -0.9581    1.9056    0.0170 H         1 <0>         0.1430
     25 H5          3.3370   -0.5514   -0.0348 H         1 <0>         0.1456
     26 H6          4.6126    5.2584    0.5027 H         1 <0>         0.1122
     27 H7          5.5917    3.7526    0.4845 H         1 <0>         0.1106
     28 H8          5.3789    3.6442   -1.9936 H         1 <0>         0.0871
     29 H9          4.3998    5.1501   -1.9754 H         1 <0>         0.0864
     30 H10         6.3080    6.3782   -0.9514 H         1 <0>         0.1284
     31 H11         7.2871    4.8723   -0.9696 H         1 <0>         0.1306
     32 H12         8.1859    4.0107   -3.3476 H         1 <0>         0.2196
     33 H13         8.3689    5.1996   -5.6809 H         1 <0>         0.2218
     34 H14         5.8541    7.5621   -3.2818 H         1 <0>         0.2569
     35 H15         6.9946    7.3203   -5.6646 H         1 <0>         0.5057
@<TRIPOS>BOND
     1    1    6 ar
     2    1    2 ar
     3    1   22 1
     4    2    3 ar
     5    2   23 1
     6    3    4 ar
     7    3   24 1
     8    4   12 1
     9    4    5 ar
    10    5    6 ar
    11    5    7 1
    12    6   25 1
    13    7    8 2
    14    7    9 am
    15    9   10 am
    16    9   14 1
    17   10   11 2
    18   10   12 am
    19   12   13 1
    20   14   15 1
    21   14   26 1
    22   14   27 1
    23   15   16 1
    24   15   28 1
    25   15   29 1
    26   16   17 1
    27   16   30 1
    28   16   31 1
    29   17   21 1
    30   17   18 1
    31   18   19 2
    32   18   32 1
    33   19   20 1
    34   19   33 1
    35   20   21 2
    36   20   35 1
    37   21   34 1
@<TRIPOS>MOLECULE
ZINC02848242
   36    38     0     0     0
SMALL
USER_CHARGES

@<TRIPOS>ATOM
      1 C1         -0.0165    1.3620    0.0095 C.ar      1 <0>        -0.1348
      2 C2          1.1708    2.0817    0.0021 C.ar      1 <0>        -0.0732
      3 C3          2.3870    1.4341   -0.0131 C.ar      1 <0>        -0.1151
      4 C4          2.4312    0.0446   -0.0210 C.ar      1 <0>         0.0738
      5 C5          1.2247   -0.6799   -0.0133 C.ar      1 <0>        -0.1507
      6 C6          0.0021   -0.0041    0.0020 C.ar      1 <0>        -0.0547
      7 C7          1.6095   -2.0907   -0.0246 C.2       1 <0>        -0.0910
      8 C8          2.9674   -2.1102   -0.0377 C.2       1 <0>        -0.0484
      9 O1          3.4413   -0.8467   -0.0354 O.3       1 <0>        -0.1897
     10 C9          3.7957   -3.3242   -0.0517 C.2       1 <0>         0.6092
     11 O2          3.2684   -4.4205   -0.0522 O.2       1 <0>        -0.5050
     12 N1          5.1396   -3.2229   -0.0640 N.am      1 <0>        -0.7260
     13 C10         5.9653   -4.4330   -0.0780 C.3       1 <0>         0.1214
     14 C11         7.4443   -4.0411   -0.0902 C.3       1 <0>        -0.1555
     15 C12         8.3066   -5.3049   -0.1048 C.3       1 <0>         0.0956
     16 N2          9.7227   -4.9297   -0.1164 N.pl3     1 <0>        -0.4089
     17 C13        10.4957   -4.7103   -1.2246 C.2       1 <0>         0.0257
     18 C14        11.7269   -4.3892   -0.7834 C.2       1 <0>         0.0046
     19 N3         11.7062   -4.4119    0.5575 N.pl3     1 <0>        -0.4760
     20 C15        10.5076   -4.7299    0.9641 C.cat     1 <0>         0.2892
     21 H1         -0.9609    1.8855    0.0259 H         1 <0>         0.1371
     22 H2          1.1408    3.1613    0.0078 H         1 <0>         0.1419
     23 H3          3.3039    2.0047   -0.0191 H         1 <0>         0.1362
     24 H4         -0.9244   -0.5591    0.0083 H         1 <0>         0.1351
     25 H5          0.9478   -2.9443   -0.0229 H         1 <0>         0.1728
     26 H6          5.5601   -2.3488   -0.0637 H         1 <0>         0.4095
     27 H7          5.7542   -5.0272    0.8111 H         1 <0>         0.0827
     28 H8          5.7372   -5.0182   -0.9688 H         1 <0>         0.0829
     29 H9          7.6554   -3.4469   -0.9793 H         1 <0>         0.0904
     30 H10         7.6724   -3.4558    0.8006 H         1 <0>         0.0884
     31 H11         8.0955   -5.8991    0.7843 H         1 <0>         0.1278
     32 H12         8.0784   -5.8901   -0.9956 H         1 <0>         0.1305
     33 H13        10.1792   -4.7814   -2.2547 H         1 <0>         0.2236
     34 H14        12.5812   -4.1546   -1.4011 H         1 <0>         0.2243
     35 H15        10.1958   -4.8209    1.9941 H         1 <0>         0.2604
     36 H16        12.4619   -4.2187    1.1341 H         1 <0>         0.4659
@<TRIPOS>BOND
     1    1    6 ar
     2    1    2 ar
     3    1   21 1
     4    2    3 ar
     5    2   22 1
     6    3    4 ar
     7    3   23 1
     8    4    9 1
     9    4    5 ar
    10    5    6 ar
    11    5    7 1
    12    6   24 1
    13    7    8 2
    14    7   25 1
    15    8    9 1
    16    8   10 1
    17   10   11 2
    18   10   12 am
    19   12   13 1
    20   12   26 1
    21   13   14 1
    22   13   27 1
    23   13   28 1
    24   14   15 1
    25   14   29 1
    26   14   30 1
    27   15   16 1
    28   15   31 1
    29   15   32 1
    30   16   20 1
    31   16   17 1
    32   17   18 2
    33   17   33 1
    34   18   19 1
    35   18   34 1
    36   19   20 2
    37   19   36 1
    38   20   35 1
@<TRIPOS>MOLECULE
ZINC02848242
   35    37     0     0     0
SMALL
USER_CHARGES

@<TRIPOS>ATOM
      1 C1         -0.0165    1.3620    0.0095 C.ar      1 <0>        -0.1370
      2 C2          1.1708    2.0817    0.0021 C.ar      1 <0>        -0.0783
      3 C3          2.3870    1.4341   -0.0131 C.ar      1 <0>        -0.1125
      4 C4          2.4312    0.0446   -0.0210 C.ar      1 <0>         0.0721
      5 C5          1.2247   -0.6799   -0.0133 C.ar      1 <0>        -0.1478
      6 C6          0.0021   -0.0041    0.0020 C.ar      1 <0>        -0.0574
      7 C7          1.6095   -2.0907   -0.0246 C.2       1 <0>        -0.1022
      8 C8          2.9674   -2.1102   -0.0377 C.2       1 <0>        -0.0359
      9 O1          3.4413   -0.8467   -0.0354 O.3       1 <0>        -0.1867
     10 C9          3.7957   -3.3242   -0.0517 C.2       1 <0>         0.6038
     11 O2          3.2684   -4.4205   -0.0522 O.2       1 <0>        -0.5105
     12 N1          5.1396   -3.2229   -0.0640 N.am      1 <0>        -0.7194
     13 C10         5.9653   -4.4330   -0.0780 C.3       1 <0>         0.1211
     14 C11         7.4443   -4.0411   -0.0902 C.3       1 <0>        -0.1499
     15 C12         8.3066   -5.3049   -0.1048 C.3       1 <0>         0.1089
     16 N2          9.7227   -4.9297   -0.1164 N.pl3     1 <0>        -0.4612
     17 C13        10.4958   -4.7108   -1.2246 C.2       1 <0>        -0.0573
     18 C14        11.7270   -4.3895   -0.7834 C.2       1 <0>        -0.0283
     19 N3         11.7061   -4.4116    0.5575 N.2       1 <0>        -0.4946
     20 C15        10.5075   -4.7294    0.9641 C.2       1 <0>         0.1818
     21 H1         -0.9609    1.8855    0.0259 H         1 <0>         0.1345
     22 H2          1.1408    3.1613    0.0078 H         1 <0>         0.1399
     23 H3          3.3039    2.0047   -0.0191 H         1 <0>         0.1364
     24 H4         -0.9244   -0.5591    0.0083 H         1 <0>         0.1331
     25 H5          0.9478   -2.9443   -0.0229 H         1 <0>         0.1719
     26 H6          5.5601   -2.3488   -0.0637 H         1 <0>         0.4093
     27 H7          5.7542   -5.0272    0.8111 H         1 <0>         0.0790
     28 H8          5.7372   -5.0182   -0.9688 H         1 <0>         0.0783
     29 H9          7.6554   -3.4469   -0.9793 H         1 <0>         0.0808
     30 H10         7.6724   -3.4558    0.8006 H         1 <0>         0.0816
     31 H11         8.0955   -5.8991    0.7843 H         1 <0>         0.1004
     32 H12         8.0784   -5.8901   -0.9956 H         1 <0>         0.0979
     33 H13        10.1794   -4.7823   -2.2547 H         1 <0>         0.1741
     34 H14        12.5814   -4.1551   -1.4011 H         1 <0>         0.1699
     35 H15        10.1956   -4.8200    1.9941 H         1 <0>         0.2042
@<TRIPOS>BOND
     1    1    6 ar
     2    1    2 ar
     3    1   21 1
     4    2    3 ar
     5    2   22 1
     6    3    4 ar
     7    3   23 1
     8    4    9 1
     9    4    5 ar
    10    5    6 ar
    11    5    7 1
    12    6   24 1
    13    7    8 2
    14    7   25 1
    15    8    9 1
    16    8   10 1
    17   10   11 2
    18   10   12 am
    19   12   13 1
    20   12   26 1
    21   13   14 1
    22   13   27 1
    23   13   28 1
    24   14   15 1
    25   14   29 1
    26   14   30 1
    27   15   16 1
    28   15   31 1
    29   15   32 1
    30   16   20 1
    31   16   17 1
    32   17   18 2
    33   17   33 1
    34   18   19 1
    35   18   34 1
    36   19   20 2
    37   20   35 1
@<TRIPOS>MOLECULE
ZINC25989966
   39    41     0     0     0
SMALL
USER_CHARGES
N-(4-imidazol-1-ylbutyl)-1H-indole-2-carboxamide
@<TRIPOS>ATOM
      1 C1         -2.7626    2.9626  -10.1469 C.ar      1 <0>        -0.1495
      2 C2         -3.6825    3.5954   -9.3199 C.ar      1 <0>        -0.0852
      3 C3         -3.5657    3.5164   -7.9504 C.ar      1 <0>        -0.1357
      4 C4         -2.5162    2.7967   -7.3856 C.ar      1 <0>         0.1070
      5 C5         -1.5851    2.1561   -8.2262 C.ar      1 <0>        -0.1245
      6 C6         -1.7260    2.2512   -9.6169 C.ar      1 <0>        -0.0596
      7 C7         -0.6419    1.5164   -7.3859 C.2       1 <0>        -0.1073
      8 C8         -1.0033    1.7590   -6.0988 C.2       1 <0>         0.0248
      9 N1         -2.1419    2.5411   -6.0877 N.pl3     1 <0>        -0.5915
     10 H1         -2.7333    2.9483   -5.2544 H         1 <0>         0.4415
     11 C9         -0.2920    1.2718   -4.9074 C.2       1 <0>         0.5856
     12 O1          0.7053    0.5866   -5.0322 O.2       1 <0>        -0.5223
     13 N2         -0.7451    1.5845   -3.6772 N.am      1 <0>        -0.7392
     14 C10        -0.0366    1.0992   -2.4903 C.3       1 <0>         0.1213
     15 C11        -0.7527    1.5927   -1.2315 C.3       1 <0>        -0.1282
     16 C12        -0.0127    1.0858    0.0080 C.3       1 <0>        -0.1342
     17 C13        -0.7288    1.5792    1.2668 C.3       1 <0>         0.1036
     18 N3         -0.0203    1.0939    2.4537 N.pl3     1 <0>        -0.4611
     19 C14        -0.2549   -0.0808    3.1160 C.2       1 <0>        -0.0577
     20 C15         0.6181   -0.1318    4.1401 C.2       1 <0>        -0.0287
     21 N4          1.3592    0.9858    4.1096 N.2       1 <0>        -0.4952
     22 C16         0.9824    1.7247    3.1021 C.2       1 <0>         0.1809
     23 H2         -2.8694    3.0342  -11.2192 H         1 <0>         0.1250
     24 H3         -4.4974    4.1543   -9.7557 H         1 <0>         0.1277
     25 H4         -4.2857    4.0120   -7.3160 H         1 <0>         0.1224
     26 H5         -1.0157    1.7630  -10.2677 H         1 <0>         0.1254
     27 H6          0.2103    0.9375   -7.7098 H         1 <0>         0.1555
     28 H7         -1.6469    2.2041   -3.5644 H         1 <0>         0.4141
     29 H8         -0.0218   -0.0007   -2.4963 H         1 <0>         0.0717
     30 H9          0.9954    1.4798   -2.4981 H         1 <0>         0.0722
     31 H10        -0.7675    2.6926   -1.2255 H         1 <0>         0.0758
     32 H11        -1.7847    1.2121   -1.2237 H         1 <0>         0.0751
     33 H12         0.0022   -0.0141    0.0019 H         1 <0>         0.0767
     34 H13         1.0193    1.4665    0.0002 H         1 <0>         0.0775
     35 H14        -0.7437    2.6791    1.2729 H         1 <0>         0.0963
     36 H15        -1.7608    1.1985    1.2746 H         1 <0>         0.0939
     37 H16        -0.9961   -0.8248    2.8642 H         1 <0>         0.1733
     38 H17         0.7030   -0.9301    4.8625 H         1 <0>         0.1696
     39 H18         1.4032    2.6818    2.8313 H         1 <0>         0.2034
@<TRIPOS>BOND
     1    1    6 ar
     2    1    2 ar
     3    1   23 1
     4    2    3 ar
     5    2   24 1
     6    3    4 ar
     7    3   25 1
     8    4    9 1
     9    4    5 ar
    10    5    6 ar
    11    5    7 1
    12    6   26 1
    13    7    8 2
    14    7   27 1
    15    8    9 1
    16    8   11 1
    17    9   10 1
    18   11   12 2
    19   11   13 am
    20   13   14 1
    21   13   28 1
    22   14   15 1
    23   14   29 1
    24   14   30 1
    25   15   16 1
    26   15   31 1
    27   15   32 1
    28   16   17 1
    29   16   33 1
    30   16   34 1
    31   17   18 1
    32   17   35 1
    33   17   36 1
    34   18   22 1
    35   18   19 1
    36   19   20 2
    37   19   37 1
    38   20   21 1
    39   20   38 1
    40   21   22 2
    41   22   39 1
@<TRIPOS>MOLECULE
ZINC25989966
   40    42     0     0     0
SMALL
USER_CHARGES
N-(4-imidazol-1-ylbutyl)-1H-indole-2-carboxamide
@<TRIPOS>ATOM
      1 C1         -2.7626    2.9626  -10.1469 C.ar      1 <0>        -0.1475
      2 C2         -3.6825    3.5954   -9.3199 C.ar      1 <0>        -0.0806
      3 C3         -3.5657    3.5164   -7.9504 C.ar      1 <0>        -0.1380
      4 C4         -2.5162    2.7967   -7.3856 C.ar      1 <0>         0.1094
      5 C5         -1.5851    2.1561   -8.2262 C.ar      1 <0>        -0.1266
      6 C6         -1.7260    2.2512   -9.6169 C.ar      1 <0>        -0.0583
      7 C7         -0.6419    1.5164   -7.3859 C.2       1 <0>        -0.1001
      8 C8         -1.0033    1.7590   -6.0988 C.2       1 <0>         0.0157
      9 N1         -2.1419    2.5411   -6.0877 N.pl3     1 <0>        -0.5930
     10 H1         -2.7333    2.9483   -5.2544 H         1 <0>         0.4397
     11 C9         -0.2920    1.2718   -4.9074 C.2       1 <0>         0.5899
     12 O1          0.7053    0.5866   -5.0322 O.2       1 <0>        -0.5208
     13 N2         -0.7451    1.5845   -3.6772 N.am      1 <0>        -0.7437
     14 C10        -0.0366    1.0992   -2.4903 C.3       1 <0>         0.1223
     15 C11        -0.7527    1.5927   -1.2315 C.3       1 <0>        -0.1309
     16 C12        -0.0127    1.0858    0.0080 C.3       1 <0>        -0.1389
     17 C13        -0.7288    1.5792    1.2668 C.3       1 <0>         0.0902
     18 N3         -0.0203    1.0939    2.4537 N.pl3     1 <0>        -0.4115
     19 C14        -0.2549   -0.0808    3.1160 C.2       1 <0>         0.0198
     20 C15         0.6181   -0.1318    4.1401 C.2       1 <0>        -0.0037
     21 N4          1.3592    0.9858    4.1096 N.pl3     1 <0>        -0.4949
     22 C16         0.9824    1.7247    3.1021 C.cat     1 <0>         0.2945
     23 H2         -2.8694    3.0342  -11.2192 H         1 <0>         0.1272
     24 H3         -4.4974    4.1543   -9.7557 H         1 <0>         0.1296
     25 H4         -4.2857    4.0120   -7.3160 H         1 <0>         0.1229
     26 H5         -1.0157    1.7630  -10.2677 H         1 <0>         0.1268
     27 H6          0.2103    0.9375   -7.7098 H         1 <0>         0.1558
     28 H7         -1.6469    2.2041   -3.5644 H         1 <0>         0.4157
     29 H8         -0.0218   -0.0007   -2.4963 H         1 <0>         0.0720
     30 H9          0.9954    1.4798   -2.4981 H         1 <0>         0.0717
     31 H10        -0.7675    2.6926   -1.2255 H         1 <0>         0.0814
     32 H11        -1.7847    1.2121   -1.2237 H         1 <0>         0.0817
     33 H12         0.0022   -0.0141    0.0019 H         1 <0>         0.0860
     34 H13         1.0193    1.4665    0.0002 H         1 <0>         0.0840
     35 H14        -0.7437    2.6791    1.2729 H         1 <0>         0.1231
     36 H15        -1.7608    1.1985    1.2746 H         1 <0>         0.1257
     37 H16        -0.9961   -0.8248    2.8642 H         1 <0>         0.2191
     38 H17         0.7030   -0.9301    4.8625 H         1 <0>         0.2217
     39 H18         1.4032    2.6818    2.8313 H         1 <0>         0.2563
     40 H19         2.1383    1.1500    4.8686 H         1 <0>         0.5062
@<TRIPOS>BOND
     1    1    6 ar
     2    1    2 ar
     3    1   23 1
     4    2    3 ar
     5    2   24 1
     6    3    4 ar
     7    3   25 1
     8    4    9 1
     9    4    5 ar
    10    5    6 ar
    11    5    7 1
    12    6   26 1
    13    7    8 2
    14    7   27 1
    15    8    9 1
    16    8   11 1
    17    9   10 1
    18   11   12 2
    19   11   13 am
    20   13   14 1
    21   13   28 1
    22   14   15 1
    23   14   29 1
    24   14   30 1
    25   15   16 1
    26   15   31 1
    27   15   32 1
    28   16   17 1
    29   16   33 1
    30   16   34 1
    31   17   18 1
    32   17   35 1
    33   17   36 1
    34   18   22 1
    35   18   19 1
    36   19   20 2
    37   19   37 1
    38   20   21 1
    39   20   38 1
    40   21   22 2
    41   21   40 1
    42   22   39 1
@<TRIPOS>MOLECULE
ZINC25990984
   32    33     0     0     0
SMALL
USER_CHARGES
N-(4-imidazol-1-ylbutyl)thiophene-2-carboxamide
@<TRIPOS>ATOM
      1 C1          2.2075    1.0272   -0.0135 C.2       1 <0>        -0.1767
      2 C2          1.3304    2.0829    0.0005 C.2       1 <0>        -0.0716
      3 C3         -0.0221    1.7798    0.0118 C.2       1 <0>        -0.2381
      4 S1          0.0021   -0.0041    0.0020 S.3       1 <0>         0.1341
      5 C4          1.7193   -0.2410   -0.0157 C.2       1 <0>        -0.1790
      6 C5         -1.1725    2.6882    0.0225 C.2       1 <0>         0.6051
      7 O1         -0.9969    3.8925    0.0278 O.2       1 <0>        -0.5272
      8 N1         -2.4247    2.1898    0.0266 N.am      1 <0>        -0.7363
      9 C6         -3.5744    3.0977    0.0373 C.3       1 <0>         0.1221
     10 C7         -4.8686    2.2816    0.0400 C.3       1 <0>        -0.1293
     11 C8         -6.0694    3.2298    0.0512 C.3       1 <0>        -0.1338
     12 C9         -7.3636    2.4138    0.0539 C.3       1 <0>         0.1031
     13 N2         -8.5133    3.3216    0.0646 N.pl3     1 <0>        -0.4606
     14 C10        -9.1483    3.8151    1.1723 C.2       1 <0>        -0.0575
     15 C11       -10.1429    4.6082    0.7303 C.2       1 <0>        -0.0292
     16 N3        -10.1217    4.5920   -0.6107 N.2       1 <0>        -0.4957
     17 C12        -9.1482    3.8234   -1.0165 C.2       1 <0>         0.1808
     18 H1          3.2732    1.2024   -0.0231 H         1 <0>         0.1425
     19 H2          1.6789    3.1051    0.0031 H         1 <0>         0.1480
     20 H3          2.2681   -1.1711   -0.0264 H         1 <0>         0.1920
     21 H4         -2.5835    1.1013    0.0219 H         1 <0>         0.4200
     22 H5         -3.5360    3.7273    0.9385 H         1 <0>         0.0715
     23 H6         -3.5455    3.7365   -0.8578 H         1 <0>         0.0719
     24 H7         -4.9069    1.6520   -0.8612 H         1 <0>         0.0769
     25 H8         -4.8974    1.6428    0.9350 H         1 <0>         0.0763
     26 H9         -6.0310    3.8594    0.9524 H         1 <0>         0.0764
     27 H10        -6.0406    3.8686   -0.8438 H         1 <0>         0.0772
     28 H11        -7.4019    1.7842   -0.8473 H         1 <0>         0.0968
     29 H12        -7.3925    1.7750    0.9490 H         1 <0>         0.0944
     30 H13        -8.8982    3.6097    2.2027 H         1 <0>         0.1733
     31 H14       -10.8389    5.1569    1.3475 H         1 <0>         0.1693
     32 H15        -8.8924    3.6224   -2.0463 H         1 <0>         0.2034
@<TRIPOS>BOND
     1    1    5 2
     2    1    2 1
     3    1   18 1
     4    2    3 2
     5    2   19 1
     6    3    4 1
     7    3    6 1
     8    4    5 1
     9    5   20 1
    10    6    7 2
    11    6    8 am
    12    8    9 1
    13    8   21 1
    14    9   10 1
    15    9   22 1
    16    9   23 1
    17   10   11 1
    18   10   24 1
    19   10   25 1
    20   11   12 1
    21   11   26 1
    22   11   27 1
    23   12   13 1
    24   12   28 1
    25   12   29 1
    26   13   17 1
    27   13   14 1
    28   14   15 2
    29   14   30 1
    30   15   16 1
    31   15   31 1
    32   16   17 2
    33   17   32 1
@<TRIPOS>MOLECULE
ZINC25990984
   33    34     0     0     0
SMALL
USER_CHARGES
N-(4-imidazol-1-ylbutyl)thiophene-2-carboxamide
@<TRIPOS>ATOM
      1 C1          2.2075    1.0272   -0.0135 C.2       1 <0>        -0.1786
      2 C2          1.3304    2.0829    0.0005 C.2       1 <0>        -0.0641
      3 C3         -0.0221    1.7798    0.0118 C.2       1 <0>        -0.2484
      4 S1          0.0021   -0.0041    0.0020 S.3       1 <0>         0.1315
      5 C4          1.7193   -0.2410   -0.0157 C.2       1 <0>        -0.1704
      6 C5         -1.1725    2.6882    0.0225 C.2       1 <0>         0.6099
      7 O1         -0.9969    3.8925    0.0278 O.2       1 <0>        -0.5257
      8 N1         -2.4247    2.1898    0.0266 N.am      1 <0>        -0.7408
      9 C6         -3.5744    3.0977    0.0373 C.3       1 <0>         0.1231
     10 C7         -4.8686    2.2816    0.0400 C.3       1 <0>        -0.1319
     11 C8         -6.0694    3.2298    0.0512 C.3       1 <0>        -0.1385
     12 C9         -7.3636    2.4138    0.0539 C.3       1 <0>         0.0897
     13 N2         -8.5133    3.3216    0.0646 N.pl3     1 <0>        -0.4110
     14 C10        -9.1483    3.8151    1.1723 C.2       1 <0>         0.0200
     15 C11       -10.1429    4.6082    0.7303 C.2       1 <0>        -0.0042
     16 N3        -10.1217    4.5920   -0.6107 N.pl3     1 <0>        -0.4951
     17 C12        -9.1482    3.8234   -1.0165 C.cat     1 <0>         0.2944
     18 H1          3.2732    1.2024   -0.0231 H         1 <0>         0.1450
     19 H2          1.6789    3.1051    0.0031 H         1 <0>         0.1487
     20 H3          2.2681   -1.1711   -0.0264 H         1 <0>         0.1941
     21 H4         -2.5835    1.1013    0.0219 H         1 <0>         0.4216
     22 H5         -3.5360    3.7273    0.9385 H         1 <0>         0.0719
     23 H6         -3.5455    3.7365   -0.8578 H         1 <0>         0.0715
     24 H7         -4.9069    1.6520   -0.8612 H         1 <0>         0.0826
     25 H8         -4.8974    1.6428    0.9350 H         1 <0>         0.0829
     26 H9         -6.0310    3.8594    0.9524 H         1 <0>         0.0857
     27 H10        -6.0406    3.8686   -0.8438 H         1 <0>         0.0837
     28 H11        -7.4019    1.7842   -0.8473 H         1 <0>         0.1236
     29 H12        -7.3925    1.7750    0.9490 H         1 <0>         0.1262
     30 H13        -8.8982    3.6097    2.2027 H         1 <0>         0.2192
     31 H14       -10.8389    5.1569    1.3475 H         1 <0>         0.2214
     32 H15        -8.8924    3.6224   -2.0463 H         1 <0>         0.2563
     33 H16       -10.8605    5.1756   -1.1795 H         1 <0>         0.5059
@<TRIPOS>BOND
     1    1    5 2
     2    1    2 1
     3    1   18 1
     4    2    3 2
     5    2   19 1
     6    3    4 1
     7    3    6 1
     8    4    5 1
     9    5   20 1
    10    6    7 2
    11    6    8 am
    12    8    9 1
    13    8   21 1
    14    9   10 1
    15    9   22 1
    16    9   23 1
    17   10   11 1
    18   10   24 1
    19   10   25 1
    20   11   12 1
    21   11   26 1
    22   11   27 1
    23   12   13 1
    24   12   28 1
    25   12   29 1
    26   13   17 1
    27   13   14 1
    28   14   15 2
    29   14   30 1
    30   15   16 1
    31   15   31 1
    32   16   17 2
    33   16   33 1
    34   17   32 1
@<TRIPOS>MOLECULE
ZINC01802775
   35    37     0     0     0
SMALL
USER_CHARGES
3-chloro-N-(3-imidazol-1-ylpropyl)benzothiophene-2-carboxamide
@<TRIPOS>ATOM
      1 C1         -3.6480    2.6904    0.0336 C.ar      1 <0>        -0.1220
      2 C2         -3.5237    4.0746    0.0401 C.ar      1 <0>        -0.0694
      3 C3         -2.2667    4.6441    0.0466 C.ar      1 <0>        -0.0831
      4 C4         -1.1526    3.8318    0.0327 C.ar      1 <0>        -0.0904
      5 C5         -1.2492    2.4203    0.0211 C.ar      1 <0>        -0.1103
      6 C6         -2.5601    1.8780    0.0247 C.ar      1 <0>        -0.0523
      7 C7         -0.0215    1.7317    0.0116 C.2       1 <0>         0.0268
      8 C8          1.1469    2.4294    0.0042 C.2       1 <0>        -0.2012
      9 S1          0.5977    4.1271    0.0178 S.3       1 <0>         0.0963
     10 C9          2.5211    1.9125   -0.0113 C.2       1 <0>         0.6017
     11 O1          2.7195    0.7121   -0.0192 O.2       1 <0>        -0.4991
     12 N1          3.5627    2.7677   -0.0167 N.am      1 <0>        -0.7232
     13 C10         4.9339    2.2520   -0.0321 C.3       1 <0>         0.1243
     14 C11         5.9191    3.4226   -0.0354 C.3       1 <0>        -0.1499
     15 C12         7.3510    2.8839   -0.0515 C.3       1 <0>         0.1090
     16 N2          8.2944    4.0048   -0.0547 N.pl3     1 <0>        -0.4611
     17 C13         8.8113    4.6282   -1.1582 C.2       1 <0>        -0.0571
     18 C14         9.6281    5.6004   -0.7097 C.2       1 <0>        -0.0284
     19 N3          9.6176    5.5654    0.6311 N.2       1 <0>        -0.4946
     20 C15         8.8209    4.6121    1.0305 C.2       1 <0>         0.1817
     21 Cl1         0.0021   -0.0041    0.0020 Cl        1 <0>        -0.0177
     22 H1         -4.6342    2.2502    0.0362 H         1 <0>         0.1362
     23 H2         -4.4042    4.6999    0.0472 H         1 <0>         0.1428
     24 H3         -2.1564    5.7184    0.0509 H         1 <0>         0.1403
     25 H4         -2.6943    0.8064    0.0199 H         1 <0>         0.1338
     26 H5          3.4046    3.7247   -0.0104 H         1 <0>         0.4021
     27 H6          5.1013    1.6387    0.8533 H         1 <0>         0.0787
     28 H7          5.0847    1.6476   -0.9266 H         1 <0>         0.0780
     29 H8          5.7516    4.0359   -0.9208 H         1 <0>         0.0806
     30 H9          5.7682    4.0269    0.8590 H         1 <0>         0.0814
     31 H10         7.5185    2.2706    0.8339 H         1 <0>         0.1003
     32 H11         7.5018    2.2796   -0.9460 H         1 <0>         0.0979
     33 H12         8.6023    4.3881   -2.1903 H         1 <0>         0.1740
     34 H13        10.1962    6.2849   -1.3222 H         1 <0>         0.1697
     35 H14         8.6160    4.3523    2.0586 H         1 <0>         0.2041
@<TRIPOS>BOND
     1    1    6 ar
     2    1    2 ar
     3    1   22 1
     4    2    3 ar
     5    2   23 1
     6    3    4 ar
     7    3   24 1
     8    4    9 1
     9    4    5 ar
    10    5    6 ar
    11    5    7 1
    12    6   25 1
    13    7    8 2
    14    7   21 1
    15    8    9 1
    16    8   10 1
    17   10   11 2
    18   10   12 am
    19   12   13 1
    20   12   26 1
    21   13   14 1
    22   13   27 1
    23   13   28 1
    24   14   15 1
    25   14   29 1
    26   14   30 1
    27   15   16 1
    28   15   31 1
    29   15   32 1
    30   16   20 1
    31   16   17 1
    32   17   18 2
    33   17   33 1
    34   18   19 1
    35   18   34 1
    36   19   20 2
    37   20   35 1
@<TRIPOS>MOLECULE
ZINC01802775
   36    38     0     0     0
SMALL
USER_CHARGES
3-chloro-N-(3-imidazol-1-ylpropyl)benzothiophene-2-carboxamide
@<TRIPOS>ATOM
      1 C1         -3.6480    2.6904    0.0336 C.ar      1 <0>        -0.1202
      2 C2         -3.5237    4.0746    0.0401 C.ar      1 <0>        -0.0629
      3 C3         -2.2667    4.6441    0.0466 C.ar      1 <0>        -0.0856
      4 C4         -1.1526    3.8318    0.0327 C.ar      1 <0>        -0.0845
      5 C5         -1.2492    2.4203    0.0211 C.ar      1 <0>        -0.1157
      6 C6         -2.5601    1.8780    0.0247 C.ar      1 <0>        -0.0492
      7 C7         -0.0215    1.7317    0.0116 C.2       1 <0>         0.0377
      8 C8          1.1469    2.4294    0.0042 C.2       1 <0>        -0.2142
      9 S1          0.5977    4.1271    0.0178 S.3       1 <0>         0.0865
     10 C9          2.5211    1.9125   -0.0113 C.2       1 <0>         0.6069
     11 O1          2.7195    0.7121   -0.0192 O.2       1 <0>        -0.4944
     12 N1          3.5627    2.7677   -0.0167 N.am      1 <0>        -0.7291
     13 C10         4.9339    2.2520   -0.0321 C.3       1 <0>         0.1244
     14 C11         5.9191    3.4226   -0.0354 C.3       1 <0>        -0.1555
     15 C12         7.3510    2.8839   -0.0515 C.3       1 <0>         0.0960
     16 N2          8.2944    4.0048   -0.0547 N.pl3     1 <0>        -0.4102
     17 C13         8.8113    4.6282   -1.1582 C.2       1 <0>         0.0237
     18 C14         9.6281    5.6004   -0.7097 C.2       1 <0>         0.0052
     19 C15         8.8209    4.6121    1.0305 C.cat     1 <0>         0.2880
     20 Cl1         0.0021   -0.0041    0.0020 Cl        1 <0>        -0.0139
     21 H1         -4.6342    2.2502    0.0362 H         1 <0>         0.1390
     22 H2         -4.4042    4.6999    0.0472 H         1 <0>         0.1454
     23 H3         -2.1564    5.7184    0.0509 H         1 <0>         0.1413
     24 H4         -2.6943    0.8064    0.0199 H         1 <0>         0.1355
     25 H5          3.4046    3.7247   -0.0104 H         1 <0>         0.4025
     26 H6          5.1013    1.6387    0.8533 H         1 <0>         0.0824
     27 H7          5.0847    1.6476   -0.9266 H         1 <0>         0.0826
     28 H8          5.7516    4.0359   -0.9208 H         1 <0>         0.0900
     29 H9          5.7682    4.0269    0.8590 H         1 <0>         0.0880
     30 H10         7.5185    2.2706    0.8339 H         1 <0>         0.1272
     31 H11         7.5018    2.2796   -0.9460 H         1 <0>         0.1297
     32 H12         8.6023    4.3881   -2.1903 H         1 <0>         0.2223
     33 H13        10.1962    6.2849   -1.3222 H         1 <0>         0.2232
     34 H14         8.6160    4.3523    2.0586 H         1 <0>         0.2592
     35 N3          9.6169    5.5646    0.6303 N.pl3     1 <0>        -0.4835
     36 H15        10.1514    6.1893    1.2454 H         1 <0>         0.4821
@<TRIPOS>BOND
     1    1    6 ar
     2    1    2 ar
     3    1   21 1
     4    2    3 ar
     5    2   22 1
     6    3    4 ar
     7    3   23 1
     8    4    9 1
     9    4    5 ar
    10    5    6 ar
    11    5    7 1
    12    6   24 1
    13    7    8 2
    14    7   20 1
    15    8    9 1
    16    8   10 1
    17   10   11 2
    18   10   12 am
    19   12   13 1
    20   12   25 1
    21   13   14 1
    22   13   26 1
    23   13   27 1
    24   14   15 1
    25   14   28 1
    26   14   29 1
    27   15   16 1
    28   15   30 1
    29   15   31 1
    30   16   19 1
    31   16   17 1
    32   17   18 2
    33   17   32 1
    34   18   33 1
    35   18   35 1
    36   19   34 1
    37   19   35 2
    38   35   36 1
@<TRIPOS>MOLECULE
ZINC03453620
   30    31     0     0     0
SMALL
USER_CHARGES

@<TRIPOS>ATOM
      1 C1         -0.0161    1.3371    0.0094 C.2       1 <0>         0.0047
      2 C2          1.2587    1.7711   -0.0004 C.2       1 <0>         0.0257
      3 N1          2.0558    0.6583   -0.0140 N.pl3     1 <0>        -0.4092
      4 C3          1.2397   -0.4176   -0.0120 C.cat     1 <0>         0.2893
      5 N2          0.0021   -0.0041    0.0020 N.pl3     1 <0>        -0.4759
      6 C4          3.5206    0.6384   -0.0281 C.3       1 <0>         0.0955
      7 C5          4.0443    0.6237    1.4094 C.3       1 <0>        -0.1563
      8 C6          5.5741    0.6029    1.3947 C.3       1 <0>         0.1230
      9 N3          6.0755    0.5889    2.7711 N.am      1 <0>        -0.7303
     10 C7          7.4027    0.5695    3.0046 C.2       1 <0>         0.6130
     11 O1          8.1847    0.5638    2.0719 O.2       1 <0>        -0.5053
     12 C8          7.9042    0.5555    4.3809 C.2       1 <0>        -0.2471
     13 C9          9.2153    0.5409    4.8334 C.2       1 <0>        -0.0395
     14 C10         9.3758    0.5299    6.1981 C.2       1 <0>        -0.1196
     15 C11         8.2738    0.5339    6.9914 C.2       1 <0>        -0.1983
     16 S1          6.9882    0.5606    5.9103 S.3       1 <0>         0.2946
     17 Br1         8.2026    0.5207    8.8811 Br        1 <0>         0.0812
     18 Br2        11.1063    0.5088    6.9603 Br        1 <0>         0.0034
     19 H1         -0.8984    1.9597    0.0252 H         1 <0>         0.2243
     20 H2          1.5887    2.7994    0.0016 H         1 <0>         0.2237
     21 H3          1.5585   -1.4495   -0.0206 H         1 <0>         0.2605
     22 H4          3.8668   -0.2536   -0.5501 H         1 <0>         0.1279
     23 H5          3.8911    1.5261   -0.5408 H         1 <0>         0.1306
     24 H6          3.6980    1.5158    1.9313 H         1 <0>         0.0908
     25 H7          3.6737   -0.2640    1.9220 H         1 <0>         0.0887
     26 H8          5.9203   -0.2891    0.8727 H         1 <0>         0.0836
     27 H9          5.9446    1.4906    0.8820 H         1 <0>         0.0837
     28 H10         5.4523    0.5935    3.5144 H         1 <0>         0.4020
     29 H11        10.0566    0.5380    4.1562 H         1 <0>         0.1693
     30 H12        -0.7811   -0.5763    0.0069 H         1 <0>         0.4660
@<TRIPOS>BOND
     1    1    5 1
     2    1    2 2
     3    1   19 1
     4    2    3 1
     5    2   20 1
     6    3    4 1
     7    3    6 1
     8    4    5 2
     9    4   21 1
    10    5   30 1
    11    6    7 1
    12    6   22 1
    13    6   23 1
    14    7    8 1
    15    7   24 1
    16    7   25 1
    17    8    9 1
    18    8   26 1
    19    8   27 1
    20    9   10 am
    21    9   28 1
    22   10   11 2
    23   10   12 1
    24   12   16 1
    25   12   13 2
    26   13   14 1
    27   13   29 1
    28   14   15 2
    29   14   18 1
    30   15   16 1
    31   15   17 1
@<TRIPOS>MOLECULE
ZINC03453620
   29    30     0     0     0
SMALL
USER_CHARGES

@<TRIPOS>ATOM
      1 C1         -0.0161    1.3371    0.0094 C.2       1 <0>        -0.0281
      2 C2          1.2587    1.7711   -0.0004 C.2       1 <0>        -0.0572
      3 N1          2.0558    0.6583   -0.0140 N.pl3     1 <0>        -0.4615
      4 C3          1.2397   -0.4176   -0.0120 C.2       1 <0>         0.1819
      5 N2          0.0021   -0.0041    0.0020 N.2       1 <0>        -0.4944
      6 C4          3.5206    0.6384   -0.0281 C.3       1 <0>         0.1088
      7 C5          4.0443    0.6237    1.4094 C.3       1 <0>        -0.1506
      8 C6          5.5741    0.6029    1.3947 C.3       1 <0>         0.1229
      9 N3          6.0755    0.5889    2.7711 N.am      1 <0>        -0.7243
     10 C7          7.4027    0.5695    3.0046 C.2       1 <0>         0.6079
     11 O1          8.1847    0.5638    2.0719 O.2       1 <0>        -0.5109
     12 C8          7.9042    0.5555    4.3809 C.2       1 <0>        -0.2362
     13 C9          9.2153    0.5409    4.8334 C.2       1 <0>        -0.0482
     14 C10         9.3758    0.5299    6.1981 C.2       1 <0>        -0.1162
     15 C11         8.2738    0.5339    6.9914 C.2       1 <0>        -0.2055
     16 S1          6.9882    0.5606    5.9103 S.3       1 <0>         0.3030
     17 Br1         8.2026    0.5207    8.8811 Br        1 <0>         0.0749
     18 Br2        11.1063    0.5088    6.9603 Br        1 <0>        -0.0043
     19 H1         -0.8984    1.9597    0.0252 H         1 <0>         0.1698
     20 H2          1.5887    2.7994    0.0016 H         1 <0>         0.1741
     21 H3          1.5585   -1.4495   -0.0206 H         1 <0>         0.2042
     22 H4          3.8668   -0.2536   -0.5501 H         1 <0>         0.1004
     23 H5          3.8911    1.5261   -0.5408 H         1 <0>         0.0980
     24 H6          3.6980    1.5158    1.9313 H         1 <0>         0.0811
     25 H7          3.6737   -0.2640    1.9220 H         1 <0>         0.0819
     26 H8          5.9203   -0.2891    0.8727 H         1 <0>         0.0797
     27 H9          5.9446    1.4906    0.8820 H         1 <0>         0.0790
     28 H10         5.4523    0.5935    3.5144 H         1 <0>         0.4015
     29 H11        10.0566    0.5380    4.1562 H         1 <0>         0.1683
@<TRIPOS>BOND
     1    1    5 1
     2    1    2 2
     3    1   19 1
     4    2    3 1
     5    2   20 1
     6    3    4 1
     7    3    6 1
     8    4    5 2
     9    4   21 1
    10    6    7 1
    11    6   22 1
    12    6   23 1
    13    7    8 1
    14    7   24 1
    15    7   25 1
    16    8    9 1
    17    8   26 1
    18    8   27 1
    19    9   10 am
    20    9   28 1
    21   10   11 2
    22   10   12 1
    23   12   16 1
    24   12   13 2
    25   13   14 1
    26   13   29 1
    27   14   15 2
    28   14   18 1
    29   15   16 1
    30   15   17 1
@<TRIPOS>MOLECULE
ZINC25990290
   34    35     0     0     0
SMALL
USER_CHARGES
6-chloro-N-(4-imidazol-1-ylbutyl)pyridine-3-carboxamide
@<TRIPOS>ATOM
      1 C1         -3.6857    1.5396    0.0279 C.ar      1 <0>        -0.0025
      2 C2         -4.8453    0.7860    0.0293 C.ar      1 <0>        -0.1581
      3 C3         -4.7554   -0.5962    0.0215 C.ar      1 <0>         0.1954
      4 N1         -3.5821   -1.2024    0.0126 N.ar      1 <0>        -0.4795
      5 C4         -2.4514   -0.5280    0.0050 C.ar      1 <0>         0.1551
      6 C5         -2.4570    0.8675    0.0184 C.ar      1 <0>        -0.1864
      7 C6         -1.1873    1.6238    0.0165 C.2       1 <0>         0.5661
      8 O1         -1.2038    2.8392    0.0232 O.2       1 <0>        -0.5304
      9 N2         -0.0111    0.9658    0.0074 N.am      1 <0>        -0.7356
     10 C7          1.2475    1.7155   -0.0006 C.3       1 <0>         0.1212
     11 C8          2.4238    0.7372   -0.0171 C.3       1 <0>        -0.1296
     12 C9          3.7382    1.5202   -0.0255 C.3       1 <0>        -0.1340
     13 C10         4.9145    0.5419   -0.0420 C.3       1 <0>         0.1031
     14 N3          6.1731    1.2916   -0.0499 N.pl3     1 <0>        -0.4609
     15 C11         6.8632    1.7084   -1.1561 C.2       1 <0>        -0.0577
     16 C12         7.9546    2.3603   -0.7117 C.2       1 <0>        -0.0290
     17 N4          7.9364    2.3339    0.6291 N.2       1 <0>        -0.4955
     18 C13         6.8722    1.6954    1.0326 C.2       1 <0>         0.1808
     19 Cl1        -6.2081   -1.5467    0.0227 Cl        1 <0>        -0.0156
     20 H1         -3.7266    2.6188    0.0336 H         1 <0>         0.1599
     21 H2         -5.8107    1.2701    0.0369 H         1 <0>         0.1567
     22 H3         -1.5112   -1.0593   -0.0069 H         1 <0>         0.1679
     23 H4          0.0039   -0.1341    0.0060 H         1 <0>         0.4205
     24 H5          1.2886    2.3535   -0.8958 H         1 <0>         0.0716
     25 H6          1.3058    2.3438    0.9004 H         1 <0>         0.0719
     26 H7          2.3827    0.0993    0.8781 H         1 <0>         0.0772
     27 H8          2.3655    0.1088   -0.9181 H         1 <0>         0.0766
     28 H9          3.7792    2.1581   -0.9207 H         1 <0>         0.0763
     29 H10         3.7965    2.1486    0.8755 H         1 <0>         0.0770
     30 H11         4.8734   -0.0961    0.8531 H         1 <0>         0.0968
     31 H12         4.8563   -0.0864   -0.9430 H         1 <0>         0.0943
     32 H13         6.5847    1.5476   -2.1871 H         1 <0>         0.1733
     33 H14         8.7142    2.8192   -1.3272 H         1 <0>         0.1694
     34 H15         6.5959    1.5196    2.0618 H         1 <0>         0.2034
@<TRIPOS>BOND
     1    1    6 ar
     2    1    2 ar
     3    1   20 1
     4    2    3 ar
     5    2   21 1
     6    3    4 ar
     7    3   19 1
     8    4    5 ar
     9    5    6 ar
    10    5   22 1
    11    6    7 1
    12    7    8 2
    13    7    9 am
    14    9   10 1
    15    9   23 1
    16   10   11 1
    17   10   24 1
    18   10   25 1
    19   11   12 1
    20   11   26 1
    21   11   27 1
    22   12   13 1
    23   12   28 1
    24   12   29 1
    25   13   14 1
    26   13   30 1
    27   13   31 1
    28   14   18 1
    29   14   15 1
    30   15   16 2
    31   15   32 1
    32   16   17 1
    33   16   33 1
    34   17   18 2
    35   18   34 1
@<TRIPOS>MOLECULE
ZINC25990290
   35    36     0     0     0
SMALL
USER_CHARGES
6-chloro-N-(4-imidazol-1-ylbutyl)pyridine-3-carboxamide
@<TRIPOS>ATOM
      1 C1         -3.6857    1.5396    0.0279 C.ar      1 <0>        -0.0007
      2 C2         -4.8453    0.7860    0.0293 C.ar      1 <0>        -0.1569
      3 C3         -4.7554   -0.5962    0.0215 C.ar      1 <0>         0.1983
      4 N1         -3.5821   -1.2024    0.0126 N.ar      1 <0>        -0.4793
      5 C4         -2.4514   -0.5280    0.0050 C.ar      1 <0>         0.1556
      6 C5         -2.4570    0.8675    0.0184 C.ar      1 <0>        -0.1927
      7 C6         -1.1873    1.6238    0.0165 C.2       1 <0>         0.5705
      8 O1         -1.2038    2.8392    0.0232 O.2       1 <0>        -0.5282
      9 N2         -0.0111    0.9658    0.0074 N.am      1 <0>        -0.7402
     10 C7          1.2475    1.7155   -0.0006 C.3       1 <0>         0.1221
     11 C8          2.4238    0.7372   -0.0171 C.3       1 <0>        -0.1323
     12 C9          3.7382    1.5202   -0.0255 C.3       1 <0>        -0.1387
     13 C10         4.9145    0.5419   -0.0420 C.3       1 <0>         0.0897
     14 N3          6.1731    1.2916   -0.0499 N.pl3     1 <0>        -0.4113
     15 C11         6.8632    1.7084   -1.1561 C.2       1 <0>         0.0199
     16 C12         7.9546    2.3603   -0.7117 C.2       1 <0>        -0.0040
     17 N4          7.9364    2.3339    0.6291 N.pl3     1 <0>        -0.4950
     18 C13         6.8722    1.6954    1.0326 C.cat     1 <0>         0.2944
     19 Cl1        -6.2081   -1.5467    0.0227 Cl        1 <0>        -0.0094
     20 H1         -3.7266    2.6188    0.0336 H         1 <0>         0.1601
     21 H2         -5.8107    1.2701    0.0369 H         1 <0>         0.1587
     22 H3         -1.5112   -1.0593   -0.0069 H         1 <0>         0.1659
     23 H4          0.0039   -0.1341    0.0060 H         1 <0>         0.4221
     24 H5          1.2886    2.3535   -0.8958 H         1 <0>         0.0720
     25 H6          1.3058    2.3438    0.9004 H         1 <0>         0.0715
     26 H7          2.3827    0.0993    0.8781 H         1 <0>         0.0828
     27 H8          2.3655    0.1088   -0.9181 H         1 <0>         0.0832
     28 H9          3.7792    2.1581   -0.9207 H         1 <0>         0.0856
     29 H10         3.7965    2.1486    0.8755 H         1 <0>         0.0836
     30 H11         4.8734   -0.0961    0.8531 H         1 <0>         0.1235
     31 H12         4.8563   -0.0864   -0.9430 H         1 <0>         0.1262
     32 H13         6.5847    1.5476   -2.1871 H         1 <0>         0.2192
     33 H14         8.7142    2.8192   -1.3272 H         1 <0>         0.2215
     34 H15         6.5959    1.5196    2.0618 H         1 <0>         0.2563
     35 H16         8.7473    2.8102    1.1996 H         1 <0>         0.5061
@<TRIPOS>BOND
     1    1    6 ar
     2    1    2 ar
     3    1   20 1
     4    2    3 ar
     5    2   21 1
     6    3    4 ar
     7    3   19 1
     8    4    5 ar
     9    5    6 ar
    10    5   22 1
    11    6    7 1
    12    7    8 2
    13    7    9 am
    14    9   10 1
    15    9   23 1
    16   10   11 1
    17   10   24 1
    18   10   25 1
    19   11   12 1
    20   11   26 1
    21   11   27 1
    22   12   13 1
    23   12   28 1
    24   12   29 1
    25   13   14 1
    26   13   30 1
    27   13   31 1
    28   14   18 1
    29   14   15 1
    30   15   16 2
    31   15   32 1
    32   16   17 1
    33   16   33 1
    34   17   18 2
    35   17   35 1
    36   18   34 1
@<TRIPOS>MOLECULE
ZINC13745255
   32    33     0     0     0
SMALL
USER_CHARGES
N-(3-imidazol-1-ylpropyl)-5-methyl-thiophene-2-carboxamide
@<TRIPOS>ATOM
      1 C1          2.7392   -0.8136   -7.5747 C.3       1 <0>        -0.0781
      2 C2          1.7123   -0.1072   -6.7276 C.2       1 <0>        -0.1417
      3 C3          0.6433    0.6267   -7.1340 C.2       1 <0>        -0.1863
      4 C4         -0.1785    1.1923   -6.1912 C.2       1 <0>        -0.0597
      5 C5          0.1426    0.9733   -4.8607 C.2       1 <0>        -0.2495
      6 S1          1.6131   -0.0274   -4.9987 S.3       1 <0>         0.1336
      7 C6         -0.5435    1.4461   -3.6547 C.2       1 <0>         0.6079
      8 O1         -1.5434    2.1328   -3.7532 O.2       1 <0>        -0.5233
      9 N1         -0.0670    1.1202   -2.4368 N.am      1 <0>        -0.7271
     10 C7         -0.7527    1.5927   -1.2315 C.3       1 <0>         0.1236
     11 C8         -0.0127    1.0858    0.0080 C.3       1 <0>        -0.1496
     12 C9         -0.7288    1.5792    1.2668 C.3       1 <0>         0.1088
     13 N2         -0.0203    1.0939    2.4537 N.pl3     1 <0>        -0.4611
     14 C10        -0.2549   -0.0808    3.1160 C.2       1 <0>        -0.0572
     15 C11         0.6181   -0.1318    4.1401 C.2       1 <0>        -0.0285
     16 N3          1.3592    0.9858    4.1096 N.2       1 <0>        -0.4947
     17 C12         0.9824    1.7247    3.1021 C.2       1 <0>         0.1817
     18 H1          3.5687   -0.1368   -7.7800 H         1 <0>         0.0854
     19 H2          3.1086   -1.6901   -7.0424 H         1 <0>         0.0780
     20 H3          2.2831   -1.1247   -8.5145 H         1 <0>         0.0861
     21 H4          0.4424    0.7630   -8.1863 H         1 <0>         0.1417
     22 H5         -1.0381    1.7820   -6.4737 H         1 <0>         0.1482
     23 H6          0.7300    0.5728   -2.3584 H         1 <0>         0.4014
     24 H7         -1.7753    1.2154   -1.2238 H         1 <0>         0.0765
     25 H8         -0.7675    2.6825   -1.2255 H         1 <0>         0.0771
     26 H9          0.0021   -0.0041    0.0020 H         1 <0>         0.0802
     27 H10         1.0099    1.4631    0.0003 H         1 <0>         0.0809
     28 H11        -0.7436    2.6691    1.2728 H         1 <0>         0.1001
     29 H12        -1.7514    1.2020    1.2746 H         1 <0>         0.0978
     30 H13        -0.9961   -0.8248    2.8642 H         1 <0>         0.1740
     31 H14         0.7030   -0.9301    4.8625 H         1 <0>         0.1698
     32 H15         1.4032    2.6818    2.8313 H         1 <0>         0.2041
@<TRIPOS>BOND
     1    1    2 1
     2    1   18 1
     3    1   19 1
     4    1   20 1
     5    2    6 1
     6    2    3 2
     7    3    4 1
     8    3   21 1
     9    4    5 2
    10    4   22 1
    11    5    6 1
    12    5    7 1
    13    7    8 2
    14    7    9 am
    15    9   10 1
    16    9   23 1
    17   10   11 1
    18   10   24 1
    19   10   25 1
    20   11   12 1
    21   11   26 1
    22   11   27 1
    23   12   13 1
    24   12   28 1
    25   12   29 1
    26   13   17 1
    27   13   14 1
    28   14   15 2
    29   14   30 1
    30   15   16 1
    31   15   31 1
    32   16   17 2
    33   17   32 1
@<TRIPOS>MOLECULE
ZINC13745255
   33    34     0     0     0
SMALL
USER_CHARGES
N-(3-imidazol-1-ylpropyl)-5-methyl-thiophene-2-carboxamide
@<TRIPOS>ATOM
      1 C1          2.7392   -0.8136   -7.5747 C.3       1 <0>        -0.0814
      2 C2          1.7123   -0.1072   -6.7276 C.2       1 <0>        -0.1299
      3 C3          0.6433    0.6267   -7.1340 C.2       1 <0>        -0.1886
      4 C4         -0.1785    1.1923   -6.1912 C.2       1 <0>        -0.0499
      5 C5          0.1426    0.9733   -4.8607 C.2       1 <0>        -0.2609
      6 S1          1.6131   -0.0274   -4.9987 S.3       1 <0>         0.1258
      7 C6         -0.5435    1.4461   -3.6547 C.2       1 <0>         0.6127
      8 O1         -1.5434    2.1328   -3.7532 O.2       1 <0>        -0.5179
      9 N1         -0.0670    1.1202   -2.4368 N.am      1 <0>        -0.7328
     10 C7         -0.7527    1.5927   -1.2315 C.3       1 <0>         0.1237
     11 C8         -0.0127    1.0858    0.0080 C.3       1 <0>        -0.1550
     12 C9         -0.7288    1.5792    1.2668 C.3       1 <0>         0.0958
     13 N2         -0.0203    1.0939    2.4537 N.pl3     1 <0>        -0.4101
     14 C10        -0.2549   -0.0808    3.1160 C.2       1 <0>         0.0237
     15 C11         0.6181   -0.1318    4.1401 C.2       1 <0>         0.0051
     16 C12         0.9824    1.7247    3.1021 C.cat     1 <0>         0.2880
     17 H1          3.5687   -0.1368   -7.7800 H         1 <0>         0.0879
     18 H2          3.1086   -1.6901   -7.0424 H         1 <0>         0.0792
     19 H3          2.2831   -1.1247   -8.5145 H         1 <0>         0.0892
     20 H4          0.4424    0.7630   -8.1863 H         1 <0>         0.1449
     21 H5         -1.0381    1.7820   -6.4737 H         1 <0>         0.1497
     22 H6          0.7300    0.5728   -2.3584 H         1 <0>         0.4018
     23 H7         -1.7753    1.2154   -1.2238 H         1 <0>         0.0811
     24 H8         -0.7675    2.6825   -1.2255 H         1 <0>         0.0809
     25 H9          0.0021   -0.0041    0.0020 H         1 <0>         0.0896
     26 H10         1.0099    1.4631    0.0003 H         1 <0>         0.0875
     27 H11        -0.7436    2.6691    1.2728 H         1 <0>         0.1271
     28 H12        -1.7514    1.2020    1.2746 H         1 <0>         0.1296
     29 H13        -0.9961   -0.8248    2.8642 H         1 <0>         0.2223
     30 H14         0.7030   -0.9301    4.8625 H         1 <0>         0.2232
     31 H15         1.4032    2.6818    2.8313 H         1 <0>         0.2591
     32 N3          1.3582    0.9855    4.1087 N.pl3     1 <0>        -0.4835
     33 H16         2.1043    1.2222    4.7732 H         1 <0>         0.4820
@<TRIPOS>BOND
     1    1    2 1
     2    1   17 1
     3    1   18 1
     4    1   19 1
     5    2    6 1
     6    2    3 2
     7    3    4 1
     8    3   20 1
     9    4    5 2
    10    4   21 1
    11    5    6 1
    12    5    7 1
    13    7    8 2
    14    7    9 am
    15    9   10 1
    16    9   22 1
    17   10   11 1
    18   10   23 1
    19   10   24 1
    20   11   12 1
    21   11   25 1
    22   11   26 1
    23   12   13 1
    24   12   27 1
    25   12   28 1
    26   13   16 1
    27   13   14 1
    28   14   15 2
    29   14   29 1
    30   15   30 1
    31   15   32 1
    32   16   31 1
    33   16   32 2
    34   32   33 1
@<TRIPOS>MOLECULE
ZINC13130244
   30    31     0     0     0
SMALL
USER_CHARGES

@<TRIPOS>ATOM
      1 C1         -0.0167    1.3828    0.0096 C.2       1 <0>        -0.0471
      2 C2          1.2121    1.9966    0.0012 C.2       1 <0>        -0.1701
      3 C3          2.3323    1.2293   -0.0136 C.2       1 <0>        -0.1557
      4 S1          1.7514   -0.3470   -0.0165 S.3       1 <0>         0.2433
      5 C4          0.0021   -0.0041    0.0020 C.2       1 <0>        -0.2628
      6 C5         -1.1225   -0.9425    0.0081 C.2       1 <0>         0.6134
      7 O1         -2.2650   -0.5231    0.0217 O.2       1 <0>        -0.5121
      8 N1         -0.8921   -2.2704   -0.0013 N.am      1 <0>        -0.7321
      9 C6         -2.0169   -3.2090    0.0048 C.3       1 <0>         0.1233
     10 C7         -1.4844   -4.6432   -0.0081 C.3       1 <0>        -0.1560
     11 C8         -2.6591   -5.6235   -0.0018 C.3       1 <0>         0.0954
     12 N2         -2.1492   -6.9968   -0.0142 N.pl3     1 <0>        -0.4089
     13 C9         -1.8718   -7.7502   -1.1228 C.2       1 <0>         0.0258
     14 C10        -1.4273   -8.9427   -0.6823 C.2       1 <0>         0.0045
     15 N3         -1.4331   -8.9180    0.6587 N.pl3     1 <0>        -0.4759
     16 C11        -1.8596   -7.7539    1.0659 C.cat     1 <0>         0.2891
     17 Cl1         3.9862    1.7566   -0.0266 Cl        1 <0>         0.0343
     18 H1         -0.9391    1.9445    0.0258 H         1 <0>         0.1609
     19 H2          1.2862    3.0741    0.0059 H         1 <0>         0.1532
     20 H3          0.0184   -2.6046   -0.0121 H         1 <0>         0.4018
     21 H4         -2.6163   -3.0520    0.9016 H         1 <0>         0.0822
     22 H5         -2.6339   -3.0425   -0.8782 H         1 <0>         0.0824
     23 H6         -0.8851   -4.8002   -0.9050 H         1 <0>         0.0904
     24 H7         -0.8675   -4.8097    0.8749 H         1 <0>         0.0883
     25 H8         -3.2585   -5.4666    0.8951 H         1 <0>         0.1278
     26 H9         -3.2761   -5.4570   -0.8848 H         1 <0>         0.1305
     27 H10        -1.9876   -7.4468   -2.1528 H         1 <0>         0.2236
     28 H11        -1.1199   -9.7732   -1.3005 H         1 <0>         0.2242
     29 H12        -1.9658   -7.4475    2.0961 H         1 <0>         0.2604
     30 H13        -1.1598   -9.6489    1.2349 H         1 <0>         0.4659
@<TRIPOS>BOND
     1    1    5 2
     2    1    2 1
     3    1   18 1
     4    2    3 2
     5    2   19 1
     6    3    4 1
     7    3   17 1
     8    4    5 1
     9    5    6 1
    10    6    7 2
    11    6    8 am
    12    8    9 1
    13    8   20 1
    14    9   10 1
    15    9   21 1
    16    9   22 1
    17   10   11 1
    18   10   23 1
    19   10   24 1
    20   11   12 1
    21   11   25 1
    22   11   26 1
    23   12   16 1
    24   12   13 1
    25   13   14 2
    26   13   27 1
    27   14   15 1
    28   14   28 1
    29   15   16 2
    30   15   30 1
    31   16   29 1
@<TRIPOS>MOLECULE
ZINC13130244
   29    30     0     0     0
SMALL
USER_CHARGES

@<TRIPOS>ATOM
      1 C1         -0.0167    1.3828    0.0096 C.2       1 <0>        -0.0563
      2 C2          1.2121    1.9966    0.0012 C.2       1 <0>        -0.1687
      3 C3          2.3323    1.2293   -0.0136 C.2       1 <0>        -0.1635
      4 S1          1.7514   -0.3470   -0.0165 S.3       1 <0>         0.2506
      5 C4          0.0021   -0.0041    0.0020 C.2       1 <0>        -0.2517
      6 C5         -1.1225   -0.9425    0.0081 C.2       1 <0>         0.6084
      7 O1         -2.2650   -0.5231    0.0217 O.2       1 <0>        -0.5177
      8 N1         -0.8921   -2.2704   -0.0013 N.am      1 <0>        -0.7262
      9 C6         -2.0169   -3.2090    0.0048 C.3       1 <0>         0.1231
     10 C7         -1.4844   -4.6432   -0.0081 C.3       1 <0>        -0.1503
     11 C8         -2.6591   -5.6235   -0.0018 C.3       1 <0>         0.1087
     12 N2         -2.1492   -6.9968   -0.0142 N.pl3     1 <0>        -0.4612
     13 C9         -1.8723   -7.7504   -1.1228 C.2       1 <0>        -0.0572
     14 C10        -1.4275   -8.9428   -0.6823 C.2       1 <0>        -0.0283
     15 N3         -1.4328   -8.9179    0.6587 N.2       1 <0>        -0.4946
     16 C11        -1.8591   -7.7537    1.0659 C.2       1 <0>         0.1817
     17 Cl1         3.9862    1.7566   -0.0266 Cl        1 <0>         0.0278
     18 H1         -0.9391    1.9445    0.0258 H         1 <0>         0.1596
     19 H2          1.2862    3.0741    0.0059 H         1 <0>         0.1501
     20 H3          0.0184   -2.6046   -0.0121 H         1 <0>         0.4014
     21 H4         -2.6163   -3.0520    0.9016 H         1 <0>         0.0783
     22 H5         -2.6339   -3.0425   -0.8782 H         1 <0>         0.0777
     23 H6         -0.8851   -4.8002   -0.9050 H         1 <0>         0.0807
     24 H7         -0.8675   -4.8097    0.8749 H         1 <0>         0.0815
     25 H8         -3.2585   -5.4666    0.8951 H         1 <0>         0.1003
     26 H9         -3.2761   -5.4570   -0.8848 H         1 <0>         0.0979
     27 H10        -1.9884   -7.4472   -2.1528 H         1 <0>         0.1740
     28 H11        -1.1204   -9.7734   -1.3005 H         1 <0>         0.1698
     29 H12        -1.9649   -7.4472    2.0961 H         1 <0>         0.2041
@<TRIPOS>BOND
     1    1    5 2
     2    1    2 1
     3    1   18 1
     4    2    3 2
     5    2   19 1
     6    3    4 1
     7    3   17 1
     8    4    5 1
     9    5    6 1
    10    6    7 2
    11    6    8 am
    12    8    9 1
    13    8   20 1
    14    9   10 1
    15    9   21 1
    16    9   22 1
    17   10   11 1
    18   10   23 1
    19   10   24 1
    20   11   12 1
    21   11   25 1
    22   11   26 1
    23   12   16 1
    24   12   13 1
    25   13   14 2
    26   13   27 1
    27   14   15 1
    28   14   28 1
    29   15   16 2
    30   16   29 1
