@<TRIPOS>MOLECULE
ZINC03872335
   31    31     0     0     0
SMALL
USER_CHARGES

@<TRIPOS>ATOM
      1 C1         -0.0167    1.3781    0.0096 C.ar      1 <0>        -0.1272
      2 C2          1.1709    2.0855    0.0021 C.ar      1 <0>        -0.1174
      3 C3          2.3773    1.4107   -0.0130 C.ar      1 <0>        -0.1135
      4 C4          2.3960    0.0285   -0.0201 C.ar      1 <0>        -0.0768
      5 C5          1.2084   -0.6789   -0.0117 C.ar      1 <0>        -0.1195
      6 C6          0.0021   -0.0041    0.0020 C.ar      1 <0>        -0.1201
      7 C7          3.7112   -0.7071   -0.0376 C.3       1 <0>        -0.0562
      8 C8          4.1714   -0.9633    1.3989 C.3       1 <0>        -0.0855
      9 H1          4.2087   -0.0191    1.9423 H         1 <0>         0.1072
     10 C9          3.1871   -1.9101    2.0886 C.3       1 <0>        -0.0744
     11 S1          3.6492   -2.0971    3.8327 S.3       1 <0>        -0.2155
     12 C10         5.5425   -1.5884    1.3832 C.2       1 <0>         0.5003
     13 O1          6.0971   -1.8074    0.3271 O.2       1 <0>        -0.5619
     14 N1          6.1525   -1.9040    2.5428 N.am      1 <0>        -0.6810
     15 C11         7.4855   -2.5117    2.5276 C.3       1 <0>         0.0474
     16 C12         7.9387   -2.7640    3.9425 C.2       1 <0>         0.4891
     17 O2          7.2154   -2.4640    4.8770 O.co2     1 <0>        -0.6823
     18 O3          9.0288   -3.2681    4.1527 O.co2     1 <0>        -0.6937
     19 H2         -0.9591    1.9053    0.0259 H         1 <0>         0.1184
     20 H3          1.1563    3.1654    0.0076 H         1 <0>         0.1207
     21 H4          3.3051    1.9634   -0.0196 H         1 <0>         0.1243
     22 H5          1.2231   -1.7588   -0.0176 H         1 <0>         0.1209
     23 H6         -0.9258   -0.5567    0.0082 H         1 <0>         0.1191
     24 H7          3.5884   -1.6586   -0.5549 H         1 <0>         0.0825
     25 H8          4.4573   -0.1052   -0.5563 H         1 <0>         0.0906
     26 H9          2.1799   -1.4989    2.0217 H         1 <0>         0.0963
     27 H10         3.2154   -2.8834    1.5988 H         1 <0>         0.0871
     28 H11         2.7241   -2.9397    4.3259 H         1 <0>         0.0791
     29 H12         5.7090   -1.7288    3.3875 H         1 <0>         0.4138
     30 H13         7.4482   -3.4558    1.9842 H         1 <0>         0.0641
     31 H14         8.1867   -1.8372    2.0363 H         1 <0>         0.0640
@<TRIPOS>BOND
     1    1    6 ar
     2    1    2 ar
     3    1   19 1
     4    2    3 ar
     5    2   20 1
     6    3    4 ar
     7    3   21 1
     8    4    5 ar
     9    4    7 1
    10    5    6 ar
    11    5   22 1
    12    6   23 1
    13    7    8 1
    14    7   24 1
    15    7   25 1
    16    8    9 1
    17    8   10 1
    18    8   12 1
    19   10   11 1
    20   10   26 1
    21   10   27 1
    22   11   28 1
    23   12   13 2
    24   12   14 am
    25   14   15 1
    26   14   29 1
    27   15   16 1
    28   15   30 1
    29   15   31 1
    30   16   17 2
    31   16   18 1
@<TRIPOS>MOLECULE
ZINC03872336
   31    31     0     0     0
SMALL
USER_CHARGES

@<TRIPOS>ATOM
      1 C1          2.6440   -5.2211    3.5972 C.ar      1 <0>        -0.1212
      2 C2          1.8857   -4.0804    3.7836 C.ar      1 <0>        -0.1206
      3 C3          2.0088   -3.0179    2.9080 C.ar      1 <0>        -0.1134
      4 C4          2.8905   -3.0957    1.8463 C.ar      1 <0>        -0.0882
      5 C5          3.6495   -4.2360    1.6604 C.ar      1 <0>        -0.1056
      6 C6          3.5254   -5.2991    2.5352 C.ar      1 <0>        -0.1162
      7 C7          3.0240   -1.9378    0.8911 C.3       1 <0>        -0.0676
      8 C8          4.0524   -0.9440    1.4350 C.3       1 <0>        -0.0844
      9 H1          3.7721   -0.6478    2.4458 H         1 <0>         0.0995
     10 C9          4.0930    0.2921    0.5342 C.3       1 <0>        -0.0511
     11 S1          2.5044    1.1626    0.6300 S.3       1 <0>        -0.2429
     12 C10         5.4126   -1.5921    1.4603 C.2       1 <0>         0.5147
     13 O1          5.9284   -1.9600    0.4261 O.2       1 <0>        -0.5596
     14 N1          6.0560   -1.7629    2.6322 N.am      1 <0>        -0.6892
     15 C11         7.3784   -2.3929    2.6568 C.3       1 <0>         0.0513
     16 C12         7.8746   -2.4640    4.0780 C.2       1 <0>         0.4902
     17 O2          7.1873   -2.0288    4.9861 O.co2     1 <0>        -0.6900
     18 O3          8.9633   -2.9568    4.3197 O.co2     1 <0>        -0.6896
     19 H2          2.5511   -6.0495    4.2839 H         1 <0>         0.1182
     20 H3          1.1968   -4.0196    4.6131 H         1 <0>         0.1193
     21 H4          1.4157   -2.1270    3.0532 H         1 <0>         0.1221
     22 H5          4.3382   -4.2970    0.8306 H         1 <0>         0.1208
     23 H6          4.1182   -6.1902    2.3897 H         1 <0>         0.1190
     24 H7          3.3524   -2.3048   -0.0813 H         1 <0>         0.0829
     25 H8          2.0595   -1.4411    0.7852 H         1 <0>         0.0933
     26 H9          4.8918    0.9562    0.8645 H         1 <0>         0.0885
     27 H10         4.2778   -0.0145   -0.4953 H         1 <0>         0.0961
     28 H11         2.6604    2.2156   -0.1921 H         1 <0>         0.0859
     29 H12         5.6435   -1.4686    3.4593 H         1 <0>         0.4084
     30 H13         7.3088   -3.3999    2.2454 H         1 <0>         0.0650
     31 H14         8.0730   -1.8032    2.0585 H         1 <0>         0.0645
@<TRIPOS>BOND
     1    1    6 ar
     2    1    2 ar
     3    1   19 1
     4    2    3 ar
     5    2   20 1
     6    3    4 ar
     7    3   21 1
     8    4    5 ar
     9    4    7 1
    10    5    6 ar
    11    5   22 1
    12    6   23 1
    13    7    8 1
    14    7   24 1
    15    7   25 1
    16    8    9 1
    17    8   10 1
    18    8   12 1
    19   10   11 1
    20   10   26 1
    21   10   27 1
    22   11   28 1
    23   12   13 2
    24   12   14 am
    25   14   15 1
    26   14   29 1
    27   15   16 1
    28   15   30 1
    29   15   31 1
    30   16   17 2
    31   16   18 1
@<TRIPOS>MOLECULE
ZINC17994427
   27    29     0     0     0
SMALL
USER_CHARGES
2-(4-chlorophenyl)quinazolin-4-ol
@<TRIPOS>ATOM
      1 C1          1.9483    1.8839   -3.6068 C.ar      1 <0>        -0.1325
      2 C2          3.2093    2.4723   -3.5576 C.ar      1 <0>        -0.0512
      3 C3          3.8112    2.7455   -2.3657 C.ar      1 <0>        -0.1020
      4 C4          3.1501    2.4340   -1.1687 C.ar      1 <0>         0.1707
      5 C5          1.8684    1.8308   -1.2212 C.ar      1 <0>        -0.1890
      6 C6          1.2790    1.5643   -2.4624 C.ar      1 <0>        -0.0150
      7 C7          1.2215    1.5206   -0.0014 C.2       1 <0>         0.5001
      8 N1          1.8432    1.8078    1.1296 N.am      1 <0>        -0.5997
      9 C8          3.0525    2.3663    1.1354 C.2       1 <0>         0.4319
     10 N2          3.7003    2.6764    0.0279 N.2       1 <0>        -0.5019
     11 C9          3.6974    2.6514    2.4395 C.ar      1 <0>        -0.0717
     12 C10         4.9651    3.2303    2.4811 C.ar      1 <0>        -0.0386
     13 C11         5.5587    3.4986    3.6973 C.ar      1 <0>        -0.1130
     14 C12         4.9021    3.1842    4.8752 C.ar      1 <0>        -0.0088
     15 C13         3.6454    2.6039    4.8392 C.ar      1 <0>        -0.1087
     16 C14         3.0409    2.3365    3.6283 C.ar      1 <0>        -0.0810
     17 Cl1         5.6573    3.5182    6.4022 Cl        1 <0>        -0.0528
     18 O1         -0.0046    0.9490    0.0072 O.2       1 <0>        -0.5824
     19 H1          1.5341    1.6961   -4.4974 H         1 <0>         0.1246
     20 H2          3.6735    2.6951   -4.4148 H         1 <0>         0.1258
     21 H3          4.7174    3.1681   -2.3485 H         1 <0>         0.1311
     22 H4          0.3737    1.1426   -2.5138 H         1 <0>         0.1291
     23 H5          5.4800    3.4718    1.5629 H         1 <0>         0.1555
     24 H6          6.5388    3.9511    3.7307 H         1 <0>         0.1466
     25 H7          3.1378    2.3599    5.7607 H         1 <0>         0.1463
     26 H8          2.0608    1.8835    3.6013 H         1 <0>         0.1352
     27 H9          1.3401    1.5755    2.0799 H         1 <0>         0.4512
@<TRIPOS>BOND
     1    1    6 ar
     2    1   19 1
     3    1    2 ar
     4    2   20 1
     5    2    3 ar
     6    3   21 1
     7    3    4 ar
     8    4    5 ar
     9    4   10 1
    10    5    7 1
    11    5    6 ar
    12    6   22 1
    13    7   18 2
    14    7    8 am
    15    8    9 1
    16    8   27 1
    17    9   10 2
    18    9   11 1
    19   11   16 ar
    20   11   12 ar
    21   12   13 ar
    22   12   23 1
    23   13   14 ar
    24   13   24 1
    25   14   15 ar
    26   14   17 1
    27   15   16 ar
    28   15   25 1
    29   16   26 1
@<TRIPOS>MOLECULE
ZINC00549977
   34    35     0     0     0
SMALL
USER_CHARGES

@<TRIPOS>ATOM
      1 C1          2.1635    0.3659    0.6524 C.3       1 <0>        -0.1617
      2 C2          0.9970   -0.5181    0.2934 C.2       1 <0>         0.1565
      3 N1          0.0655   -0.7265    1.1464 N.2       1 <0>        -0.2629
      4 N2          0.0635   -0.0345    2.3646 N.am      1 <0>        -0.4860
      5 C3         -0.1657    1.2938    2.3708 C.2       1 <0>         0.5649
      6 O1         -0.5153    1.8608    1.3531 O.2       1 <0>        -0.5274
      7 C4          0.0103    2.0527    3.6212 C.ar      1 <0>        -0.2038
      8 C5         -0.3891    3.3830    3.7305 C.ar      1 <0>        -0.0186
      9 C6         -0.2169    4.0489    4.9262 C.ar      1 <0>        -0.1724
     10 C7          0.3483    3.4046    6.0156 C.ar      1 <0>        -0.0495
     11 C8          0.7533    2.0871    5.9197 C.ar      1 <0>        -0.1850
     12 C9          0.5941    1.4063    4.7246 C.ar      1 <0>         0.2354
     13 N3          1.0115    0.0888    4.5714 N.pl3     1 <0>        -0.7475
     14 C10         0.3044   -0.7676    3.6076 C.3       1 <0>         0.4148
     15 C11        -1.0340   -1.2102    4.2021 C.3       1 <0>        -0.1644
     16 C12         1.1558   -2.0035    3.3098 C.3       1 <0>        -0.1650
     17 C13         0.9270   -1.1567   -1.0698 C.3       1 <0>        -0.1038
     18 H1          2.9155   -0.2212    1.1795 H         1 <0>         0.0833
     19 H2          2.5982    0.7809   -0.2569 H         1 <0>         0.0820
     20 H3          1.8204    1.1773    1.2942 H         1 <0>         0.0698
     21 H4         -0.8302    3.8895    2.8848 H         1 <0>         0.1352
     22 H5         -0.5244    5.0805    5.0141 H         1 <0>         0.1297
     23 H6          0.4727    3.9367    6.9472 H         1 <0>         0.1300
     24 H7          1.1925    1.5909    6.7726 H         1 <0>         0.1306
     25 H8          1.7524   -0.2585    5.0923 H         1 <0>         0.4124
     26 H9         -1.5511   -1.8560    3.4923 H         1 <0>         0.0783
     27 H10        -0.8572   -1.7567    5.1285 H         1 <0>         0.0741
     28 H11        -1.6474   -0.3333    4.4090 H         1 <0>         0.0615
     29 H12         2.1078   -1.6937    2.8789 H         1 <0>         0.0632
     30 H13         1.3367   -2.5515    4.2346 H         1 <0>         0.0809
     31 H14         0.6293   -2.6459    2.6039 H         1 <0>         0.0885
     32 H15         1.8011   -0.8660   -1.6525 H         1 <0>         0.0820
     33 H16         0.9062   -2.2412   -0.9624 H         1 <0>         0.0866
     34 H17         0.0231   -0.8248   -1.5806 H         1 <0>         0.0885
@<TRIPOS>BOND
     1    1    2 1
     2    1   18 1
     3    1   19 1
     4    1   20 1
     5    2    3 2
     6    2   17 1
     7    3    4 1
     8    4   14 1
     9    4    5 am
    10    5    6 2
    11    5    7 1
    12    7   12 ar
    13    7    8 ar
    14    8    9 ar
    15    8   21 1
    16    9   10 ar
    17    9   22 1
    18   10   11 ar
    19   10   23 1
    20   11   12 ar
    21   11   24 1
    22   12   13 1
    23   13   14 1
    24   13   25 1
    25   14   15 1
    26   14   16 1
    27   15   26 1
    28   15   27 1
    29   15   28 1
    30   16   29 1
    31   16   30 1
    32   16   31 1
    33   17   32 1
    34   17   33 1
    35   17   34 1
@<TRIPOS>MOLECULE
ZINC00004739
   30    32     0     0     0
SMALL
USER_CHARGES

@<TRIPOS>ATOM
      1 C1         -0.0296    1.3127   -0.5337 C.ar      1 <0>        -0.0913
      2 C2          0.5265    1.1126    0.7165 C.ar      1 <0>        -0.1102
      3 C3          1.7356    0.4563    0.8390 C.ar      1 <0>        -0.0840
      4 C4          2.3928   -0.0027   -0.2949 C.ar      1 <0>         0.0651
      5 C5          1.8317    0.1999   -1.5488 C.ar      1 <0>        -0.0798
      6 C6          0.6224    0.8569   -1.6647 C.ar      1 <0>        -0.1104
      7 N1          3.6192   -0.6682   -0.1740 N.am      1 <0>        -0.4831
      8 C7          4.7742    0.0286   -0.2848 C.2       1 <0>         0.5541
      9 O1          4.7715    1.2288   -0.4881 O.2       1 <0>        -0.4801
     10 C8          6.0321   -0.7201   -0.1497 C.ar      1 <0>        -0.1741
     11 C9          7.2747   -0.0967   -0.2470 C.ar      1 <0>        -0.0444
     12 C10         8.4225   -0.8463   -0.1119 C.ar      1 <0>        -0.1163
     13 C11         8.3499   -2.2139    0.1192 C.ar      1 <0>        -0.0746
     14 C12         7.1325   -2.8490    0.2182 C.ar      1 <0>        -0.0872
     15 C13         5.9545   -2.1108    0.0858 C.ar      1 <0>         0.1314
     16 N2          4.7342   -2.6959    0.1773 N.2       1 <0>        -0.4530
     17 C14         3.6391   -2.0084    0.0593 C.2       1 <0>         0.3183
     18 C15         2.3232   -2.7329    0.1804 C.3       1 <0>         0.5316
     19 F1          2.5587   -4.0973    0.3803 F         1 <0>        -0.1420
     20 F2          1.6064   -2.2193    1.2666 F         1 <0>        -0.1568
     21 F3          1.5829   -2.5545   -0.9932 F         1 <0>        -0.1564
     22 H1         -0.9774    1.8222   -0.6266 H         1 <0>         0.1344
     23 H2          0.0150    1.4701    1.5979 H         1 <0>         0.1367
     24 H3          2.1696    0.3006    1.8156 H         1 <0>         0.1298
     25 H4          2.3406   -0.1556   -2.4326 H         1 <0>         0.1289
     26 H5          0.1854    1.0145   -2.6397 H         1 <0>         0.1365
     27 H6          7.3373    0.9663   -0.4273 H         1 <0>         0.1447
     28 H7          9.3872   -0.3665   -0.1868 H         1 <0>         0.1414
     29 H8          9.2599   -2.7864    0.2221 H         1 <0>         0.1429
     30 H9          7.0887   -3.9130    0.3980 H         1 <0>         0.1480
@<TRIPOS>BOND
     1    1    6 ar
     2    1    2 ar
     3    1   22 1
     4    2    3 ar
     5    2   23 1
     6    3    4 ar
     7    3   24 1
     8    4    5 ar
     9    4    7 1
    10    5    6 ar
    11    5   25 1
    12    6   26 1
    13    7   17 1
    14    7    8 am
    15    8    9 2
    16    8   10 1
    17   10   15 ar
    18   10   11 ar
    19   11   12 ar
    20   11   27 1
    21   12   13 ar
    22   12   28 1
    23   13   14 ar
    24   13   29 1
    25   14   15 ar
    26   14   30 1
    27   15   16 1
    28   16   17 2
    29   17   18 1
    30   18   19 1
    31   18   20 1
    32   18   21 1
@<TRIPOS>MOLECULE
ZINC06020153
   38    38     0     0     0
SMALL
USER_CHARGES
(2S)-2-[[(2R)-2-benzyl-4-(hydroxyamino)-4-oxo-butanoyl]amino]propanoic acid
@<TRIPOS>ATOM
      1 C1         -5.6720    7.8357   -1.6245 C.3       1 <0>        -0.1338
      2 C2         -6.0443    6.4031   -2.0117 C.3       1 <0>         0.1040
      3 H1         -6.6185    5.9140   -1.2110 H         1 <0>         0.0838
      4 C3         -6.8536    6.4205   -3.2828 C.2       1 <0>         0.4649
      5 O1         -6.4519    5.8391   -4.2628 O.co2     1 <0>        -0.6384
      6 O2         -8.0209    7.0818   -3.3262 O.co2     1 <0>        -0.7584
      7 N1         -4.8234    5.6209   -2.2209 N.am      1 <0>        -0.7175
      8 C4         -4.2073    5.0399   -1.1723 C.2       1 <0>         0.5189
      9 O3         -4.6637    5.1647   -0.0556 O.2       1 <0>        -0.5385
     10 C5         -2.9515    4.2353   -1.3874 C.3       1 <0>        -0.0834
     11 H2         -3.1797    3.4024   -2.0688 H         1 <0>         0.1062
     12 C6         -2.4592    3.6897   -0.0454 C.3       1 <0>        -0.0736
     13 C7         -1.2751    2.7861   -0.2745 C.ar      1 <0>        -0.0718
     14 C8         -1.4698    1.4379   -0.5101 C.ar      1 <0>        -0.1160
     15 C9         -0.3833    0.6082   -0.7153 C.ar      1 <0>        -0.1173
     16 C10         0.8972    1.1284   -0.6954 C.ar      1 <0>        -0.1296
     17 C11         1.0916    2.4775   -0.4650 C.ar      1 <0>        -0.1195
     18 C12         0.0055    3.3063   -0.2546 C.ar      1 <0>        -0.1204
     19 C13        -1.8721    5.1290   -2.0015 C.3       1 <0>        -0.1256
     20 C14        -1.6481    6.3272   -1.1155 C.2       1 <0>         0.5145
     21 O4         -2.3492    6.5004   -0.1411 O.2       1 <0>        -0.4901
     22 N2         -0.6687    7.2064   -1.4059 N.am      1 <0>        -0.6046
     23 O5         -0.4583    8.3323   -0.5734 O.3       1 <0>        -0.3500
     24 H3         -5.0813    7.8230   -0.6967 H         1 <0>         0.0511
     25 H4         -6.5887    8.4231   -1.4675 H         1 <0>         0.0667
     26 H5         -5.0784    8.2910   -2.4309 H         1 <0>         0.0425
     27 H6         -4.4095    5.5077   -3.2338 H         1 <0>         0.4158
     28 H7         -2.1618    4.5265    0.6037 H         1 <0>         0.0970
     29 H8         -3.2670    3.1203    0.4375 H         1 <0>         0.0838
     30 H9         -2.4705    1.0322   -0.5301 H         1 <0>         0.1234
     31 H10        -0.5353   -0.4458   -0.8956 H         1 <0>         0.1200
     32 H11         1.7457    0.4810   -0.8602 H         1 <0>         0.1179
     33 H12         2.0921    2.8841   -0.4498 H         1 <0>         0.1183
     34 H13         0.1573    4.3604   -0.0749 H         1 <0>         0.1169
     35 H14        -0.9347    4.5610   -2.0940 H         1 <0>         0.1064
     36 H15        -2.1970    5.4649   -2.9973 H         1 <0>         0.1059
     37 H16        -0.0328    7.0493   -2.2896 H         1 <0>         0.4198
     38 H17         0.3410    9.0499   -0.8104 H         1 <0>         0.4107
@<TRIPOS>BOND
     1    1    2 1
     2    1   24 1
     3    1   25 1
     4    1   26 1
     5    2    3 1
     6    2    4 1
     7    2    7 1
     8    4    5 2
     9    4    6 1
    10    7    8 am
    11    7   27 1
    12    8    9 2
    13    8   10 1
    14   10   11 1
    15   10   12 1
    16   10   19 1
    17   12   13 1
    18   12   28 1
    19   12   29 1
    20   13   18 ar
    21   13   14 ar
    22   14   15 ar
    23   14   30 1
    24   15   16 ar
    25   15   31 1
    26   16   17 ar
    27   16   32 1
    28   17   18 ar
    29   17   33 1
    30   18   34 1
    31   19   20 1
    32   19   35 1
    33   19   36 1
    34   20   21 2
    35   20   22 am
    36   22   23 1
    37   22   37 1
    38   23   38 1
