@<TRIPOS>MOLECULE
ZINC13983227
   36    37     0     0     0
SMALL
USER_CHARGES
2-[3-[(2-amino-6-methyl-3-pyridyl)methyl]-4-methyl-thiazol-3-ium-5-yl]ethanol
@<TRIPOS>ATOM
      1 C1         -3.4146    1.3492   -6.0923 C.3       1 <0>        -0.1201
      2 C2         -3.1488    1.3684   -4.6091 C.ar      1 <0>         0.2188
      3 C3         -3.6021    2.4284   -3.8493 C.ar      1 <0>        -0.2315
      4 C4         -3.3598    2.4379   -2.4822 C.ar      1 <0>        -0.0070
      5 C5         -2.6581    1.3819   -1.9288 C.ar      1 <0>        -0.2855
      6 C6         -2.2306    0.3471   -2.7542 C.ar      1 <0>         0.4449
      7 N1         -2.4863    0.3719   -4.0533 N.ar      1 <0>        -0.5408
      8 N2         -1.5291   -0.7227   -2.2105 N.pl3     1 <0>        -0.8739
      9 C7         -2.3663    1.3500   -0.4506 C.3       1 <0>         0.1087
     10 N3         -1.0304    1.8988   -0.2046 N.pl3     1 <0>        -0.3458
     11 C8         -0.0079    1.0808   -0.1081 C.2       1 <0>         0.0251
     12 S1          1.3117    2.1753    0.1680 S.3       1 <0>         0.3630
     13 C9          0.3646    3.6905    0.1402 C.2       1 <0>        -0.1248
     14 C10        -0.8822    3.2011   -0.0804 C.2       1 <0>         0.0459
     15 C11        -2.0669    4.1264   -0.1871 C.3       1 <0>        -0.1319
     16 C12         0.8227    5.1156    0.3134 C.3       1 <0>        -0.0503
     17 C13         0.7668    5.4928    1.7952 C.3       1 <0>         0.0906
     18 O1          1.2013    6.8442    1.9595 O.3       1 <0>        -0.5986
     19 H1         -3.9742    2.2526   -6.3762 H         1 <0>         0.0848
     20 H2         -4.0050    0.4568   -6.3475 H         1 <0>         0.0899
     21 H3         -2.4586    1.3241   -6.6358 H         1 <0>         0.0881
     22 H4         -4.1433    3.2399   -4.3130 H         1 <0>         0.1450
     23 H5         -3.7078    3.2533   -1.8654 H         1 <0>         0.1441
     24 H6         -1.1887   -1.5436   -2.8588 H         1 <0>         0.4417
     25 H7         -1.3143   -0.7484   -1.1320 H         1 <0>         0.4078
     26 H8         -3.1147    1.9534    0.0840 H         1 <0>         0.1374
     27 H9         -2.4079    0.3113   -0.0909 H         1 <0>         0.1281
     28 H10         0.0088    0.0037   -0.1854 H         1 <0>         0.2581
     29 H11        -1.7330    5.1662   -0.0554 H         1 <0>         0.1129
     30 H12        -2.8000    3.8750    0.5935 H         1 <0>         0.1026
     31 H13        -2.5324    4.0134   -1.1773 H         1 <0>         0.1067
     32 H14         1.8555    5.2157   -0.0517 H         1 <0>         0.1139
     33 H15         0.1645    5.7846   -0.2604 H         1 <0>         0.1206
     34 H16        -0.2660    5.3928    2.1603 H         1 <0>         0.0511
     35 H17         1.4249    4.8237    2.3690 H         1 <0>         0.0492
     36 H18         1.2292    7.2949    2.9626 H         1 <0>         0.4309
@<TRIPOS>BOND
     1    1    2 1
     2    1   19 1
     3    1   20 1
     4    1   21 1
     5    2    7 ar
     6    2    3 ar
     7    3    4 ar
     8    3   22 1
     9    4    5 ar
    10    4   23 1
    11    5    6 ar
    12    5    9 1
    13    6    7 ar
    14    6    8 1
    15    8   24 1
    16    8   25 1
    17    9   10 1
    18    9   26 1
    19    9   27 1
    20   10   14 1
    21   10   11 2
    22   11   12 1
    23   11   28 1
    24   12   13 1
    25   13   14 2
    26   13   16 1
    27   14   15 1
    28   15   29 1
    29   15   30 1
    30   15   31 1
    31   16   17 1
    32   16   32 1
    33   16   33 1
    34   17   18 1
    35   17   34 1
    36   17   35 1
    37   18   36 1
@<TRIPOS>MOLECULE
ZINC00002152
   35    36     0     0     0
SMALL
USER_CHARGES
3-[(4-amino-2-methyl-pyrimidin-5-yl)methyl]-5-(2-hydroxyethyl)-4-methyl-thiazol-2-one
@<TRIPOS>ATOM
      1 C1          2.1124   -1.0219    1.8941 C.3       1 <0>        -0.1070
      2 C2          2.9029    0.2105    2.2509 C.2       1 <0>         0.0965
      3 C3          3.4588    0.3383    3.4587 C.2       1 <0>        -0.1792
      4 S1          4.2452    1.9353    3.3314 S.3       1 <0>        -0.0228
      5 C4          3.7867    2.3071    1.6999 C.2       1 <0>         0.4983
      6 O1          4.0465    3.2975    1.0398 O.2       1 <0>        -0.4490
      7 N1          3.0662    1.2179    1.3483 N.am      1 <0>        -0.5383
      8 C5          2.4739    1.1200    0.0120 C.3       1 <0>         0.1589
      9 C6          1.1138    1.7691    0.0165 C.ar      1 <0>        -0.2919
     10 C7          0.5538    2.2310    1.1915 C.ar      1 <0>         0.1956
     11 N2         -0.6468    2.7917    1.1590 N.ar      1 <0>        -0.5521
     12 C8         -1.3046    2.9224    0.0245 C.ar      1 <0>         0.3650
     13 N3         -0.8087    2.4962   -1.1194 N.ar      1 <0>        -0.5725
     14 C9          0.3881    1.9183   -1.1669 C.ar      1 <0>         0.4585
     15 N4          0.9063    1.4710   -2.3714 N.pl3     1 <0>        -0.8332
     16 C10        -2.6643    3.5720    0.0367 C.3       1 <0>        -0.0877
     17 C11         3.4292   -0.6163    4.6244 C.3       1 <0>        -0.0244
     18 C12         4.6863   -1.4881    4.6017 C.3       1 <0>         0.0794
     19 O2          4.6582   -2.3934    5.7070 O.3       1 <0>        -0.5736
     20 H1          2.7787   -1.7683    1.4616 H         1 <0>         0.0878
     21 H2          1.6467   -1.4275    2.7922 H         1 <0>         0.0944
     22 H3          1.3402   -0.7613    1.1703 H         1 <0>         0.0759
     23 H4          2.3747    0.0706   -0.2654 H         1 <0>         0.1048
     24 H5          3.1161    1.6270   -0.7081 H         1 <0>         0.1026
     25 H6          1.0857    2.1323    2.1263 H         1 <0>         0.1546
     26 H7          1.7445    0.9831   -2.3875 H         1 <0>         0.4107
     27 H8          0.4309    1.6457   -3.1987 H         1 <0>         0.4120
     28 H9         -3.4292    2.8111    0.1920 H         1 <0>         0.0890
     29 H10        -2.7103    4.3034    0.8436 H         1 <0>         0.0890
     30 H11        -2.8369    4.0715   -0.9167 H         1 <0>         0.0866
     31 H12         3.3957   -0.0513    5.5559 H         1 <0>         0.0917
     32 H13         2.5458   -1.2507    4.5522 H         1 <0>         0.0961
     33 H14         4.7198   -2.0531    3.6701 H         1 <0>         0.0488
     34 H15         5.5698   -0.8538    4.6739 H         1 <0>         0.0505
     35 H16         5.4265   -2.9786    5.7558 H         1 <0>         0.3852
@<TRIPOS>BOND
     1    1    2 1
     2    1   20 1
     3    1   21 1
     4    1   22 1
     5    2    7 1
     6    2    3 2
     7    3    4 1
     8    3   17 1
     9    4    5 1
    10    5    6 2
    11    5    7 am
    12    7    8 1
    13    8    9 1
    14    8   23 1
    15    8   24 1
    16    9   14 ar
    17    9   10 ar
    18   10   11 ar
    19   10   25 1
    20   11   12 ar
    21   12   13 ar
    22   12   16 1
    23   13   14 ar
    24   14   15 1
    25   15   26 1
    26   15   27 1
    27   16   28 1
    28   16   29 1
    29   16   30 1
    30   17   18 1
    31   17   31 1
    32   17   32 1
    33   18   19 1
    34   18   33 1
    35   18   34 1
    36   19   35 1
@<TRIPOS>MOLECULE
ZINC18217881
   37    40     0     0     0
SMALL
USER_CHARGES
5-benzyl-3-(4-chlorophenyl)-1H-pyrazolo[1,5-a]pyrimidin-7-one
@<TRIPOS>ATOM
      1 C1         -3.0649   -3.9253    4.0225 C.ar      1 <0>        -0.1297
      2 C2         -3.6580   -2.9214    3.2800 C.ar      1 <0>        -0.1241
      3 C3         -3.2511   -2.6914    1.9791 C.ar      1 <0>        -0.1005
      4 C4         -2.2514   -3.4657    1.4205 C.ar      1 <0>        -0.0642
      5 C5         -1.6623   -4.4734    2.1610 C.ar      1 <0>        -0.1124
      6 C6         -2.0656   -4.6999    3.4637 C.ar      1 <0>        -0.1246
      7 C7         -1.8081   -3.2153    0.0021 C.3       1 <0>        -0.0289
      8 C8         -0.6853   -2.2102   -0.0033 C.2       1 <0>         0.2209
      9 C9          0.6116   -2.6384   -0.0185 C.2       1 <0>        -0.3967
     10 C10         1.6452   -1.6845   -0.0232 C.2       1 <0>         0.5405
     11 O1          2.8139   -2.0344   -0.0363 O.3       1 <0>        -0.5805
     12 N1          1.3198   -0.3751   -0.0126 N.pl3     1 <0>        -0.3538
     13 C11         0.0021   -0.0041    0.0020 C.2       1 <0>         0.3545
     14 N2         -0.9603   -0.9095    0.0064 N.2       1 <0>        -0.5814
     15 C12        -0.0178    1.4640    0.0101 C.2       1 <0>        -0.2940
     16 C13         1.2776    1.8803   -0.0000 C.2       1 <0>         0.0895
     17 N3          2.0951    0.7890   -0.0137 N.2       1 <0>        -0.3764
     18 C14        -1.2216    2.3291    0.0207 C.ar      1 <0>         0.0615
     19 C15        -2.0848    2.3133    1.1155 C.ar      1 <0>        -0.0941
     20 C16        -3.2007    3.1248    1.1228 C.ar      1 <0>        -0.1104
     21 C17        -3.4702    3.9452    0.0406 C.ar      1 <0>        -0.0532
     22 C18        -2.6194    3.9605   -1.0514 C.ar      1 <0>        -0.1114
     23 C19        -1.4976    3.1572   -1.0665 C.ar      1 <0>        -0.1085
     24 Cl1        -4.8795    4.9588    0.0534 Cl        1 <0>        -0.0932
     25 H1         -3.3826   -4.1048    5.0390 H         1 <0>         0.1154
     26 H2         -4.4390   -2.3165    3.7164 H         1 <0>         0.1177
     27 H3         -3.7145   -1.9071    1.3990 H         1 <0>         0.1253
     28 H4         -0.8843   -5.0812    1.7231 H         1 <0>         0.1211
     29 H5         -1.6025   -5.4845    4.0437 H         1 <0>         0.1172
     30 H6         -1.4587   -4.1578   -0.4446 H         1 <0>         0.0852
     31 H7         -2.6536   -2.8237   -0.5826 H         1 <0>         0.0883
     32 H8          0.8401   -3.6939   -0.0271 H         1 <0>         0.1307
     33 H9          1.6055    2.9093    0.0024 H         1 <0>         0.1685
     34 H10        -1.8779    1.6704    1.9583 H         1 <0>         0.1255
     35 H11        -3.8675    3.1169    1.9724 H         1 <0>         0.1245
     36 H12        -2.8343    4.6020   -1.8932 H         1 <0>         0.1248
     37 H13        -0.8347    3.1696   -1.9190 H         1 <0>         0.1268
@<TRIPOS>BOND
     1    1    6 ar
     2    1    2 ar
     3    1   25 1
     4    2    3 ar
     5    2   26 1
     6    3    4 ar
     7    3   27 1
     8    4    5 ar
     9    4    7 1
    10    5    6 ar
    11    5   28 1
    12    6   29 1
    13    7    8 1
    14    7   30 1
    15    7   31 1
    16    8   14 2
    17    8    9 1
    18    9   10 2
    19    9   32 1
    20   10   11 1
    21   10   12 1
    22   12   17 1
    23   12   13 1
    24   13   14 1
    25   13   15 2
    26   15   16 1
    27   15   18 1
    28   16   17 2
    29   16   33 1
    30   18   23 ar
    31   18   19 ar
    32   19   20 ar
    33   19   34 1
    34   20   21 ar
    35   20   35 1
    36   21   22 ar
    37   21   24 1
    38   22   23 ar
    39   22   36 1
    40   23   37 1
