@<TRIPOS>MOLECULE
ZINC28637594
   39    40     0     0     0
SMALL
USER_CHARGES
ethyl (6S)-6-[(4-chloro-2-fluoro-phenyl)sulfamoyl]cyclohexene-1-carboxylate
@<TRIPOS>ATOM
      1 C1          0.8089    5.1125    1.7404 C.3       1 <0>        -0.1473
      2 C2          0.2141    4.1210    0.7384 C.3       1 <0>         0.0680
      3 O1          1.1625    3.8917   -0.3368 O.3       1 <0>        -0.3192
      4 C3          0.7364    3.1547   -1.3820 C.2       1 <0>         0.4732
      5 O2         -0.4281    2.8138   -1.4505 O.2       1 <0>        -0.5156
      6 C4          1.6799    2.7636   -2.4386 C.2       1 <0>        -0.1347
      7 C5          1.2098    2.1059   -3.4775 C.2       1 <0>        -0.0587
      8 C6          2.0594    1.6379   -4.6230 C.3       1 <0>        -0.0995
      9 C7          3.3977    2.3795   -4.6235 C.3       1 <0>        -0.1195
     10 C8          3.9938    2.3027   -3.2132 C.3       1 <0>        -0.0949
     11 C9          3.1239    3.1375   -2.2711 C.3       1 <0>        -0.5766
     12 H1          3.1701    4.1581   -2.6789 H         1 <0>         0.1354
     13 S1          3.6294    2.8312   -0.5561 S.o2      1 <0>         2.5504
     14 O3          3.3102    1.4979   -0.1825 O.2       1 <0>        -0.9886
     15 O4          3.2510    3.9249    0.2684 O.2       1 <0>        -0.9959
     16 N1          5.2845    2.8771   -0.5857 N.2       1 <0>        -1.0547
     17 C10         5.9448    4.0373   -1.0046 C.ar      1 <0>         0.2228
     18 C11         5.3830    5.2833   -0.7620 C.ar      1 <0>        -0.2188
     19 C12         6.0371    6.4276   -1.1762 C.ar      1 <0>        -0.0789
     20 C13         7.2489    6.3333   -1.8376 C.ar      1 <0>        -0.0931
     21 C14         7.8153    5.0936   -2.0765 C.ar      1 <0>        -0.1190
     22 C15         7.1655    3.9446   -1.6644 C.ar      1 <0>         0.0480
     23 F1          7.7154    2.7338   -1.9028 F         1 <0>        -0.1383
     24 Cl1         8.0633    7.7736   -2.3629 Cl        1 <0>        -0.1022
     25 H2          0.0903    5.2862    2.5549 H         1 <0>         0.0672
     26 H3          1.0233    6.0639    1.2316 H         1 <0>         0.0646
     27 H4          1.7406    4.7003    2.1551 H         1 <0>         0.0842
     28 H5         -0.0003    3.1696    1.2472 H         1 <0>         0.0651
     29 H6         -0.7177    4.5332    0.3237 H         1 <0>         0.0646
     30 H7          0.1372    1.8701   -3.5398 H         1 <0>         0.1292
     31 H8          2.2454    0.5582   -4.5244 H         1 <0>         0.0901
     32 H9          1.5375    1.8350   -5.5711 H         1 <0>         0.0828
     33 H10         4.0788    1.9064   -5.3463 H         1 <0>         0.0720
     34 H11         3.2348    3.4299   -4.9066 H         1 <0>         0.0656
     35 H12         4.0103    1.2549   -2.8787 H         1 <0>         0.0740
     36 H13         5.0197    2.6995   -3.2266 H         1 <0>         0.0870
     37 H14         4.4354    5.3582   -0.2495 H         1 <0>         0.1651
     38 H15         5.5999    7.3969   -0.9873 H         1 <0>         0.1198
     39 H16         8.7635    5.0231   -2.5887 H         1 <0>         0.1265
@<TRIPOS>BOND
     1    1    2 1
     2    1   25 1
     3    1   26 1
     4    1   27 1
     5    2    3 1
     6    2   28 1
     7    2   29 1
     8    3    4 1
     9    4    5 2
    10    4    6 1
    11    6   11 1
    12    6    7 2
    13    7    8 1
    14    7   30 1
    15    8    9 1
    16    8   31 1
    17    8   32 1
    18    9   10 1
    19    9   33 1
    20    9   34 1
    21   10   11 1
    22   10   35 1
    23   10   36 1
    24   11   12 1
    25   11   13 1
    26   13   14 2
    27   13   15 2
    28   13   16 1
    29   16   17 1
    30   17   22 ar
    31   17   18 ar
    32   18   19 ar
    33   18   37 1
    34   19   20 ar
    35   19   38 1
    36   20   21 ar
    37   20   24 1
    38   21   22 ar
    39   21   39 1
    40   22   23 1
@<TRIPOS>MOLECULE
ZINC28637594
   40    41     0     0     0
SMALL
USER_CHARGES
ethyl (6S)-6-[(4-chloro-2-fluoro-phenyl)sulfamoyl]cyclohexene-1-carboxylate
@<TRIPOS>ATOM
      1 C1          0.8089    5.1125    1.7404 C.3       1 <0>        -0.1507
      2 C2          0.2141    4.1210    0.7384 C.3       1 <0>         0.0664
      3 O1          1.1625    3.8917   -0.3368 O.3       1 <0>        -0.3442
      4 C3          0.7364    3.1547   -1.3820 C.2       1 <0>         0.4695
      5 O2         -0.4281    2.8138   -1.4505 O.2       1 <0>        -0.4933
      6 C4          1.6799    2.7636   -2.4386 C.2       1 <0>        -0.1623
      7 C5          1.2098    2.1059   -3.4775 C.2       1 <0>        -0.0188
      8 C6          2.0594    1.6379   -4.6230 C.3       1 <0>        -0.1110
      9 C7          3.3977    2.3795   -4.6235 C.3       1 <0>        -0.1186
     10 C8          3.9938    2.3027   -3.2132 C.3       1 <0>        -0.1116
     11 C9          3.1239    3.1375   -2.2711 C.3       1 <0>        -0.5514
     12 H1          3.1701    4.1581   -2.6789 H         1 <0>         0.1647
     13 S1          3.6294    2.8312   -0.5561 S.o2      1 <0>         2.6270
     14 O3          3.3102    1.4979   -0.1825 O.2       1 <0>        -0.9400
     15 O4          3.2510    3.9249    0.2684 O.2       1 <0>        -0.9101
     16 N1          5.2845    2.8771   -0.5857 N.pl3     1 <0>        -1.0681
     17 C10         5.9448    4.0373   -1.0046 C.ar      1 <0>         0.1400
     18 C11         5.3830    5.2833   -0.7620 C.ar      1 <0>        -0.1425
     19 C12         6.0371    6.4276   -1.1762 C.ar      1 <0>        -0.0833
     20 C13         7.2489    6.3333   -1.8376 C.ar      1 <0>        -0.0297
     21 C14         7.8153    5.0936   -2.0765 C.ar      1 <0>        -0.1209
     22 C15         7.1655    3.9446   -1.6644 C.ar      1 <0>         0.0866
     23 F1          7.7154    2.7338   -1.9028 F         1 <0>        -0.1264
     24 Cl1         8.0633    7.7736   -2.3629 Cl        1 <0>        -0.0514
     25 H2          0.0903    5.2862    2.5549 H         1 <0>         0.0765
     26 H3          1.0233    6.0639    1.2316 H         1 <0>         0.0676
     27 H4          1.7406    4.7003    2.1551 H         1 <0>         0.0791
     28 H5         -0.0003    3.1696    1.2472 H         1 <0>         0.0712
     29 H6         -0.7177    4.5332    0.3237 H         1 <0>         0.0739
     30 H7          0.1372    1.8701   -3.5398 H         1 <0>         0.1431
     31 H8          2.2454    0.5582   -4.5244 H         1 <0>         0.1006
     32 H9          1.5375    1.8350   -5.5711 H         1 <0>         0.0971
     33 H10         4.0788    1.9064   -5.3463 H         1 <0>         0.0836
     34 H11         3.2348    3.4299   -4.9066 H         1 <0>         0.0746
     35 H12         4.0103    1.2549   -2.8787 H         1 <0>         0.0824
     36 H13         5.0197    2.6995   -3.2266 H         1 <0>         0.0882
     37 H14         4.4354    5.3582   -0.2495 H         1 <0>         0.1818
     38 H15         5.5999    7.3969   -0.9873 H         1 <0>         0.1493
     39 H16         8.7635    5.0231   -2.5887 H         1 <0>         0.1520
     40 H17         5.8648    1.9954   -0.2760 H         1 <0>         0.4588
@<TRIPOS>BOND
     1    1    2 1
     2    1   25 1
     3    1   26 1
     4    1   27 1
     5    2    3 1
     6    2   28 1
     7    2   29 1
     8    3    4 1
     9    4    5 2
    10    4    6 1
    11    6   11 1
    12    6    7 2
    13    7    8 1
    14    7   30 1
    15    8    9 1
    16    8   31 1
    17    8   32 1
    18    9   10 1
    19    9   33 1
    20    9   34 1
    21   10   11 1
    22   10   35 1
    23   10   36 1
    24   11   12 1
    25   11   13 1
    26   13   14 2
    27   13   15 2
    28   13   16 1
    29   16   17 1
    30   16   40 1
    31   17   22 ar
    32   17   18 ar
    33   18   19 ar
    34   18   37 1
    35   19   20 ar
    36   19   38 1
    37   20   21 ar
    38   20   24 1
    39   21   22 ar
    40   21   39 1
    41   22   23 1
@<TRIPOS>MOLECULE
ZINC28637597
   39    40     0     0     0
SMALL
USER_CHARGES
ethyl (6R)-6-[(4-chloro-2-fluoro-phenyl)sulfamoyl]cyclohexene-1-carboxylate
@<TRIPOS>ATOM
      1 C1         -1.7502    2.1586    3.9325 C.3       1 <0>        -0.1469
      2 C2         -1.6876    3.2820    2.8958 C.3       1 <0>         0.0678
      3 O1         -1.3276    2.7280    1.6028 O.3       1 <0>        -0.3189
      4 C3         -1.1326    3.6020    0.5953 C.2       1 <0>         0.4723
      5 O2         -1.3417    4.7865    0.7694 O.2       1 <0>        -0.5150
      6 C4         -0.6673    3.1227   -0.7135 C.2       1 <0>        -0.1345
      7 C5         -0.6278    3.9829   -1.7068 C.2       1 <0>        -0.0582
      8 C6         -0.1648    3.6359   -3.0918 C.3       1 <0>        -0.0991
      9 C7         -0.1692    2.1180   -3.2838 C.3       1 <0>        -0.1182
     10 C8          0.5679    1.4756   -2.1022 C.3       1 <0>        -0.1118
     11 C9         -0.2692    1.6808   -0.8379 C.3       1 <0>        -0.5728
     12 H1         -1.2218    1.1724   -1.0479 H         1 <0>         0.1360
     13 S1          0.7060    1.1988    0.6137 S.o2      1 <0>         2.5476
     14 O3          1.7999    2.0893    0.7861 O.2       1 <0>        -1.0301
     15 O4         -0.1550    0.8900    1.7012 O.2       1 <0>        -0.9531
     16 N1          1.3992   -0.2470    0.1998 N.2       1 <0>        -1.0574
     17 C10         2.2842   -0.3143   -0.8818 C.ar      1 <0>         0.2245
     18 C11         3.1490    0.7406   -1.1395 C.ar      1 <0>        -0.2145
     19 C12         4.0253    0.6698   -2.2053 C.ar      1 <0>        -0.0827
     20 C13         4.0351   -0.4466   -3.0227 C.ar      1 <0>        -0.0902
     21 C14         3.1711   -1.4982   -2.7726 C.ar      1 <0>        -0.1196
     22 C15         2.2953   -1.4356   -1.7043 C.ar      1 <0>         0.0459
     23 F1          1.4514   -2.4620   -1.4602 F         1 <0>        -0.1378
     24 Cl1         5.1338   -0.5283   -4.3642 Cl        1 <0>        -0.1010
     25 H2         -2.0229    2.5784    4.9120 H         1 <0>         0.0676
     26 H3         -0.7671    1.6702    4.0037 H         1 <0>         0.0812
     27 H4         -2.5055    1.4195    3.6271 H         1 <0>         0.0673
     28 H5         -2.6707    3.7704    2.8246 H         1 <0>         0.0639
     29 H6         -0.9323    4.0211    3.2012 H         1 <0>         0.0652
     30 H7         -0.9455    5.0237   -1.5460 H         1 <0>         0.1291
     31 H8         -0.8394    4.0947   -3.8296 H         1 <0>         0.0826
     32 H9          0.8565    4.0156   -3.2429 H         1 <0>         0.0907
     33 H10        -1.2073    1.7560   -3.3201 H         1 <0>         0.0641
     34 H11         0.3401    1.8660   -4.2257 H         1 <0>         0.0729
     35 H12         0.7011    0.4006   -2.2938 H         1 <0>         0.0877
     36 H13         1.5524    1.9513   -1.9818 H         1 <0>         0.0844
     37 H14         3.1393    1.6145   -0.5050 H         1 <0>         0.1635
     38 H15         4.7009    1.4889   -2.4031 H         1 <0>         0.1204
     39 H16         3.1806   -2.3683   -3.4124 H         1 <0>         0.1271
@<TRIPOS>BOND
     1    1    2 1
     2    1   25 1
     3    1   26 1
     4    1   27 1
     5    2    3 1
     6    2   28 1
     7    2   29 1
     8    3    4 1
     9    4    5 2
    10    4    6 1
    11    6   11 1
    12    6    7 2
    13    7    8 1
    14    7   30 1
    15    8    9 1
    16    8   31 1
    17    8   32 1
    18    9   10 1
    19    9   33 1
    20    9   34 1
    21   10   11 1
    22   10   35 1
    23   10   36 1
    24   11   12 1
    25   11   13 1
    26   13   14 2
    27   13   15 2
    28   13   16 1
    29   16   17 1
    30   17   22 ar
    31   17   18 ar
    32   18   19 ar
    33   18   37 1
    34   19   20 ar
    35   19   38 1
    36   20   21 ar
    37   20   24 1
    38   21   22 ar
    39   21   39 1
    40   22   23 1
@<TRIPOS>MOLECULE
ZINC28637597
   40    41     0     0     0
SMALL
USER_CHARGES
ethyl (6R)-6-[(4-chloro-2-fluoro-phenyl)sulfamoyl]cyclohexene-1-carboxylate
@<TRIPOS>ATOM
      1 C1         -1.7502    2.1586    3.9325 C.3       1 <0>        -0.1497
      2 C2         -1.6876    3.2820    2.8958 C.3       1 <0>         0.0664
      3 O1         -1.3276    2.7280    1.6028 O.3       1 <0>        -0.3418
      4 C3         -1.1326    3.6020    0.5953 C.2       1 <0>         0.4676
      5 O2         -1.3417    4.7865    0.7694 O.2       1 <0>        -0.4932
      6 C4         -0.6673    3.1227   -0.7135 C.2       1 <0>        -0.1617
      7 C5         -0.6278    3.9829   -1.7068 C.2       1 <0>        -0.0193
      8 C6         -0.1648    3.6359   -3.0918 C.3       1 <0>        -0.1103
      9 C7         -0.1692    2.1180   -3.2838 C.3       1 <0>        -0.1183
     10 C8          0.5679    1.4756   -2.1022 C.3       1 <0>        -0.1238
     11 C9         -0.2692    1.6808   -0.8379 C.3       1 <0>        -0.5489
     12 H1         -1.2218    1.1724   -1.0479 H         1 <0>         0.1660
     13 S1          0.7060    1.1988    0.6137 S.o2      1 <0>         2.6250
     14 O3          1.7999    2.0893    0.7861 O.2       1 <0>        -0.9416
     15 O4         -0.1550    0.8900    1.7012 O.2       1 <0>        -0.9067
     16 N1          1.3992   -0.2470    0.1998 N.pl3     1 <0>        -1.0683
     17 C10         2.2842   -0.3143   -0.8818 C.ar      1 <0>         0.1373
     18 C11         3.1490    0.7406   -1.1395 C.ar      1 <0>        -0.1397
     19 C12         4.0253    0.6698   -2.2053 C.ar      1 <0>        -0.0877
     20 C13         4.0351   -0.4466   -3.0227 C.ar      1 <0>        -0.0265
     21 C14         3.1711   -1.4982   -2.7726 C.ar      1 <0>        -0.1228
     22 C15         2.2953   -1.4356   -1.7043 C.ar      1 <0>         0.0877
     23 F1          1.4514   -2.4620   -1.4602 F         1 <0>        -0.1251
     24 Cl1         5.1338   -0.5283   -4.3642 Cl        1 <0>        -0.0501
     25 H2         -2.0229    2.5784    4.9120 H         1 <0>         0.0768
     26 H3         -0.7671    1.6702    4.0037 H         1 <0>         0.0760
     27 H4         -2.5055    1.4195    3.6271 H         1 <0>         0.0692
     28 H5         -2.6707    3.7704    2.8246 H         1 <0>         0.0730
     29 H6         -0.9323    4.0211    3.2012 H         1 <0>         0.0715
     30 H7         -0.9455    5.0237   -1.5460 H         1 <0>         0.1430
     31 H8         -0.8394    4.0947   -3.8296 H         1 <0>         0.0969
     32 H9          0.8565    4.0156   -3.2429 H         1 <0>         0.1010
     33 H10        -1.2073    1.7560   -3.3201 H         1 <0>         0.0739
     34 H11         0.3401    1.8660   -4.2257 H         1 <0>         0.0836
     35 H12         0.7011    0.4006   -2.2938 H         1 <0>         0.0889
     36 H13         1.5524    1.9513   -1.9818 H         1 <0>         0.0879
     37 H14         3.1393    1.6145   -0.5050 H         1 <0>         0.1808
     38 H15         4.7009    1.4889   -2.4031 H         1 <0>         0.1499
     39 H16         3.1806   -2.3683   -3.4124 H         1 <0>         0.1527
     40 H17         1.1639   -1.1545    0.7752 H         1 <0>         0.4604
@<TRIPOS>BOND
     1    1    2 1
     2    1   25 1
     3    1   26 1
     4    1   27 1
     5    2    3 1
     6    2   28 1
     7    2   29 1
     8    3    4 1
     9    4    5 2
    10    4    6 1
    11    6   11 1
    12    6    7 2
    13    7    8 1
    14    7   30 1
    15    8    9 1
    16    8   31 1
    17    8   32 1
    18    9   10 1
    19    9   33 1
    20    9   34 1
    21   10   11 1
    22   10   35 1
    23   10   36 1
    24   11   12 1
    25   11   13 1
    26   13   14 2
    27   13   15 2
    28   13   16 1
    29   16   17 1
    30   16   40 1
    31   17   22 ar
    32   17   18 ar
    33   18   19 ar
    34   18   37 1
    35   19   20 ar
    36   19   38 1
    37   20   21 ar
    38   20   24 1
    39   21   22 ar
    40   21   39 1
    41   22   23 1
@<TRIPOS>MOLECULE
ZINC13982410
   39    40     0     0     0
SMALL
USER_CHARGES

@<TRIPOS>ATOM
      1 H1         -0.3033    0.2837   -0.3799 H         1 <0>         0.1163
      2 C1         -0.1302    1.3128   -0.1018 C.2       1 <0>        -0.1052
      3 C2         -1.1631    2.1282   -0.0672 C.2       1 <0>        -0.0893
      4 C3         -1.0697    3.5779    0.3103 C.3       1 <0>        -0.5174
      5 H2         -1.4332    3.7102    1.3294 H         1 <0>         0.1437
      6 C4          0.3826    4.0520    0.2244 C.3       1 <0>        -0.1064
      7 C5          1.2656    3.0567    0.9872 C.3       1 <0>        -0.1131
      8 C6          1.2734    1.7295    0.2289 C.3       1 <0>        -0.0899
      9 H3          1.7425    0.9621    0.8447 H         1 <0>         0.0796
     10 H4          1.8421    1.8475   -0.6934 H         1 <0>         0.0842
     11 S1         -2.0879    4.5615   -0.8238 S.o2      1 <0>         2.5212
     12 O1         -2.0345    5.9350   -0.4634 O.2       1 <0>        -1.0194
     13 O2         -1.8575    4.1553   -2.1659 O.2       1 <0>        -1.0014
     14 N1         -3.6463    4.1012   -0.5046 N.2       1 <0>        -1.0671
     15 C7         -4.6969    4.6041   -1.2795 C.ar      1 <0>         0.2908
     16 C8         -4.4423    5.5414   -2.2717 C.ar      1 <0>        -0.2243
     17 C9         -5.4811    6.0368   -3.0356 C.ar      1 <0>        -0.0906
     18 C10        -6.7760    5.6000   -2.8127 C.ar      1 <0>        -0.0126
     19 C11        -7.0331    4.6654   -1.8241 C.ar      1 <0>        -0.1004
     20 C12        -5.9961    4.1622   -1.0612 C.ar      1 <0>        -0.0787
     21 Cl1        -6.3175    2.9850    0.1736 Cl        1 <0>        -0.0695
     22 F1         -7.7902    6.0868   -3.5607 F         1 <0>        -0.1590
     23 C13        -2.4837    1.5881   -0.4188 C.2       1 <0>         0.5008
     24 O3         -3.2779    1.3063    0.4570 O.2       1 <0>        -0.4727
     25 O4         -2.8143    1.4051   -1.7128 O.3       1 <0>        -0.3315
     26 C14        -4.1455    0.9632   -1.9860 C.3       1 <0>         0.0595
     27 C15        -4.2951    0.6908   -3.4841 C.3       1 <0>        -0.1489
     28 H5          0.6936    4.0920   -0.8195 H         1 <0>         0.0745
     29 H6          0.4723    5.0407    0.6743 H         1 <0>         0.0848
     30 H7          2.2813    3.4463    1.0560 H         1 <0>         0.0731
     31 H8          0.8617    2.9009    1.9876 H         1 <0>         0.0705
     32 H9         -3.4327    5.8833   -2.4458 H         1 <0>         0.1158
     33 H10        -5.2831    6.7659   -3.8074 H         1 <0>         0.1190
     34 H11        -8.0439    4.3261   -1.6519 H         1 <0>         0.1257
     35 H12        -4.3463    0.0483   -1.4285 H         1 <0>         0.0537
     36 H13        -4.8537    1.7351   -1.6846 H         1 <0>         0.0866
     37 H14        -4.0087    1.5801   -4.0455 H         1 <0>         0.0698
     38 H15        -3.6508   -0.1413   -3.7682 H         1 <0>         0.0555
     39 H16        -5.3322    0.4394   -3.7060 H         1 <0>         0.0720
@<TRIPOS>BOND
     1    1    2 1
     2    2    8 1
     3    2    3 2
     4    3    4 1
     5    3   23 1
     6    4    5 1
     7    4    6 1
     8    4   11 1
     9    6    7 1
    10    6   28 1
    11    6   29 1
    12    7    8 1
    13    7   30 1
    14    7   31 1
    15    8    9 1
    16    8   10 1
    17   11   12 2
    18   11   13 2
    19   11   14 1
    20   14   15 1
    21   15   20 ar
    22   15   16 ar
    23   16   17 ar
    24   16   32 1
    25   17   18 ar
    26   17   33 1
    27   18   19 ar
    28   18   22 1
    29   19   20 ar
    30   19   34 1
    31   20   21 1
    32   23   24 2
    33   23   25 1
    34   25   26 1
    35   26   27 1
    36   26   35 1
    37   26   36 1
    38   27   37 1
    39   27   38 1
    40   27   39 1
@<TRIPOS>MOLECULE
ZINC28637246
   39    40     0     0     0
SMALL
USER_CHARGES
ethyl (6S)-6-[(2-chloro-4-fluoro-phenyl)sulfamoyl]cyclohexene-1-carboxylate
@<TRIPOS>ATOM
      1 C1          0.8077    5.1135    1.7392 C.3       1 <0>        -0.1471
      2 C2          0.2131    4.1216    0.7375 C.3       1 <0>         0.0680
      3 O1          1.1617    3.8921   -0.3376 O.3       1 <0>        -0.3194
      4 C3          0.7357    3.1549   -1.3826 C.2       1 <0>         0.4732
      5 O2         -0.4290    2.8146   -1.4516 O.2       1 <0>        -0.5161
      6 C4          1.6796    2.7627   -2.4384 C.2       1 <0>        -0.1343
      7 C5          1.2103    2.1017   -3.4758 C.2       1 <0>        -0.0593
      8 C6          2.0603    1.6323   -4.6203 C.3       1 <0>        -0.0993
      9 C7          3.3975    2.3759   -4.6228 C.3       1 <0>        -0.1196
     10 C8          3.9940    2.3034   -3.2124 C.3       1 <0>        -0.0944
     11 C9          3.1230    3.1391   -2.2722 C.3       1 <0>        -0.5766
     12 H1          3.1675    4.1587   -2.6826 H         1 <0>         0.1341
     13 S1          3.6294    2.8377   -0.5566 S.o2      1 <0>         2.5479
     14 O3          3.3083    1.5061   -0.1783 O.2       1 <0>        -0.9885
     15 O4          3.2534    3.9347    0.2646 O.2       1 <0>        -0.9982
     16 N1          5.2845    2.8808   -0.5876 N.2       1 <0>        -1.0459
     17 C10         5.9463    4.0383   -1.0110 C.ar      1 <0>         0.2469
     18 C11         5.3861    5.2862   -0.7726 C.ar      1 <0>        -0.2150
     19 C12         6.0414    6.4279   -1.1910 C.ar      1 <0>        -0.1083
     20 C13         7.2538    6.3290   -1.8527 C.ar      1 <0>         0.0081
     21 C14         7.8175    5.0864   -2.0872 C.ar      1 <0>        -0.1156
     22 C15         7.1656    3.9410   -1.6704 C.ar      1 <0>        -0.0638
     23 Cl1         7.8690    2.3826   -1.9709 Cl        1 <0>        -0.0758
     24 F1          7.8899    7.4470   -2.2658 F         1 <0>        -0.1578
     25 H2          0.0891    5.2873    2.5536 H         1 <0>         0.0671
     26 H3          1.0221    6.0647    1.2301 H         1 <0>         0.0644
     27 H4          1.7395    4.7015    2.1540 H         1 <0>         0.0842
     28 H5         -0.0013    3.1704    1.2466 H         1 <0>         0.0651
     29 H6         -0.7187    4.5335    0.3226 H         1 <0>         0.0644
     30 H7          0.1380    1.8641   -3.5373 H         1 <0>         0.1285
     31 H8          2.2479    0.5531   -4.5192 H         1 <0>         0.0898
     32 H9          1.5379    1.8263   -5.5687 H         1 <0>         0.0822
     33 H10         4.0791    1.9021   -5.3445 H         1 <0>         0.0717
     34 H11         3.2329    3.4254   -4.9083 H         1 <0>         0.0649
     35 H12         4.0121    1.2565   -2.8754 H         1 <0>         0.0738
     36 H13         5.0193    2.7017   -3.2270 H         1 <0>         0.0897
     37 H14         4.4387    5.3641   -0.2599 H         1 <0>         0.1648
     38 H15         5.6055    7.3985   -1.0059 H         1 <0>         0.1203
     39 H16         8.7654    5.0117   -2.5995 H         1 <0>         0.1258
@<TRIPOS>BOND
     1    1    2 1
     2    1   25 1
     3    1   26 1
     4    1   27 1
     5    2    3 1
     6    2   28 1
     7    2   29 1
     8    3    4 1
     9    4    5 2
    10    4    6 1
    11    6   11 1
    12    6    7 2
    13    7    8 1
    14    7   30 1
    15    8    9 1
    16    8   31 1
    17    8   32 1
    18    9   10 1
    19    9   33 1
    20    9   34 1
    21   10   11 1
    22   10   35 1
    23   10   36 1
    24   11   12 1
    25   11   13 1
    26   13   14 2
    27   13   15 2
    28   13   16 1
    29   16   17 1
    30   17   22 ar
    31   17   18 ar
    32   18   19 ar
    33   18   37 1
    34   19   20 ar
    35   19   38 1
    36   20   21 ar
    37   20   24 1
    38   21   22 ar
    39   21   39 1
    40   22   23 1
@<TRIPOS>MOLECULE
ZINC28637246
   40    41     0     0     0
SMALL
USER_CHARGES
ethyl (6S)-6-[(2-chloro-4-fluoro-phenyl)sulfamoyl]cyclohexene-1-carboxylate
@<TRIPOS>ATOM
      1 C1          0.8077    5.1135    1.7392 C.3       1 <0>        -0.1507
      2 C2          0.2131    4.1216    0.7375 C.3       1 <0>         0.0664
      3 O1          1.1617    3.8921   -0.3376 O.3       1 <0>        -0.3445
      4 C3          0.7357    3.1549   -1.3826 C.2       1 <0>         0.4696
      5 O2         -0.4290    2.8146   -1.4516 O.2       1 <0>        -0.4935
      6 C4          1.6796    2.7627   -2.4384 C.2       1 <0>        -0.1621
      7 C5          1.2103    2.1017   -3.4758 C.2       1 <0>        -0.0188
      8 C6          2.0603    1.6323   -4.6203 C.3       1 <0>        -0.1110
      9 C7          3.3975    2.3759   -4.6228 C.3       1 <0>        -0.1182
     10 C8          3.9940    2.3034   -3.2124 C.3       1 <0>        -0.1121
     11 C9          3.1230    3.1391   -2.2722 C.3       1 <0>        -0.5512
     12 H1          3.1675    4.1587   -2.6826 H         1 <0>         0.1644
     13 S1          3.6294    2.8377   -0.5566 S.o2      1 <0>         2.6263
     14 O3          3.3083    1.5061   -0.1783 O.2       1 <0>        -0.9399
     15 O4          3.2534    3.9347    0.2646 O.2       1 <0>        -0.9108
     16 N1          5.2845    2.8808   -0.5876 N.pl3     1 <0>        -1.0680
     17 C10         5.9463    4.0383   -1.0110 C.ar      1 <0>         0.1671
     18 C11         5.3861    5.2862   -0.7726 C.ar      1 <0>        -0.1403
     19 C12         6.0414    6.4279   -1.1910 C.ar      1 <0>        -0.1119
     20 C13         7.2538    6.3290   -1.8527 C.ar      1 <0>         0.0944
     21 C14         7.8175    5.0864   -2.0872 C.ar      1 <0>        -0.1205
     22 C15         7.1656    3.9410   -1.6704 C.ar      1 <0>        -0.0393
     23 Cl1         7.8690    2.3826   -1.9709 Cl        1 <0>        -0.0453
     24 F1          7.8899    7.4470   -2.2658 F         1 <0>        -0.1300
     25 H2          0.0891    5.2873    2.5536 H         1 <0>         0.0765
     26 H3          1.0221    6.0647    1.2301 H         1 <0>         0.0675
     27 H4          1.7395    4.7015    2.1540 H         1 <0>         0.0791
     28 H5         -0.0013    3.1704    1.2466 H         1 <0>         0.0713
     29 H6         -0.7187    4.5335    0.3226 H         1 <0>         0.0739
     30 H7          0.1380    1.8641   -3.5373 H         1 <0>         0.1427
     31 H8          2.2479    0.5531   -4.5192 H         1 <0>         0.1005
     32 H9          1.5379    1.8263   -5.5687 H         1 <0>         0.0968
     33 H10         4.0791    1.9021   -5.3445 H         1 <0>         0.0835
     34 H11         3.2329    3.4254   -4.9083 H         1 <0>         0.0742
     35 H12         4.0121    1.2565   -2.8754 H         1 <0>         0.0823
     36 H13         5.0193    2.7017   -3.2270 H         1 <0>         0.0899
     37 H14         4.4387    5.3641   -0.2599 H         1 <0>         0.1820
     38 H15         5.6055    7.3985   -1.0059 H         1 <0>         0.1509
     39 H16         8.7654    5.0117   -2.5995 H         1 <0>         0.1519
     40 H17         5.8636    1.9993   -0.2753 H         1 <0>         0.4565
@<TRIPOS>BOND
     1    1    2 1
     2    1   25 1
     3    1   26 1
     4    1   27 1
     5    2    3 1
     6    2   28 1
     7    2   29 1
     8    3    4 1
     9    4    5 2
    10    4    6 1
    11    6   11 1
    12    6    7 2
    13    7    8 1
    14    7   30 1
    15    8    9 1
    16    8   31 1
    17    8   32 1
    18    9   10 1
    19    9   33 1
    20    9   34 1
    21   10   11 1
    22   10   35 1
    23   10   36 1
    24   11   12 1
    25   11   13 1
    26   13   14 2
    27   13   15 2
    28   13   16 1
    29   16   17 1
    30   16   40 1
    31   17   22 ar
    32   17   18 ar
    33   18   19 ar
    34   18   37 1
    35   19   20 ar
    36   19   38 1
    37   20   21 ar
    38   20   24 1
    39   21   22 ar
    40   21   39 1
    41   22   23 1
