@<TRIPOS>MOLECULE
ZINC24044436
   76    80     0     0     0
SMALL
USER_CHARGES
1-[5-tert-butyl-2-(p-tolyl)pyrazol-3-yl]-3-[4-(2-morpholinoethoxy)-1-naphthyl]urea
@<TRIPOS>ATOM
      1 C1          3.3307    9.5387   -0.3298 C.3       1 <0>        -0.1193
      2 C2          2.0898    8.6848   -0.2813 C.ar      1 <0>        -0.0892
      3 C3          0.9612    9.0673   -0.9828 C.ar      1 <0>        -0.0934
      4 C4         -0.1775    8.2868   -0.9403 C.ar      1 <0>        -0.1062
      5 C5         -0.1884    7.1174   -0.1919 C.ar      1 <0>         0.1564
      6 C6          0.9444    6.7392    0.5163 C.ar      1 <0>        -0.1500
      7 C7          2.0821    7.5207    0.4649 C.ar      1 <0>        -0.0924
      8 N1         -1.3424    6.3233   -0.1469 N.pl3     1 <0>        -0.3448
      9 C8         -1.3788    4.9645   -0.0790 C.2       1 <0>         0.3309
     10 C9         -2.6878    4.5925   -0.0483 C.2       1 <0>        -0.2629
     11 C10        -3.4651    5.7529   -0.1047 C.2       1 <0>         0.1115
     12 N2         -2.6643    6.7861   -0.1672 N.2       1 <0>        -0.2779
     13 C11        -4.9712    5.8052   -0.0954 C.3       1 <0>         0.0134
     14 C12        -5.4824    5.5257    1.3193 C.3       1 <0>        -0.1388
     15 C13        -5.4360    7.1933   -0.5406 C.3       1 <0>        -0.1390
     16 C14        -5.5242    4.7499   -1.0553 C.3       1 <0>        -0.1399
     17 N3         -0.2771    4.1104   -0.0417 N.am      1 <0>        -0.6731
     18 C15        -0.4603    2.7771    0.0314 C.2       1 <0>         0.7165
     19 O1         -1.5862    2.3190    0.0649 O.2       1 <0>        -0.5445
     20 N4          0.6045    1.9516    0.0675 N.am      1 <0>        -0.6819
     21 C16         0.4162    0.5655    0.0407 C.ar      1 <0>         0.1254
     22 C17        -0.6813    0.0024    0.6542 C.ar      1 <0>        -0.0743
     23 C18        -0.8835   -1.3742    0.6299 C.ar      1 <0>        -0.2061
     24 C19         0.0048   -2.2051    0.0082 C.ar      1 <0>         0.1395
     25 C20         1.1426   -1.6672   -0.6254 C.ar      1 <0>        -0.0565
     26 C21         1.3517   -0.2661   -0.6096 C.ar      1 <0>        -0.0251
     27 C22         2.4862    0.2686   -1.2409 C.ar      1 <0>        -0.1232
     28 C23         3.3687   -0.5639   -1.8588 C.ar      1 <0>        -0.0971
     29 C24         3.1636   -1.9422   -1.8742 C.ar      1 <0>        -0.1313
     30 C25         2.0750   -2.4951   -1.2724 C.ar      1 <0>        -0.0739
     31 O2         -0.2080   -3.5475    0.0012 O.3       1 <0>        -0.2916
     32 C26        -1.3823   -4.0216    0.6634 C.3       1 <0>         0.0605
     33 C27        -1.4510   -5.5459    0.5508 C.3       1 <0>         0.0539
     34 N5         -0.3065   -6.1409    1.2538 N.3       1 <0>        -0.5287
     35 C28        -0.1978   -7.5776    0.9617 C.3       1 <0>         0.0167
     36 C29         1.0390   -8.1436    1.6645 C.3       1 <0>         0.0615
     37 O3          0.9456   -7.8818    3.0674 O.3       1 <0>        -0.3849
     38 C30         0.8389   -6.4921    3.3879 C.3       1 <0>         0.0625
     39 C31        -0.3999   -5.9094    2.7026 C.3       1 <0>         0.0120
     40 H1          3.1476   10.4156   -0.9682 H         1 <0>         0.0687
     41 H2          4.1639    8.9515   -0.7434 H         1 <0>         0.0732
     42 H3          3.5863    9.8722    0.6868 H         1 <0>         0.0734
     43 H4          0.9703    9.9770   -1.5648 H         1 <0>         0.1335
     44 H5         -1.0587    8.5861   -1.4884 H         1 <0>         0.1355
     45 H6          0.9374    5.8324    1.1029 H         1 <0>         0.1262
     46 H7          2.9651    7.2245    1.0118 H         1 <0>         0.1343
     47 H8         -3.0598    3.5802    0.0092 H         1 <0>         0.1784
     48 H9         -6.5817    5.5639    1.3261 H         1 <0>         0.0656
     49 H10        -5.0849    6.2845    2.0094 H         1 <0>         0.0565
     50 H11        -5.1481    4.5278    1.6395 H         1 <0>         0.0614
     51 H12        -6.5353    7.2315   -0.5338 H         1 <0>         0.0604
     52 H13        -5.0684    7.3943   -1.5577 H         1 <0>         0.0568
     53 H14        -5.0385    7.9519    0.1496 H         1 <0>         0.0614
     54 H15        -6.6235    4.7882   -1.0484 H         1 <0>         0.0647
     55 H16        -5.1900    3.7520   -0.7351 H         1 <0>         0.0637
     56 H17        -5.1566    4.9509   -2.0724 H         1 <0>         0.0570
     57 H18         0.7414    4.5248   -0.0719 H         1 <0>         0.4294
     58 H19         1.6215    2.3677    0.1180 H         1 <0>         0.4280
     59 H20        -1.3959    0.6376    1.1566 H         1 <0>         0.1450
     60 H21        -1.7537   -1.7925    1.1139 H         1 <0>         0.1296
     61 H22         2.6580    1.3348   -1.2361 H         1 <0>         0.1222
     62 H23         4.2405   -0.1501   -2.3437 H         1 <0>         0.1243
     63 H24         3.8790   -2.5810   -2.3706 H         1 <0>         0.1250
     64 H25         1.9286   -3.5650   -1.2926 H         1 <0>         0.1353
     65 H26        -1.3465   -3.7335    1.7244 H         1 <0>         0.0659
     66 H27        -2.2726   -3.5787    0.1931 H         1 <0>         0.0716
     67 H28        -2.3868   -5.9052    1.0039 H         1 <0>         0.0605
     68 H29        -1.4216   -5.8370   -0.5096 H         1 <0>         0.0912
     69 H30        -1.0977   -8.0949    1.3258 H         1 <0>         0.0437
     70 H31        -0.1044   -7.7249   -0.1244 H         1 <0>         0.0891
     71 H32         1.0925   -9.2291    1.4949 H         1 <0>         0.1001
     72 H33         1.9424   -7.6643    1.2595 H         1 <0>         0.0618
     73 H34         0.7475   -6.3731    4.4776 H         1 <0>         0.0994
     74 H35         1.7375   -5.9645    3.0355 H         1 <0>         0.0616
     75 H36        -0.4553   -4.8284    2.8983 H         1 <0>         0.0869
     76 H37        -1.3031   -6.3997    3.0948 H         1 <0>         0.0443
@<TRIPOS>BOND
     1    1    2 1
     2    1   40 1
     3    1   41 1
     4    1   42 1
     5    2    7 ar
     6    2    3 ar
     7    3    4 ar
     8    3   43 1
     9    4    5 ar
    10    4   44 1
    11    5    6 ar
    12    5    8 1
    13    6    7 ar
    14    6   45 1
    15    7   46 1
    16    8   12 1
    17    8    9 1
    18    9   10 2
    19    9   17 1
    20   10   11 1
    21   10   47 1
    22   11   12 2
    23   11   13 1
    24   13   14 1
    25   13   15 1
    26   13   16 1
    27   14   48 1
    28   14   49 1
    29   14   50 1
    30   15   51 1
    31   15   52 1
    32   15   53 1
    33   16   54 1
    34   16   55 1
    35   16   56 1
    36   17   18 am
    37   17   57 1
    38   18   19 2
    39   18   20 am
    40   20   21 1
    41   20   58 1
    42   21   26 ar
    43   21   22 ar
    44   22   23 ar
    45   22   59 1
    46   23   24 ar
    47   23   60 1
    48   24   25 ar
    49   24   31 1
    50   25   30 ar
    51   25   26 ar
    52   26   27 ar
    53   27   28 ar
    54   27   61 1
    55   28   29 ar
    56   28   62 1
    57   29   30 ar
    58   29   63 1
    59   30   64 1
    60   31   32 1
    61   32   33 1
    62   32   65 1
    63   32   66 1
    64   33   34 1
    65   33   67 1
    66   33   68 1
    67   34   39 1
    68   34   35 1
    69   35   36 1
    70   35   69 1
    71   35   70 1
    72   36   37 1
    73   36   71 1
    74   36   72 1
    75   37   38 1
    76   38   39 1
    77   38   73 1
    78   38   74 1
    79   39   75 1
    80   39   76 1
@<TRIPOS>MOLECULE
ZINC13745125
   39    40     0     0     0
SMALL
USER_CHARGES
ethyl 4-(3,7-dimethyl-2,6-dioxo-purin-1-yl)butanoate
@<TRIPOS>ATOM
      1 C1         -9.4364    5.9818   -4.7953 C.3       1 <0>        -0.1536
      2 C2         -8.2405    5.9939   -3.8411 C.3       1 <0>         0.0613
      3 O1         -8.1253    4.6998   -3.1928 O.3       1 <0>        -0.3589
      4 C3         -7.1190    4.5437   -2.3184 C.2       1 <0>         0.4628
      5 O2         -6.3594    5.4580   -2.1019 O.2       1 <0>        -0.5071
      6 C4         -6.9365    3.2279   -1.6067 C.3       1 <0>        -0.1087
      7 C5         -5.7267    3.3160   -0.6741 C.3       1 <0>        -0.1249
      8 C6         -5.5414    1.9801    0.0484 C.3       1 <0>         0.1161
      9 N1         -4.3831    2.0645    0.9414 N.am      1 <0>        -0.5482
     10 C7         -3.1610    1.7292    0.4780 C.2       1 <0>         0.5964
     11 O3         -3.0190    1.3592   -0.6737 O.2       1 <0>        -0.5112
     12 C8         -2.0481    1.8183    1.3417 C.2       1 <0>        -0.1559
     13 C9         -2.2402    2.2382    2.6520 C.2       1 <0>         0.3179
     14 N2         -1.0462    2.2280    3.2500 N.2       1 <0>        -0.4990
     15 C10        -0.1306    1.8271    2.4052 C.2       1 <0>         0.2682
     16 N3         -0.6984    1.5583    1.2133 N.pl3     1 <0>        -0.4122
     17 C11        -0.0127    1.0858    0.0080 C.3       1 <0>         0.0684
     18 N4         -3.5201    2.5679    3.0677 N.am      1 <0>        -0.5108
     19 C12        -4.5538    2.4743    2.2101 C.2       1 <0>         0.7081
     20 O4         -5.6700    2.7676    2.5931 O.2       1 <0>        -0.5303
     21 C13        -3.7489    3.0195    4.4424 C.3       1 <0>         0.0888
     22 H1         -9.2912    5.2089   -5.5500 H         1 <0>         0.0673
     23 H2        -10.3473    5.7745   -4.2335 H         1 <0>         0.0676
     24 H3         -9.5228    6.9532   -5.2820 H         1 <0>         0.0809
     25 H4         -8.3857    6.7668   -3.0863 H         1 <0>         0.0705
     26 H5         -7.3296    6.2012   -4.4028 H         1 <0>         0.0702
     27 H6         -6.7734    2.4379   -2.3398 H         1 <0>         0.1120
     28 H7         -7.8294    3.0035   -1.0233 H         1 <0>         0.1130
     29 H8         -5.8898    4.1060    0.0589 H         1 <0>         0.0813
     30 H9         -4.8338    3.5404   -1.2576 H         1 <0>         0.0792
     31 H10        -5.3783    1.1901   -0.6847 H         1 <0>         0.1057
     32 H11        -6.4344    1.7557    0.6318 H         1 <0>         0.1074
     33 H12         0.9211    1.7265    2.6296 H         1 <0>         0.2316
     34 H13         0.0021   -0.0041    0.0020 H         1 <0>         0.0880
     35 H14         1.0099    1.4631    0.0003 H         1 <0>         0.0984
     36 H15        -0.5399    1.4469   -0.8751 H         1 <0>         0.1006
     37 H16        -3.6506    4.1040    4.4897 H         1 <0>         0.0734
     38 H17        -4.7520    2.7316    4.7572 H         1 <0>         0.0938
     39 H18        -3.0145    2.5589    5.1032 H         1 <0>         0.0922
@<TRIPOS>BOND
     1    1    2 1
     2    1   22 1
     3    1   23 1
     4    1   24 1
     5    2    3 1
     6    2   25 1
     7    2   26 1
     8    3    4 1
     9    4    5 2
    10    4    6 1
    11    6    7 1
    12    6   27 1
    13    6   28 1
    14    7    8 1
    15    7   29 1
    16    7   30 1
    17    8    9 1
    18    8   31 1
    19    8   32 1
    20    9   19 am
    21    9   10 am
    22   10   11 2
    23   10   12 1
    24   12   16 1
    25   12   13 2
    26   13   14 1
    27   13   18 1
    28   14   15 2
    29   15   16 1
    30   15   33 1
    31   16   17 1
    32   17   34 1
    33   17   35 1
    34   17   36 1
    35   18   19 am
    36   18   21 1
    37   19   20 2
    38   21   37 1
    39   21   38 1
    40   21   39 1
@<TRIPOS>MOLECULE
ZINC13745125
   40    41     0     0     0
SMALL
USER_CHARGES
ethyl 4-(3,7-dimethyl-2,6-dioxo-purin-1-yl)butanoate
@<TRIPOS>ATOM
      1 C1         -9.4364    5.9818   -4.7953 C.3       1 <0>        -0.1554
      2 C2         -8.2405    5.9939   -3.8411 C.3       1 <0>         0.0627
      3 O1         -8.1253    4.6998   -3.1928 O.3       1 <0>        -0.3563
      4 C3         -7.1190    4.5437   -2.3184 C.2       1 <0>         0.4635
      5 O2         -6.3594    5.4580   -2.1019 O.2       1 <0>        -0.5103
      6 C4         -6.9365    3.2279   -1.6067 C.3       1 <0>        -0.1113
      7 C5         -5.7267    3.3160   -0.6741 C.3       1 <0>        -0.1260
      8 C6         -5.5414    1.9801    0.0484 C.3       1 <0>         0.1093
      9 N1         -4.3831    2.0645    0.9414 N.am      1 <0>        -0.5392
     10 C7         -3.1610    1.7292    0.4780 C.2       1 <0>         0.5904
     11 O3         -3.0190    1.3592   -0.6737 O.2       1 <0>        -0.4638
     12 C8         -2.0481    1.8183    1.3417 C.2       1 <0>        -0.0841
     13 C9         -2.2402    2.2382    2.6520 C.2       1 <0>         0.3486
     14 C10        -0.1306    1.8271    2.4052 C.cat     1 <0>         0.3409
     15 N2         -0.6984    1.5583    1.2133 N.pl3     1 <0>        -0.3482
     16 C11        -0.0127    1.0858    0.0080 C.3       1 <0>         0.0493
     17 N3         -3.5201    2.5679    3.0677 N.am      1 <0>        -0.5134
     18 C12        -4.5538    2.4743    2.2101 C.2       1 <0>         0.7086
     19 O4         -5.6700    2.7676    2.5931 O.2       1 <0>        -0.4802
     20 C13        -3.7489    3.0195    4.4424 C.3       1 <0>         0.0632
     21 H1         -9.2912    5.2089   -5.5500 H         1 <0>         0.0685
     22 H2        -10.3473    5.7745   -4.2335 H         1 <0>         0.0687
     23 H3         -9.5228    6.9532   -5.2820 H         1 <0>         0.0835
     24 H4         -8.3857    6.7668   -3.0863 H         1 <0>         0.0718
     25 H5         -7.3296    6.2012   -4.4028 H         1 <0>         0.0715
     26 H6         -6.7734    2.4379   -2.3398 H         1 <0>         0.1148
     27 H7         -7.8294    3.0035   -1.0233 H         1 <0>         0.1155
     28 H8         -5.8898    4.1060    0.0589 H         1 <0>         0.0833
     29 H9         -4.8338    3.5404   -1.2576 H         1 <0>         0.0816
     30 H10        -5.3783    1.1901   -0.6847 H         1 <0>         0.1168
     31 H11        -6.4344    1.7557    0.6318 H         1 <0>         0.1176
     32 H12         0.9211    1.7265    2.6296 H         1 <0>         0.2828
     33 H13         0.0021   -0.0041    0.0020 H         1 <0>         0.1215
     34 H14         1.0099    1.4631    0.0003 H         1 <0>         0.1268
     35 H15        -0.5399    1.4469   -0.8751 H         1 <0>         0.1278
     36 H16        -3.6506    4.1040    4.4897 H         1 <0>         0.0961
     37 H17        -4.7520    2.7316    4.7572 H         1 <0>         0.1203
     38 H18        -3.0145    2.5589    5.1032 H         1 <0>         0.0910
     39 N4         -1.0458    2.2285    3.2520 N.pl3     1 <0>        -0.4949
     40 H19        -0.8722    2.4952    4.2282 H         1 <0>         0.4866
@<TRIPOS>BOND
     1    1    2 1
     2    1   21 1
     3    1   22 1
     4    1   23 1
     5    2    3 1
     6    2   24 1
     7    2   25 1
     8    3    4 1
     9    4    5 2
    10    4    6 1
    11    6    7 1
    12    6   26 1
    13    6   27 1
    14    7    8 1
    15    7   28 1
    16    7   29 1
    17    8    9 1
    18    8   30 1
    19    8   31 1
    20    9   18 am
    21    9   10 am
    22   10   11 2
    23   10   12 1
    24   12   15 1
    25   12   13 2
    26   13   17 1
    27   13   39 1
    28   14   15 1
    29   14   32 1
    30   14   39 2
    31   15   16 1
    32   16   33 1
    33   16   34 1
    34   16   35 1
    35   17   18 am
    36   17   20 1
    37   18   19 2
    38   20   36 1
    39   20   37 1
    40   20   38 1
    41   39   40 1
@<TRIPOS>MOLECULE
ZINC13745123
   36    37     0     0     0
SMALL
USER_CHARGES
ethyl 3-(3,7-dimethyl-2,6-dioxo-purin-1-yl)propanoate
@<TRIPOS>ATOM
      1 C1         -8.6800    5.4398   -3.9556 C.3       1 <0>        -0.1540
      2 C2         -8.4312    4.1354   -3.1957 C.3       1 <0>         0.0615
      3 O1         -7.2733    4.2908   -2.3335 O.3       1 <0>        -0.3571
      4 C3         -6.9183    3.2292   -1.5927 C.2       1 <0>         0.4740
      5 O2         -7.5540    2.2041   -1.6623 O.2       1 <0>        -0.5043
      6 C4         -5.7267    3.3160   -0.6741 C.3       1 <0>        -0.1306
      7 C5         -5.5414    1.9801    0.0484 C.3       1 <0>         0.1282
      8 N1         -4.3831    2.0645    0.9414 N.am      1 <0>        -0.5497
      9 C6         -3.1610    1.7292    0.4780 C.2       1 <0>         0.5958
     10 O3         -3.0190    1.3592   -0.6737 O.2       1 <0>        -0.5092
     11 C7         -2.0481    1.8183    1.3417 C.2       1 <0>        -0.1561
     12 C8         -2.2402    2.2382    2.6520 C.2       1 <0>         0.3187
     13 N2         -1.0462    2.2280    3.2500 N.2       1 <0>        -0.4985
     14 C9         -0.1306    1.8271    2.4052 C.2       1 <0>         0.2695
     15 N3         -0.6984    1.5583    1.2133 N.pl3     1 <0>        -0.4119
     16 C10        -0.0127    1.0858    0.0080 C.3       1 <0>         0.0680
     17 N4         -3.5201    2.5679    3.0677 N.am      1 <0>        -0.5098
     18 C11        -4.5538    2.4743    2.2101 C.2       1 <0>         0.7074
     19 O4         -5.6700    2.7676    2.5931 O.2       1 <0>        -0.5284
     20 C12        -3.7489    3.0195    4.4424 C.3       1 <0>         0.0885
     21 H1         -9.5493    5.3231   -4.6028 H         1 <0>         0.0819
     22 H2         -8.8620    6.2456   -3.2445 H         1 <0>         0.0676
     23 H3         -7.8059    5.6800   -4.5610 H         1 <0>         0.0672
     24 H4         -8.2493    3.3296   -3.9068 H         1 <0>         0.0721
     25 H5         -9.3053    3.8952   -2.5903 H         1 <0>         0.0725
     26 H6         -5.8898    4.1060    0.0589 H         1 <0>         0.1146
     27 H7         -4.8338    3.5404   -1.2576 H         1 <0>         0.1125
     28 H8         -5.3783    1.1901   -0.6847 H         1 <0>         0.1137
     29 H9         -6.4344    1.7557    0.6318 H         1 <0>         0.1153
     30 H10         0.9211    1.7265    2.6296 H         1 <0>         0.2319
     31 H11         0.0021   -0.0041    0.0020 H         1 <0>         0.0883
     32 H12         1.0099    1.4631    0.0003 H         1 <0>         0.0988
     33 H13        -0.5399    1.4469   -0.8751 H         1 <0>         0.1008
     34 H14        -3.6506    4.1040    4.4897 H         1 <0>         0.0741
     35 H15        -4.7520    2.7316    4.7572 H         1 <0>         0.0941
     36 H16        -3.0145    2.5589    5.1032 H         1 <0>         0.0927
@<TRIPOS>BOND
     1    1    2 1
     2    1   21 1
     3    1   22 1
     4    1   23 1
     5    2    3 1
     6    2   24 1
     7    2   25 1
     8    3    4 1
     9    4    5 2
    10    4    6 1
    11    6    7 1
    12    6   26 1
    13    6   27 1
    14    7    8 1
    15    7   28 1
    16    7   29 1
    17    8   18 am
    18    8    9 am
    19    9   10 2
    20    9   11 1
    21   11   15 1
    22   11   12 2
    23   12   13 1
    24   12   17 1
    25   13   14 2
    26   14   15 1
    27   14   30 1
    28   15   16 1
    29   16   31 1
    30   16   32 1
    31   16   33 1
    32   17   18 am
    33   17   20 1
    34   18   19 2
    35   20   34 1
    36   20   35 1
    37   20   36 1
@<TRIPOS>MOLECULE
ZINC13745123
   37    38     0     0     0
SMALL
USER_CHARGES
ethyl 3-(3,7-dimethyl-2,6-dioxo-purin-1-yl)propanoate
@<TRIPOS>ATOM
      1 C1         -8.6800    5.4398   -3.9556 C.3       1 <0>        -0.1554
      2 C2         -8.4312    4.1354   -3.1957 C.3       1 <0>         0.0625
      3 O1         -7.2733    4.2908   -2.3335 O.3       1 <0>        -0.3555
      4 C3         -6.9183    3.2292   -1.5927 C.2       1 <0>         0.4717
      5 O2         -7.5540    2.2041   -1.6623 O.2       1 <0>        -0.5010
      6 C4         -5.7267    3.3160   -0.6741 C.3       1 <0>        -0.1323
      7 C5         -5.5414    1.9801    0.0484 C.3       1 <0>         0.1215
      8 N1         -4.3831    2.0645    0.9414 N.am      1 <0>        -0.5411
      9 C6         -3.1610    1.7292    0.4780 C.2       1 <0>         0.5901
     10 O3         -3.0190    1.3592   -0.6737 O.2       1 <0>        -0.4616
     11 C7         -2.0481    1.8183    1.3417 C.2       1 <0>        -0.0843
     12 C8         -2.2402    2.2382    2.6520 C.2       1 <0>         0.3496
     13 C9         -0.1306    1.8271    2.4052 C.cat     1 <0>         0.3423
     14 N2         -0.6984    1.5583    1.2133 N.pl3     1 <0>        -0.3480
     15 C10        -0.0127    1.0858    0.0080 C.3       1 <0>         0.0490
     16 N3         -3.5201    2.5679    3.0677 N.am      1 <0>        -0.5127
     17 C11        -4.5538    2.4743    2.2101 C.2       1 <0>         0.7083
     18 O4         -5.6700    2.7676    2.5931 O.2       1 <0>        -0.4782
     19 C12        -3.7489    3.0195    4.4424 C.3       1 <0>         0.0629
     20 H1         -9.5493    5.3231   -4.6028 H         1 <0>         0.0854
     21 H2         -8.8620    6.2456   -3.2445 H         1 <0>         0.0684
     22 H3         -7.8059    5.6800   -4.5610 H         1 <0>         0.0680
     23 H4         -8.2493    3.3296   -3.9068 H         1 <0>         0.0746
     24 H5         -9.3053    3.8952   -2.5903 H         1 <0>         0.0749
     25 H6         -5.8898    4.1060    0.0589 H         1 <0>         0.1159
     26 H7         -4.8338    3.5404   -1.2576 H         1 <0>         0.1142
     27 H8         -5.3783    1.1901   -0.6847 H         1 <0>         0.1247
     28 H9         -6.4344    1.7557    0.6318 H         1 <0>         0.1254
     29 H10         0.9211    1.7265    2.6296 H         1 <0>         0.2831
     30 H11         0.0021   -0.0041    0.0020 H         1 <0>         0.1218
     31 H12         1.0099    1.4631    0.0003 H         1 <0>         0.1272
     32 H13        -0.5399    1.4469   -0.8751 H         1 <0>         0.1280
     33 H14        -3.6506    4.1040    4.4897 H         1 <0>         0.0968
     34 H15        -4.7520    2.7316    4.7572 H         1 <0>         0.1206
     35 H16        -3.0145    2.5589    5.1032 H         1 <0>         0.0914
     36 N4         -1.0458    2.2285    3.2520 N.pl3     1 <0>        -0.4948
     37 H17        -0.8722    2.4952    4.2282 H         1 <0>         0.4869
@<TRIPOS>BOND
     1    1    2 1
     2    1   20 1
     3    1   21 1
     4    1   22 1
     5    2    3 1
     6    2   23 1
     7    2   24 1
     8    3    4 1
     9    4    5 2
    10    4    6 1
    11    6    7 1
    12    6   25 1
    13    6   26 1
    14    7    8 1
    15    7   27 1
    16    7   28 1
    17    8   17 am
    18    8    9 am
    19    9   10 2
    20    9   11 1
    21   11   14 1
    22   11   12 2
    23   12   16 1
    24   12   36 1
    25   13   14 1
    26   13   29 1
    27   13   36 2
    28   14   15 1
    29   15   30 1
    30   15   31 1
    31   15   32 1
    32   16   17 am
    33   16   19 1
    34   17   18 2
    35   19   33 1
    36   19   34 1
    37   19   35 1
    38   36   37 1
@<TRIPOS>MOLECULE
ZINC13800956
   40    41     0     0     0
SMALL
USER_CHARGES
ethyl 3-(6,7-dimethoxy-4-oxo-quinazolin-3-yl)propanoate
@<TRIPOS>ATOM
      1 C1          6.4302   -1.4469   -4.0099 C.3       1 <0>        -0.1545
      2 C2          5.9434   -1.1516   -2.5898 C.3       1 <0>         0.0619
      3 O1          4.7025   -0.4001   -2.6499 O.3       1 <0>        -0.3567
      4 C3          4.1395   -0.0587   -1.4802 C.2       1 <0>         0.4711
      5 O2          4.6662   -0.3772   -0.4405 O.2       1 <0>        -0.5049
      6 C4          2.8505    0.7219   -1.4638 C.3       1 <0>        -0.1330
      7 C5          2.4280    0.9784   -0.0158 C.3       1 <0>         0.1075
      8 N1          1.1749    1.7372    0.0002 N.am      1 <0>        -0.5478
      9 C6         -0.0126    1.0758    0.0080 C.2       1 <0>         0.3717
     10 N2         -1.1633    1.6763    0.0168 N.2       1 <0>        -0.5147
     11 C7         -1.2591    3.0303    0.0294 C.ar      1 <0>         0.1585
     12 C8         -2.4965    3.6739    0.0443 C.ar      1 <0>        -0.1729
     13 C9         -2.5508    5.0541    0.0508 C.ar      1 <0>         0.1555
     14 C10        -1.3762    5.8141    0.0435 C.ar      1 <0>         0.0916
     15 C11        -0.1439    5.1945    0.0293 C.ar      1 <0>        -0.1039
     16 C12        -0.0743    3.8010    0.0222 C.ar      1 <0>        -0.1918
     17 C13         1.2106    3.0899    0.0066 C.2       1 <0>         0.5500
     18 O3          2.2675    3.6944    0.0001 O.2       1 <0>        -0.5079
     19 O4         -1.4498    7.1721    0.0510 O.3       1 <0>        -0.3007
     20 C14        -0.2135    7.8889    0.0434 C.3       1 <0>         0.0223
     21 O5         -3.7562    5.6796    0.0648 O.3       1 <0>        -0.2970
     22 C15        -4.9184    4.8482    0.0716 C.3       1 <0>         0.0206
     23 H1          6.5987   -0.5088   -4.5387 H         1 <0>         0.0677
     24 H2          7.3617   -2.0110   -3.9647 H         1 <0>         0.0824
     25 H3          5.6767   -2.0314   -4.5380 H         1 <0>         0.0677
     26 H4          6.6968   -0.5671   -2.0617 H         1 <0>         0.0724
     27 H5          5.7748   -2.0897   -2.0610 H         1 <0>         0.0728
     28 H6          2.0738    0.1515   -1.9733 H         1 <0>         0.1148
     29 H7          2.9958    1.6741   -1.9740 H         1 <0>         0.1145
     30 H8          3.2047    1.5487    0.4937 H         1 <0>         0.1116
     31 H9          2.2827    0.0261    0.4944 H         1 <0>         0.1096
     32 H10         0.0021   -0.0041    0.0020 H         1 <0>         0.2037
     33 H11        -3.4085    3.0954    0.0500 H         1 <0>         0.1549
     34 H12         0.7610    5.7840    0.0234 H         1 <0>         0.1523
     35 H13         0.3665    7.6221    0.9269 H         1 <0>         0.0582
     36 H14         0.3504    7.6310   -0.8530 H         1 <0>         0.0581
     37 H15        -0.4146    8.9601    0.0506 H         1 <0>         0.1057
     38 H16        -4.9232    4.2231   -0.8213 H         1 <0>         0.0611
     39 H17        -4.9068    4.2148    0.9586 H         1 <0>         0.0611
     40 H18        -5.8118    5.4726    0.0828 H         1 <0>         0.1064
@<TRIPOS>BOND
     1    1    2 1
     2    1   23 1
     3    1   24 1
     4    1   25 1
     5    2    3 1
     6    2   26 1
     7    2   27 1
     8    3    4 1
     9    4    5 2
    10    4    6 1
    11    6    7 1
    12    6   28 1
    13    6   29 1
    14    7    8 1
    15    7   30 1
    16    7   31 1
    17    8   17 am
    18    8    9 1
    19    9   10 2
    20    9   32 1
    21   10   11 1
    22   11   16 ar
    23   11   12 ar
    24   12   13 ar
    25   12   33 1
    26   13   14 ar
    27   13   21 1
    28   14   15 ar
    29   14   19 1
    30   15   16 ar
    31   15   34 1
    32   16   17 1
    33   17   18 2
    34   19   20 1
    35   20   35 1
    36   20   36 1
    37   20   37 1
    38   21   22 1
    39   22   38 1
    40   22   39 1
    41   22   40 1
