@<TRIPOS>MOLECULE
ZINC13467799
   32    34     0     0     0
SMALL
USER_CHARGES
2-[4-(trifluoromethyl)phenyl]-1,5,7,8-tetrahydrothiopyrano[4,3-d]pyrimidin-4-one
@<TRIPOS>ATOM
      1 C1          1.8673    1.5790   -4.5984 C.ar      1 <0>        -0.0517
      2 C2          2.7027    1.5754   -5.6962 C.ar      1 <0>        -0.0718
      3 C3          2.2224    1.9577   -6.9361 C.ar      1 <0>        -0.1553
      4 C4          0.9011    2.3405   -7.0852 C.ar      1 <0>        -0.0679
      5 C5          0.0536    2.3428   -5.9967 C.ar      1 <0>        -0.0948
      6 C6          0.5317    1.9581   -4.7429 C.ar      1 <0>        -0.0424
      7 C7         -0.3708    1.9581   -3.5722 C.2       1 <0>         0.4306
      8 N1          0.1032    1.5834   -2.3619 N.2       1 <0>        -0.5342
      9 H1         -2.0024    2.6185   -4.7095 H         1 <0>         0.4466
     10 C8         -0.6989    1.5633   -1.2385 C.2       1 <0>         0.1845
     11 C9         -1.9687    1.9597   -1.3666 C.2       1 <0>        -0.2457
     12 C10        -2.4448    2.3323   -2.6626 C.2       1 <0>         0.5279
     13 O1         -3.6119    2.6636   -2.8051 O.2       1 <0>        -0.5262
     14 N2         -1.6274    2.3226   -3.7187 N.am      1 <0>        -0.6185
     15 C11        -2.9852    2.0589   -0.2571 C.3       1 <0>        -0.0194
     16 S1         -2.4595    1.0634    1.1659 S.3       1 <0>        -0.2410
     17 C12        -0.6997    1.5067    1.2901 C.3       1 <0>        -0.0854
     18 C13        -0.0126    1.0862    0.0081 C.3       1 <0>        -0.0732
     19 C14         3.1424    1.9577   -8.1296 C.3       1 <0>         0.5068
     20 F1          3.7604    3.2078   -8.2420 F         1 <0>        -0.1720
     21 F2          4.1180    0.9683   -7.9664 F         1 <0>        -0.1726
     22 F3          2.4032    1.6971   -9.2884 F         1 <0>        -0.1735
     23 H2          2.2447    1.2850   -3.6301 H         1 <0>         0.1585
     24 H3          3.7352    1.2781   -5.5867 H         1 <0>         0.1493
     25 H4          0.5324    2.6378   -8.0557 H         1 <0>         0.1488
     26 H5         -0.9775    2.6418   -6.1143 H         1 <0>         0.1379
     27 H6         -3.9550    1.6911   -0.6236 H         1 <0>         0.1245
     28 H7         -3.0836    3.1112    0.0478 H         1 <0>         0.1000
     29 H8         -0.6044    2.5935    1.4305 H         1 <0>         0.0920
     30 H9         -0.2499    0.9853    2.1479 H         1 <0>         0.1238
     31 H10         1.0100    1.4911   -0.0097 H         1 <0>         0.1070
     32 H11         0.0269   -0.0119   -0.0437 H         1 <0>         0.1074
@<TRIPOS>BOND
     1    1    6 ar
     2    1    2 ar
     3    1   23 1
     4    2    3 ar
     5    2   24 1
     6    3    4 ar
     7    3   19 1
     8    4    5 ar
     9    4   25 1
    10    5    6 ar
    11    5   26 1
    12    6    7 1
    13    7    8 2
    14    7   14 1
    15    8   10 1
    16    9   14 1
    17   10   11 2
    18   10   18 1
    19   11   12 1
    20   11   15 1
    21   12   13 2
    22   12   14 am
    23   15   16 1
    24   15   27 1
    25   15   28 1
    26   16   17 1
    27   17   18 1
    28   17   29 1
    29   17   30 1
    30   18   31 1
    31   18   32 1
    32   19   20 1
    33   19   21 1
    34   19   22 1
@<TRIPOS>MOLECULE
ZINC03964325
   57    59     0     0     0
SMALL
USER_CHARGES

@<TRIPOS>ATOM
      1 C1          0.1489    2.0884    0.1150 C.3       1 <0>        -0.1876
      2 C2          0.1348    0.5603    0.1888 C.3       1 <0>        -0.0191
      3 N1         -1.2520    0.0881    0.2979 N.4       1 <0>        -0.3822
      4 C3         -1.9779    0.4111   -0.9377 C.3       1 <0>        -0.0142
      5 C4         -3.4549    0.0484   -0.7712 C.3       1 <0>        -0.1895
      6 C5         -1.2593   -1.3663    0.5041 C.3       1 <0>        -0.0265
      7 C6         -0.6131   -1.6936    1.8518 C.3       1 <0>         0.0952
      8 N2         -0.6203   -3.1440    2.0575 N.am      1 <0>        -0.7289
      9 C7         -0.0988   -3.6675    3.1846 C.2       1 <0>         0.6111
     10 O1          0.3779   -2.9358    4.0309 O.2       1 <0>        -0.5184
     11 C8         -0.1061   -5.1270    3.3915 C.2       1 <0>        -0.2420
     12 C9          0.9071   -6.0320    3.0089 C.2       1 <0>        -0.0577
     13 C10         0.4868   -7.2892    3.3960 C.2       1 <0>        -0.0075
     14 N3         -0.7476   -7.1595    3.9982 N.pl3     1 <0>        -0.4910
     15 H1         -1.2731   -7.8879    4.3645 H         1 <0>         0.4270
     16 C11        -1.1044   -5.8642    4.0022 C.2       1 <0>         0.1158
     17 C12        -2.3825   -5.3072    4.5743 C.3       1 <0>        -0.0999
     18 C13         1.1957   -8.4957    3.2079 C.2       1 <0>         0.0729
     19 C14         0.5100   -9.6674    2.9570 C.2       1 <0>        -0.1889
     20 C15         1.0648  -11.0377    2.8871 C.ar      1 <0>        -0.0736
     21 C16         2.3472  -11.5557    3.0375 C.ar      1 <0>        -0.1000
     22 C17         2.5553  -12.9162    2.9116 C.ar      1 <0>         0.0861
     23 C18         1.4888  -13.7593    2.6366 C.ar      1 <0>        -0.1139
     24 C19         0.2139  -13.2531    2.4856 C.ar      1 <0>        -0.1021
     25 C20        -0.0144  -11.8871    2.6092 C.ar      1 <0>         0.1282
     26 N4         -1.1765  -11.1301    2.5069 N.am      1 <0>        -0.6466
     27 C21        -0.9294   -9.8245    2.7079 C.2       1 <0>         0.5595
     28 O2         -1.7538   -8.9280    2.6842 O.2       1 <0>        -0.5156
     29 F1          3.7984  -13.4252    3.0561 F         1 <0>        -0.1318
     30 C22         2.1990   -5.6919    2.3116 C.3       1 <0>        -0.0931
     31 H2          1.1793    2.4435    0.1331 H         1 <0>         0.1076
     32 H3         -0.3308    2.4121   -0.8087 H         1 <0>         0.0811
     33 H4         -0.3916    2.4984    0.9682 H         1 <0>         0.0809
     34 H5          0.5888    0.1488   -0.7126 H         1 <0>         0.1317
     35 H6          0.6996    0.2334    1.0619 H         1 <0>         0.1337
     36 H7         -1.8867    1.4775   -1.1444 H         1 <0>         0.1351
     37 H8         -1.5554   -0.1571   -1.7664 H         1 <0>         0.1307
     38 H9         -3.5537   -1.0316   -0.6617 H         1 <0>         0.0802
     39 H10        -3.8523    0.5414    0.1160 H         1 <0>         0.0808
     40 H11        -4.0109    0.3769   -1.6492 H         1 <0>         0.1074
     41 H12        -2.2871   -1.7292    0.4963 H         1 <0>         0.1397
     42 H13        -0.6973   -1.8494   -0.2952 H         1 <0>         0.1376
     43 H14         0.4147   -1.3306    1.8596 H         1 <0>         0.0893
     44 H15        -1.1751   -1.2105    2.6511 H         1 <0>         0.0890
     45 H16        -1.0005   -3.7277    1.3824 H         1 <0>         0.4099
     46 H17        -3.1529   -5.3000    3.8032 H         1 <0>         0.0840
     47 H18        -2.7087   -5.9289    5.4080 H         1 <0>         0.0782
     48 H19        -2.2103   -4.2898    4.9254 H         1 <0>         0.0840
     49 H20         2.2744   -8.5020    3.2604 H         1 <0>         0.1589
     50 H21         3.1765  -10.8977    3.2512 H         1 <0>         0.1436
     51 H22         1.6578  -14.8215    2.5394 H         1 <0>         0.1485
     52 H23        -0.6084  -13.9196    2.2712 H         1 <0>         0.1415
     53 H24        -2.0541  -11.4980    2.3189 H         1 <0>         0.4217
     54 H25         2.9686   -5.4822    3.0545 H         1 <0>         0.0785
     55 H26         2.5107   -6.5337    1.6932 H         1 <0>         0.0726
     56 H27         2.0522   -4.8138    1.6827 H         1 <0>         0.0634
     57 H28        -1.7009    0.5410    1.0799 H         1 <0>         0.4247
@<TRIPOS>BOND
     1    1    2 1
     2    1   31 1
     3    1   32 1
     4    1   33 1
     5    2    3 1
     6    2   34 1
     7    2   35 1
     8    3    4 1
     9    3    6 1
    10    3   57 1
    11    4    5 1
    12    4   36 1
    13    4   37 1
    14    5   38 1
    15    5   39 1
    16    5   40 1
    17    6    7 1
    18    6   41 1
    19    6   42 1
    20    7    8 1
    21    7   43 1
    22    7   44 1
    23    8    9 am
    24    8   45 1
    25    9   10 2
    26    9   11 1
    27   11   16 2
    28   11   12 1
    29   12   13 2
    30   12   30 1
    31   13   14 1
    32   13   18 1
    33   14   15 1
    34   14   16 1
    35   16   17 1
    36   17   46 1
    37   17   47 1
    38   17   48 1
    39   18   19 2
    40   18   49 1
    41   19   27 1
    42   19   20 1
    43   20   25 ar
    44   20   21 ar
    45   21   22 ar
    46   21   50 1
    47   22   23 ar
    48   22   29 1
    49   23   24 ar
    50   23   51 1
    51   24   25 ar
    52   24   52 1
    53   25   26 1
    54   26   27 am
    55   26   53 1
    56   27   28 2
    57   30   54 1
    58   30   55 1
    59   30   56 1
