@<TRIPOS>MOLECULE
ZINC13467799
   32    34     0     0     0
SMALL
USER_CHARGES
2-[4-(trifluoromethyl)phenyl]-1,5,7,8-tetrahydrothiopyrano[4,3-d]pyrimidin-4-one
@<TRIPOS>ATOM
      1 C1          1.8673    1.5790   -4.5984 C.ar      1 <0>        -0.0517
      2 C2          2.7027    1.5754   -5.6962 C.ar      1 <0>        -0.0718
      3 C3          2.2224    1.9577   -6.9361 C.ar      1 <0>        -0.1553
      4 C4          0.9011    2.3405   -7.0852 C.ar      1 <0>        -0.0679
      5 C5          0.0536    2.3428   -5.9967 C.ar      1 <0>        -0.0948
      6 C6          0.5317    1.9581   -4.7429 C.ar      1 <0>        -0.0424
      7 C7         -0.3708    1.9581   -3.5722 C.2       1 <0>         0.4306
      8 N1          0.1032    1.5834   -2.3619 N.2       1 <0>        -0.5342
      9 H1         -2.0024    2.6185   -4.7095 H         1 <0>         0.4466
     10 C8         -0.6989    1.5633   -1.2385 C.2       1 <0>         0.1845
     11 C9         -1.9687    1.9597   -1.3666 C.2       1 <0>        -0.2457
     12 C10        -2.4448    2.3323   -2.6626 C.2       1 <0>         0.5279
     13 O1         -3.6119    2.6636   -2.8051 O.2       1 <0>        -0.5262
     14 N2         -1.6274    2.3226   -3.7187 N.am      1 <0>        -0.6185
     15 C11        -2.9852    2.0589   -0.2571 C.3       1 <0>        -0.0194
     16 S1         -2.4595    1.0634    1.1659 S.3       1 <0>        -0.2410
     17 C12        -0.6997    1.5067    1.2901 C.3       1 <0>        -0.0854
     18 C13        -0.0126    1.0862    0.0081 C.3       1 <0>        -0.0732
     19 C14         3.1424    1.9577   -8.1296 C.3       1 <0>         0.5068
     20 F1          3.7604    3.2078   -8.2420 F         1 <0>        -0.1720
     21 F2          4.1180    0.9683   -7.9664 F         1 <0>        -0.1726
     22 F3          2.4032    1.6971   -9.2884 F         1 <0>        -0.1735
     23 H2          2.2447    1.2850   -3.6301 H         1 <0>         0.1585
     24 H3          3.7352    1.2781   -5.5867 H         1 <0>         0.1493
     25 H4          0.5324    2.6378   -8.0557 H         1 <0>         0.1488
     26 H5         -0.9775    2.6418   -6.1143 H         1 <0>         0.1379
     27 H6         -3.9550    1.6911   -0.6236 H         1 <0>         0.1245
     28 H7         -3.0836    3.1112    0.0478 H         1 <0>         0.1000
     29 H8         -0.6044    2.5935    1.4305 H         1 <0>         0.0920
     30 H9         -0.2499    0.9853    2.1479 H         1 <0>         0.1238
     31 H10         1.0100    1.4911   -0.0097 H         1 <0>         0.1070
     32 H11         0.0269   -0.0119   -0.0437 H         1 <0>         0.1074
@<TRIPOS>BOND
     1    1    6 ar
     2    1    2 ar
     3    1   23 1
     4    2    3 ar
     5    2   24 1
     6    3    4 ar
     7    3   19 1
     8    4    5 ar
     9    4   25 1
    10    5    6 ar
    11    5   26 1
    12    6    7 1
    13    7    8 2
    14    7   14 1
    15    8   10 1
    16    9   14 1
    17   10   11 2
    18   10   18 1
    19   11   12 1
    20   11   15 1
    21   12   13 2
    22   12   14 am
    23   15   16 1
    24   15   27 1
    25   15   28 1
    26   16   17 1
    27   17   18 1
    28   17   29 1
    29   17   30 1
    30   18   31 1
    31   18   32 1
    32   19   20 1
    33   19   21 1
    34   19   22 1
@<TRIPOS>MOLECULE
ZINC43206370
   45    48     0     0     0
SMALL
USER_CHARGES

@<TRIPOS>ATOM
      1 C1         -0.0168    1.3848    0.0097 C.ar      1 <0>        -0.1651
      2 C2          1.1177    2.1322    0.0028 C.ar      1 <0>        -0.0072
      3 C3          2.3826    1.5133   -0.0126 C.ar      1 <0>        -0.2024
      4 C4          3.6910    1.9652   -0.0227 C.2       1 <0>         0.0854
      5 N1          4.4959    0.8918   -0.0362 N.pl3     1 <0>        -0.2884
      6 N2          3.7292   -0.2794   -0.0351 N.2       1 <0>        -0.2654
      7 C5          2.4541    0.0429   -0.0212 C.ar      1 <0>         0.1465
      8 C6          1.1954   -0.7094   -0.0132 C.ar      1 <0>        -0.1276
      9 C7          0.0021   -0.0041    0.0020 C.ar      1 <0>        -0.0166
     10 C8          1.1989   -2.1810   -0.0217 C.2       1 <0>         0.5635
     11 O1          2.2538   -2.7866   -0.0355 O.2       1 <0>        -0.5282
     12 N3          0.0334   -2.8577   -0.0142 N.am      1 <0>        -0.8520
     13 C9          5.8958    0.9364   -0.0493 C.ar      1 <0>         0.1656
     14 C10         6.5530    2.1598   -0.0433 C.ar      1 <0>        -0.1303
     15 C11         7.9334    2.2005   -0.0563 C.ar      1 <0>        -0.0776
     16 C12         8.6611    1.0247   -0.0759 C.ar      1 <0>        -0.1078
     17 C13         8.0097   -0.1951   -0.0819 C.ar      1 <0>        -0.0887
     18 C14         6.6295   -0.2426   -0.0627 C.ar      1 <0>        -0.1020
     19 C15        10.1673    1.0728   -0.0911 C.3       1 <0>        -0.0584
     20 H1         10.4984    2.1113   -0.0840 H         1 <0>         0.1041
     21 C16        10.6884    0.3786   -1.3527 C.3       1 <0>        -0.1338
     22 C17        12.2194    0.3638   -1.3199 C.3       1 <0>        -0.1470
     23 C18        12.6900   -0.3300   -0.0398 C.3       1 <0>        -0.0095
     24 N4         12.1811    0.3960    1.1300 N.4       1 <0>        -0.5043
     25 C19        10.7140    0.3537    1.1441 C.3       1 <0>        -0.0066
     26 H2         -0.9709    1.8905    0.0261 H         1 <0>         0.1366
     27 H3          1.0489    3.2100    0.0089 H         1 <0>         0.1343
     28 H4          4.0075    2.9978   -0.0204 H         1 <0>         0.1929
     29 H5         -0.9323   -0.5457    0.0084 H         1 <0>         0.1380
     30 H6         -0.8078   -2.3748   -0.0032 H         1 <0>         0.4003
     31 H7          0.0357   -3.8277   -0.0198 H         1 <0>         0.4079
     32 H8          5.9852    3.0784   -0.0287 H         1 <0>         0.1397
     33 H9          8.4451    3.1515   -0.0516 H         1 <0>         0.1386
     34 H10         8.5808   -1.1116   -0.0975 H         1 <0>         0.1332
     35 H11         6.1213   -1.1955   -0.0629 H         1 <0>         0.1494
     36 H12        10.3146   -0.6448   -1.3863 H         1 <0>         0.0855
     37 H13        10.3479    0.9214   -2.2344 H         1 <0>         0.0972
     38 H14        12.5968   -0.1778   -2.1873 H         1 <0>         0.1147
     39 H15        12.5937    1.3873   -1.3379 H         1 <0>         0.0897
     40 H16        12.3154   -1.3534   -0.0230 H         1 <0>         0.1309
     41 H17        13.7796   -0.3424   -0.0134 H         1 <0>         0.1345
     42 H18        12.5370   -0.0323    1.9714 H         1 <0>         0.4334
     43 H19        10.3447    0.8461    2.0437 H         1 <0>         0.1364
     44 H20        10.3814   -0.6843    1.1365 H         1 <0>         0.1328
     45 H21        12.4879    1.3564    1.0882 H         1 <0>         0.4281
@<TRIPOS>BOND
     1    1    9 ar
     2    1    2 ar
     3    1   26 1
     4    2    3 ar
     5    2   27 1
     6    3    7 ar
     7    3    4 2
     8    4    5 1
     9    4   28 1
    10    5    6 1
    11    5   13 1
    12    6    7 2
    13    7    8 ar
    14    8    9 ar
    15    8   10 1
    16    9   29 1
    17   10   11 2
    18   10   12 am
    19   12   30 1
    20   12   31 1
    21   13   18 ar
    22   13   14 ar
    23   14   15 ar
    24   14   32 1
    25   15   16 ar
    26   15   33 1
    27   16   17 ar
    28   16   19 1
    29   17   18 ar
    30   17   34 1
    31   18   35 1
    32   19   20 1
    33   19   25 1
    34   19   21 1
    35   21   22 1
    36   21   36 1
    37   21   37 1
    38   22   23 1
    39   22   38 1
    40   22   39 1
    41   23   24 1
    42   23   40 1
    43   23   41 1
    44   24   25 1
    45   24   42 1
    46   24   45 1
    47   25   43 1
    48   25   44 1
@<TRIPOS>MOLECULE
ZINC40430143
   55    59     0     0     0
SMALL
USER_CHARGES

@<TRIPOS>ATOM
      1 C1         -0.0518    1.3844    0.1044 C.ar      1 <0>        -0.0871
      2 C2          1.1250    2.1221    0.1174 C.ar      1 <0>        -0.1100
      3 C3          2.3501    1.4921    0.1057 C.ar      1 <0>        -0.0544
      4 C4          2.4031    0.0991    0.0811 C.ar      1 <0>        -0.1253
      5 C5          1.2031   -0.6481    0.0685 C.ar      1 <0>        -0.0605
      6 C6         -0.0239    0.0180    0.0803 C.ar      1 <0>        -0.0976
      7 C7          1.2888   -2.1083    0.0421 C.2       1 <0>         0.1363
      8 N1          2.4504   -2.6913    0.0313 N.2       1 <0>        -0.2208
      9 N2          3.6506   -1.9802    0.0434 N.am      1 <0>        -0.5331
     10 H1          4.4888   -2.4684    0.0344 H         1 <0>         0.4373
     11 C8          3.6765   -0.6313    0.0672 C.2       1 <0>         0.5284
     12 O1          4.7364   -0.0310    0.0769 O.2       1 <0>        -0.5196
     13 C9          0.0300   -2.9367    0.0281 C.3       1 <0>        -0.0170
     14 C10         0.3915   -4.3995    0.0015 C.ar      1 <0>        -0.0901
     15 C11         0.5618   -5.0463   -1.2108 C.ar      1 <0>        -0.0510
     16 C12         0.8934   -6.3874   -1.2460 C.ar      1 <0>        -0.1523
     17 C13         1.0578   -7.0929   -0.0676 C.ar      1 <0>         0.1488
     18 C14         0.8874   -6.4446    1.1595 C.ar      1 <0>        -0.1630
     19 C15         0.5571   -5.0878    1.1844 C.ar      1 <0>        -0.0461
     20 C16         1.0605   -7.1896    2.4229 C.2       1 <0>         0.5673
     21 O2          2.0858   -7.8101    2.6271 O.2       1 <0>        -0.5171
     22 N3          0.0817   -7.1817    3.3493 N.am      1 <0>        -0.6081
     23 C17        -1.2136   -6.5487    3.0637 C.3       1 <0>         0.0905
     24 C18        -2.3250   -7.5792    3.2984 C.3       1 <0>         0.0968
     25 N4         -2.1164   -8.2038    4.6122 N.am      1 <0>        -0.6116
     26 C19        -0.8212   -8.8368    4.8979 C.3       1 <0>         0.0933
     27 C20         0.2883   -7.8113    4.6611 C.3       1 <0>         0.0961
     28 C21        -3.0952   -8.1959    5.5387 C.2       1 <0>         0.5483
     29 O3         -4.1598   -7.6701    5.2916 O.2       1 <0>        -0.5362
     30 C22        -2.8668   -8.8405    6.8816 C.3       1 <0>        -0.2013
     31 C23        -3.6546  -10.1136    7.1973 C.3       1 <0>        -0.1501
     32 C24        -4.0166   -8.7983    7.8901 C.3       1 <0>        -0.1455
     33 F1          1.3815   -8.4041   -0.1021 F         1 <0>        -0.1247
     34 H2         -1.0021    1.8974    0.1181 H         1 <0>         0.1370
     35 H3          1.0791    3.2009    0.1364 H         1 <0>         0.1377
     36 H4          3.2612    2.0720    0.1152 H         1 <0>         0.1436
     37 H5         -0.9463   -0.5436    0.0702 H         1 <0>         0.1422
     38 H6         -0.5554   -2.7233    0.9224 H         1 <0>         0.1095
     39 H7         -0.5566   -2.6913   -0.8573 H         1 <0>         0.1119
     40 H8          0.4346   -4.4999   -2.1337 H         1 <0>         0.1383
     41 H9          1.0240   -6.8857   -2.1953 H         1 <0>         0.1446
     42 H10         0.4276   -4.5798    2.1286 H         1 <0>         0.1358
     43 H11        -1.3586   -5.6965    3.7277 H         1 <0>         0.0794
     44 H12        -1.2369   -6.2154    2.0262 H         1 <0>         0.1021
     45 H13        -3.2948   -7.0819    3.2796 H         1 <0>         0.1086
     46 H14        -2.2870   -8.3418    2.5206 H         1 <0>         0.0745
     47 H15        -0.7979   -9.1702    5.9354 H         1 <0>         0.1036
     48 H16        -0.6762   -9.6890    4.2339 H         1 <0>         0.0784
     49 H17         1.2565   -8.3116    4.6783 H         1 <0>         0.1090
     50 H18         0.2526   -7.0511    5.4414 H         1 <0>         0.0770
     51 H19        -1.8519   -8.7664    7.2721 H         1 <0>         0.1261
     52 H20        -4.3380  -10.4849    6.4337 H         1 <0>         0.0998
     53 H21        -3.1578  -10.8774    7.7955 H         1 <0>         0.1066
     54 H22        -3.7581   -8.6969    8.9442 H         1 <0>         0.1051
     55 H23        -4.9382   -8.3044    7.5823 H         1 <0>         0.1086
@<TRIPOS>BOND
     1    1    6 ar
     2    1    2 ar
     3    1   34 1
     4    2    3 ar
     5    2   35 1
     6    3    4 ar
     7    3   36 1
     8    4   11 1
     9    4    5 ar
    10    5    6 ar
    11    5    7 1
    12    6   37 1
    13    7    8 2
    14    7   13 1
    15    8    9 1
    16    9   10 1
    17    9   11 am
    18   11   12 2
    19   13   14 1
    20   13   38 1
    21   13   39 1
    22   14   19 ar
    23   14   15 ar
    24   15   16 ar
    25   15   40 1
    26   16   17 ar
    27   16   41 1
    28   17   18 ar
    29   17   33 1
    30   18   19 ar
    31   18   20 1
    32   19   42 1
    33   20   21 2
    34   20   22 am
    35   22   27 1
    36   22   23 1
    37   23   24 1
    38   23   43 1
    39   23   44 1
    40   24   25 1
    41   24   45 1
    42   24   46 1
    43   25   26 1
    44   25   28 am
    45   26   27 1
    46   26   47 1
    47   26   48 1
    48   27   49 1
    49   27   50 1
    50   28   29 2
    51   28   30 1
    52   30   32 1
    53   30   31 1
    54   30   51 1
    55   31   32 1
    56   31   52 1
    57   31   53 1
    58   32   54 1
    59   32   55 1
