@<TRIPOS>MOLECULE
ZINC00752213
   41    44     0     0     0
SMALL
USER_CHARGES
5-(1H-indol-3-ylmethylene)-1-(o-tolyl)-2-thioxo-hexahydropyrimidine-4,6-dione
@<TRIPOS>ATOM
      1 C1         -2.2426    1.7746    0.7391 C.3       1 <0>        -0.1178
      2 C2         -0.8868    2.2752    0.3124 C.ar      1 <0>        -0.0447
      3 C3         -0.6323    3.6323    0.2711 C.ar      1 <0>        -0.1114
      4 C4          0.6096    4.0925   -0.1258 C.ar      1 <0>        -0.0922
      5 C5          1.6022    3.1961   -0.4780 C.ar      1 <0>        -0.1146
      6 C6          1.3555    1.8381   -0.4341 C.ar      1 <0>        -0.0770
      7 C7          0.1093    1.3728   -0.0354 C.ar      1 <0>         0.1141
      8 N1         -0.1441   -0.0044    0.0102 N.am      1 <0>        -0.4686
      9 C8          0.1057   -0.6830    1.1489 C.2       1 <0>         0.5612
     10 O1          0.5458   -0.1151    2.1310 O.2       1 <0>        -0.4609
     11 C9         -0.1690   -2.1303    1.1716 C.2       1 <0>        -0.3340
     12 C10         0.0628   -2.8938    2.3075 C.2       1 <0>         0.2068
     13 C11        -0.0251   -4.2995    2.2421 C.2       1 <0>        -0.2520
     14 C12         0.5070   -5.1220    1.2641 C.2       1 <0>         0.2063
     15 N2          0.2145   -6.4044    1.5463 N.pl3     1 <0>        -0.5620
     16 H1          0.4820   -7.1628    1.0039 H         1 <0>         0.4248
     17 C13        -0.5184   -6.4946    2.7133 C.ar      1 <0>         0.0739
     18 C14        -0.6982   -5.1931    3.2068 C.ar      1 <0>        -0.0557
     19 C15        -1.4148   -4.9828    4.3803 C.ar      1 <0>        -0.0874
     20 C16        -1.9375   -6.0604    5.0634 C.ar      1 <0>        -0.1222
     21 C17        -1.7564   -7.3477    4.5812 C.ar      1 <0>        -0.1048
     22 C18        -1.0533   -7.5690    3.4164 C.ar      1 <0>        -0.1121
     23 C19        -0.7011   -2.7319   -0.0640 C.2       1 <0>         0.5622
     24 O2         -0.9522   -3.9211   -0.1220 O.2       1 <0>        -0.4744
     25 N3         -0.9019   -1.9287   -1.1290 N.am      1 <0>        -0.6181
     26 C20        -0.6343   -0.6163   -1.0770 C.2       1 <0>         0.5337
     27 S1         -0.9270    0.3268   -2.4755 S.2       1 <0>        -0.4951
     28 H2         -2.2523    1.6274    1.8191 H         1 <0>         0.0749
     29 H3         -3.0028    2.5062    0.4653 H         1 <0>         0.0796
     30 H4         -2.4536    0.8280    0.2416 H         1 <0>         0.0555
     31 H5         -1.4056    4.3347    0.5452 H         1 <0>         0.1326
     32 H6          0.8048    5.1541   -0.1612 H         1 <0>         0.1308
     33 H7          2.5712    3.5586   -0.7880 H         1 <0>         0.1325
     34 H8          2.1310    1.1387   -0.7093 H         1 <0>         0.1240
     35 H9          0.3105   -2.4111    3.2414 H         1 <0>         0.1554
     36 H10         1.0707   -4.7858    0.4065 H         1 <0>         0.1797
     37 H11        -1.5565   -3.9807    4.7574 H         1 <0>         0.1266
     38 H12        -2.4899   -5.9012    5.9777 H         1 <0>         0.1293
     39 H13        -2.1698   -8.1851    5.1236 H         1 <0>         0.1308
     40 H14        -0.9175   -8.5758    3.0501 H         1 <0>         0.1251
     41 H15        -1.2520   -2.3089   -1.9499 H         1 <0>         0.4453
@<TRIPOS>BOND
     1    1    2 1
     2    1   28 1
     3    1   29 1
     4    1   30 1
     5    2    7 ar
     6    2    3 ar
     7    3    4 ar
     8    3   31 1
     9    4    5 ar
    10    4   32 1
    11    5    6 ar
    12    5   33 1
    13    6    7 ar
    14    6   34 1
    15    7    8 1
    16    8   26 1
    17    8    9 am
    18    9   10 2
    19    9   11 1
    20   11   12 2
    21   11   23 1
    22   12   13 1
    23   12   35 1
    24   13   18 1
    25   13   14 2
    26   14   15 1
    27   14   36 1
    28   15   16 1
    29   15   17 1
    30   17   22 ar
    31   17   18 ar
    32   18   19 ar
    33   19   20 ar
    34   19   37 1
    35   20   21 ar
    36   20   38 1
    37   21   22 ar
    38   21   39 1
    39   22   40 1
    40   23   24 2
    41   23   25 am
    42   25   26 1
    43   25   41 1
    44   26   27 2
@<TRIPOS>MOLECULE
ZINC13487545
   33    34     0     0     0
SMALL
USER_CHARGES
5-[(5-bromo-2-thienyl)methylene]-1,3-diethyl-2-thioxo-hexahydropyrimidine-4,6-dione
@<TRIPOS>ATOM
      1 C1         -1.2185    2.5258    1.7224 C.3       1 <0>        -0.1643
      2 C2         -1.2436    2.0728    0.2612 C.3       1 <0>         0.0869
      3 N1         -0.0082    1.3481   -0.0467 N.am      1 <0>        -0.5139
      4 C3          0.0356    0.0124    0.1366 C.2       1 <0>         0.5634
      5 O1         -0.9328   -0.5925    0.5577 O.2       1 <0>        -0.4652
      6 C4          1.2869   -0.6942   -0.1860 C.2       1 <0>        -0.2975
      7 C5          1.4062   -2.0705   -0.0220 C.2       1 <0>         0.1879
      8 C6          2.6613   -2.6851   -0.1432 C.2       1 <0>        -0.2399
      9 C7          3.0021   -3.8705   -0.8001 C.2       1 <0>        -0.0674
     10 C8          4.3168   -4.2425   -0.7643 C.2       1 <0>        -0.1468
     11 C9          5.2134   -3.4613   -0.0948 C.2       1 <0>        -0.2008
     12 S1          4.2377   -2.1613    0.5079 S.3       1 <0>         0.3171
     13 Br1         7.0722   -3.7320    0.1235 Br        1 <0>         0.0511
     14 C10         2.4065    0.1196   -0.6893 C.2       1 <0>         0.5511
     15 O2          3.4720   -0.3933   -0.9767 O.2       1 <0>        -0.4563
     16 N2          2.2194    1.4488   -0.8227 N.am      1 <0>        -0.5115
     17 C11         1.0512    2.0267   -0.5094 C.2       1 <0>         0.5267
     18 S2          0.9045    3.7205   -0.7107 S.2       1 <0>        -0.5083
     19 C12         3.3181    2.2798   -1.3213 C.3       1 <0>         0.0873
     20 C13         3.2387    2.3684   -2.8467 C.3       1 <0>        -0.1638
     21 H1         -1.1371    1.6541    2.3717 H         1 <0>         0.0574
     22 H2         -0.3628    3.1810    1.8850 H         1 <0>         0.0702
     23 H3         -2.1377    3.0650    1.9515 H         1 <0>         0.0847
     24 H4         -1.3249    2.9445   -0.3881 H         1 <0>         0.1276
     25 H5         -2.0993    1.4175    0.0986 H         1 <0>         0.1042
     26 H6          0.5325   -2.6659    0.1986 H         1 <0>         0.1756
     27 H7          2.2611   -4.4639   -1.3151 H         1 <0>         0.1543
     28 H8          4.6418   -5.1470   -1.2569 H         1 <0>         0.1478
     29 H9          3.2399    3.2798   -0.8947 H         1 <0>         0.1273
     30 H10         4.2703    1.8349   -1.0323 H         1 <0>         0.1040
     31 H11         3.3170    1.3685   -3.2733 H         1 <0>         0.0570
     32 H12         2.2866    2.8133   -3.1358 H         1 <0>         0.0701
     33 H13         4.0562    2.9867   -3.2177 H         1 <0>         0.0840
@<TRIPOS>BOND
     1    1    2 1
     2    1   21 1
     3    1   22 1
     4    1   23 1
     5    2    3 1
     6    2   24 1
     7    2   25 1
     8    3   17 1
     9    3    4 am
    10    4    5 2
    11    4    6 1
    12    6    7 2
    13    6   14 1
    14    7    8 1
    15    7   26 1
    16    8   12 1
    17    8    9 2
    18    9   10 1
    19    9   27 1
    20   10   11 2
    21   10   28 1
    22   11   12 1
    23   11   13 1
    24   14   15 2
    25   14   16 am
    26   16   17 1
    27   16   19 1
    28   17   18 2
    29   19   20 1
    30   19   29 1
    31   19   30 1
    32   20   31 1
    33   20   32 1
    34   20   33 1
@<TRIPOS>MOLECULE
ZINC00503641
   36    37     0     0     0
SMALL
USER_CHARGES

@<TRIPOS>ATOM
      1 C1          0.0684    0.8336   -0.5616 C.3       1 <0>        -0.1641
      2 C2          0.1517   -0.6029   -0.0415 C.3       1 <0>         0.0868
      3 N1         -1.1953   -1.1739    0.0334 N.am      1 <0>        -0.5142
      4 C3         -1.9089   -1.0324    1.1694 C.2       1 <0>         0.5637
      5 O1         -1.4483   -0.4389    2.1267 O.2       1 <0>        -0.4695
      6 C4         -3.2610   -1.6151    1.2197 C.2       1 <0>        -0.3125
      7 C5         -4.0549   -1.5087    2.3560 C.2       1 <0>         0.1995
      8 C6         -5.4045   -1.8930    2.3079 C.2       1 <0>        -0.2801
      9 C7         -6.1443   -2.6304    3.2361 C.2       1 <0>        -0.0542
     10 C8         -7.4559   -2.8480    2.9082 C.2       1 <0>        -0.2051
     11 C9         -7.9382   -2.3489    1.7386 C.2       1 <0>        -0.1932
     12 S1         -6.6238   -1.5608    1.0505 S.3       1 <0>         0.3197
     13 C10        -9.3358   -2.4699    1.1881 C.3       1 <0>        -0.0783
     14 C11        -3.7353   -2.3151    0.0133 C.2       1 <0>         0.5524
     15 O2         -4.8412   -2.8217   -0.0209 O.2       1 <0>        -0.4579
     16 N2         -2.9110   -2.3789   -1.0526 N.am      1 <0>        -0.5121
     17 C12        -1.6927   -1.8204   -1.0303 C.2       1 <0>         0.5299
     18 S2         -0.7176   -1.9455   -2.4319 S.2       1 <0>        -0.5166
     19 C13        -3.3596   -3.0699   -2.2640 C.3       1 <0>         0.0874
     20 C14        -4.0673   -2.0751   -3.1861 C.3       1 <0>        -0.1638
     21 H1          1.0707    1.2585   -0.6174 H         1 <0>         0.0842
     22 H2         -0.3826    0.8352   -1.5539 H         1 <0>         0.0697
     23 H3         -0.5421    1.4305    0.1159 H         1 <0>         0.0571
     24 H4          0.7622   -1.1998   -0.7191 H         1 <0>         0.1274
     25 H5          0.6027   -0.6044    0.9508 H         1 <0>         0.1037
     26 H6         -3.6336   -1.1305    3.2757 H         1 <0>         0.1692
     27 H7         -5.7102   -3.0043    4.1516 H         1 <0>         0.1474
     28 H8         -8.0991   -3.4093    3.5698 H         1 <0>         0.1368
     29 H9         -9.9371   -1.6297    1.5353 H         1 <0>         0.0845
     30 H10        -9.2989   -2.4646    0.0987 H         1 <0>         0.0775
     31 H11        -9.7823   -3.4029    1.5319 H         1 <0>         0.0845
     32 H12        -2.4985   -3.4945   -2.7800 H         1 <0>         0.1264
     33 H13        -4.0503   -3.8682   -1.9922 H         1 <0>         0.1032
     34 H14        -4.4011   -2.5893   -4.0875 H         1 <0>         0.0835
     35 H15        -4.9284   -1.6505   -2.6701 H         1 <0>         0.0568
     36 H16        -3.3767   -1.2769   -3.4579 H         1 <0>         0.0700
@<TRIPOS>BOND
     1    1    2 1
     2    1   21 1
     3    1   22 1
     4    1   23 1
     5    2    3 1
     6    2   24 1
     7    2   25 1
     8    3   17 1
     9    3    4 am
    10    4    5 2
    11    4    6 1
    12    6    7 2
    13    6   14 1
    14    7    8 1
    15    7   26 1
    16    8   12 1
    17    8    9 2
    18    9   10 1
    19    9   27 1
    20   10   11 2
    21   10   28 1
    22   11   12 1
    23   11   13 1
    24   13   29 1
    25   13   30 1
    26   13   31 1
    27   14   15 2
    28   14   16 am
    29   16   17 1
    30   16   19 1
    31   17   18 2
    32   19   20 1
    33   19   32 1
    34   19   33 1
    35   20   34 1
    36   20   35 1
    37   20   36 1
@<TRIPOS>MOLECULE
ZINC08202971
   40    42     0     0     0
SMALL
USER_CHARGES
1,3-diethyl-5-(1H-indol-3-ylmethylene)-2-thioxo-hexahydropyrimidine-4,6-dione
@<TRIPOS>ATOM
      1 C1          8.0882   -2.1201    1.8174 C.3       1 <0>        -0.1655
      2 C2          7.6729   -2.1372    0.3449 C.3       1 <0>         0.0838
      3 N1          6.2164   -2.0141    0.2469 N.am      1 <0>        -0.5137
      4 C3          5.6631   -0.7868    0.1604 C.2       1 <0>         0.5625
      5 O1          6.3569    0.2129    0.1625 O.2       1 <0>        -0.4757
      6 C4          4.1960   -0.6895    0.0627 C.2       1 <0>        -0.3376
      7 C5          3.5561    0.5388   -0.0294 C.2       1 <0>         0.2007
      8 C6          2.1763    0.5954   -0.3143 C.2       1 <0>        -0.2554
      9 C7          1.4955   -0.1271   -1.2789 C.2       1 <0>         0.2009
     10 N2          0.1908    0.1997   -1.2487 N.pl3     1 <0>        -0.5752
     11 H1         -0.5118   -0.2765   -1.9484 H         1 <0>         0.4524
     12 C8         -0.0552    1.1452   -0.2726 C.ar      1 <0>         0.0856
     13 C9          1.1650    1.4379    0.3561 C.ar      1 <0>        -0.0575
     14 C10         1.2140    2.3678    1.3893 C.ar      1 <0>        -0.0879
     15 C11         0.0577    3.0010    1.7933 C.ar      1 <0>        -0.1243
     16 C12        -1.1490    2.7140    1.1736 C.ar      1 <0>        -0.1064
     17 C13        -1.2118    1.7905    0.1522 C.ar      1 <0>        -0.1134
     18 C14         3.4375   -1.9528    0.0733 C.2       1 <0>         0.5631
     19 O2          2.2228   -1.9529    0.0016 O.2       1 <0>        -0.4737
     20 N3          4.1265   -3.1094    0.1583 N.am      1 <0>        -0.5141
     21 C15         5.4641   -3.1234    0.2447 C.2       1 <0>         0.5340
     22 S1          6.2533   -4.6384    0.3577 S.2       1 <0>        -0.5272
     23 C16         3.3956   -4.3791    0.1637 C.3       1 <0>         0.0863
     24 C17         3.0489   -4.7619    1.6039 C.3       1 <0>        -0.1656
     25 H2          9.1818   -2.2125    1.8910 H         1 <0>         0.0840
     26 H3          7.6129   -2.9619    2.3422 H         1 <0>         0.0698
     27 H4          7.7684   -1.1735    2.2776 H         1 <0>         0.0574
     28 H5          8.1482   -1.2954   -0.1799 H         1 <0>         0.1041
     29 H6          7.9927   -3.0837   -0.1153 H         1 <0>         0.1282
     30 H7          4.1254    1.4681    0.1199 H         1 <0>         0.1571
     31 H8          1.9431   -0.8427   -1.9527 H         1 <0>         0.1768
     32 H9          2.1531    2.5925    1.8731 H         1 <0>         0.1254
     33 H10         0.0921    3.7236    2.5953 H         1 <0>         0.1283
     34 H11        -2.0490    3.2157    1.4972 H         1 <0>         0.1298
     35 H12        -2.1578    1.5706   -0.3201 H         1 <0>         0.1241
     36 H13         2.4696   -4.2716   -0.4202 H         1 <0>         0.1014
     37 H14         4.0221   -5.1647   -0.2838 H         1 <0>         0.1278
     38 H15         2.5001   -5.7152    1.6079 H         1 <0>         0.0828
     39 H16         2.4224   -3.9763    2.0514 H         1 <0>         0.0566
     40 H17         3.9749   -4.8694    2.1878 H         1 <0>         0.0704
@<TRIPOS>BOND
     1    1    2 1
     2    1   25 1
     3    1   26 1
     4    1   27 1
     5    2    3 1
     6    2   28 1
     7    2   29 1
     8    3   21 1
     9    3    4 am
    10    4    5 2
    11    4    6 1
    12    6    7 2
    13    6   18 1
    14    7    8 1
    15    7   30 1
    16    8   13 1
    17    8    9 2
    18    9   10 1
    19    9   31 1
    20   10   11 1
    21   10   12 1
    22   12   17 ar
    23   12   13 ar
    24   13   14 ar
    25   14   15 ar
    26   14   32 1
    27   15   16 ar
    28   15   33 1
    29   16   17 ar
    30   16   34 1
    31   17   35 1
    32   18   19 2
    33   18   20 am
    34   20   21 1
    35   20   23 1
    36   21   22 2
    37   23   24 1
    38   23   36 1
    39   23   37 1
    40   24   38 1
    41   24   39 1
    42   24   40 1
@<TRIPOS>MOLECULE
ZINC01225749
   54    58     0     0     0
SMALL
USER_CHARGES
5-(1H-indol-3-ylmethylene)-1,3-bis(o-tolyl)-2-thioxo-hexahydropyrimidine-4,6-dione
@<TRIPOS>ATOM
      1 C1         -2.2574    2.9957   -0.9259 C.3       1 <0>        -0.1178
      2 C2         -0.9505    2.3926   -0.4793 C.ar      1 <0>        -0.0464
      3 C3          0.2126    3.1346   -0.5478 C.ar      1 <0>        -0.1110
      4 C4          1.4119    2.5822   -0.1378 C.ar      1 <0>        -0.0932
      5 C5          1.4512    1.2854    0.3414 C.ar      1 <0>        -0.1136
      6 C6          0.2920    0.5384    0.4119 C.ar      1 <0>        -0.0781
      7 C7         -0.9133    1.0885   -0.0045 C.ar      1 <0>         0.1183
      8 N1         -2.0901    0.3312    0.0603 N.am      1 <0>        -0.4700
      9 C8         -2.8392    0.3722    1.1814 C.2       1 <0>         0.5597
     10 O1         -2.5053    1.0555    2.1314 O.2       1 <0>        -0.4620
     11 C9         -4.0722   -0.4331    1.2249 C.2       1 <0>        -0.3308
     12 C10        -4.8934   -0.4407    2.3443 C.2       1 <0>         0.2049
     13 C11        -6.1561   -1.0655    2.2882 C.2       1 <0>        -0.2516
     14 C12        -7.0973   -0.9506    1.2797 C.2       1 <0>         0.2064
     15 N2         -8.1755   -1.6959    1.5832 N.pl3     1 <0>        -0.5620
     16 H1         -8.9661   -1.7733    1.0266 H         1 <0>         0.4244
     17 C13        -8.0040   -2.3350    2.7954 C.ar      1 <0>         0.0748
     18 C14        -6.7396   -1.9803    3.2906 C.ar      1 <0>        -0.0546
     19 C15        -6.3016   -2.4802    4.5124 C.ar      1 <0>        -0.0875
     20 C16        -7.1115   -3.3344    5.2304 C.ar      1 <0>        -0.1225
     21 C17        -8.3589   -3.6907    4.7410 C.ar      1 <0>        -0.1050
     22 C18        -8.8066   -3.1983    3.5338 C.ar      1 <0>        -0.1121
     23 C19        -4.3961   -1.2296    0.0285 C.2       1 <0>         0.5613
     24 O2         -5.3979   -1.9194   -0.0106 O.2       1 <0>        -0.4609
     25 N3         -3.5525   -1.1733   -1.0226 N.am      1 <0>        -0.4704
     26 C20        -2.4488   -0.4132   -0.9951 C.2       1 <0>         0.5221
     27 S1         -1.4399   -0.3982   -2.3782 S.2       1 <0>        -0.4773
     28 C21        -3.8397   -1.9217   -2.1715 C.ar      1 <0>         0.1212
     29 C22        -4.6076   -1.3688   -3.1881 C.ar      1 <0>        -0.0798
     30 C23        -4.8841   -2.1070   -4.3219 C.ar      1 <0>        -0.1145
     31 C24        -4.4072   -3.3998   -4.4406 C.ar      1 <0>        -0.0940
     32 C25        -3.6469   -3.9548   -3.4280 C.ar      1 <0>        -0.1106
     33 C26        -3.3620   -3.2195   -2.2938 C.ar      1 <0>        -0.0451
     34 C27        -2.5332   -3.8252   -1.1905 C.3       1 <0>        -0.1169
     35 H2         -2.4070    2.7939   -1.9865 H         1 <0>         0.0799
     36 H3         -3.0746    2.5565   -0.3536 H         1 <0>         0.0522
     37 H4         -2.2358    4.0728   -0.7605 H         1 <0>         0.0771
     38 H5          0.1851    4.1475   -0.9216 H         1 <0>         0.1321
     39 H6          2.3198    3.1646   -0.1917 H         1 <0>         0.1306
     40 H7          2.3896    0.8565    0.6606 H         1 <0>         0.1322
     41 H8          0.3233   -0.4742    0.7863 H         1 <0>         0.1231
     42 H9         -4.5650    0.0320    3.2581 H         1 <0>         0.1558
     43 H10        -6.9836   -0.3543    0.3865 H         1 <0>         0.1779
     44 H11        -5.3301   -2.2039    4.8949 H         1 <0>         0.1261
     45 H12        -6.7729   -3.7278    6.1775 H         1 <0>         0.1290
     46 H13        -8.9856   -4.3607    5.3108 H         1 <0>         0.1305
     47 H14        -9.7796   -3.4828    3.1615 H         1 <0>         0.1248
     48 H15        -4.9846   -0.3612   -3.0938 H         1 <0>         0.1223
     49 H16        -5.4778   -1.6762   -5.1146 H         1 <0>         0.1314
     50 H17        -4.6289   -3.9768   -5.3262 H         1 <0>         0.1300
     51 H18        -3.2756   -4.9645   -3.5236 H         1 <0>         0.1317
     52 H19        -3.1877   -4.3278   -0.4784 H         1 <0>         0.0739
     53 H20        -1.8355   -4.5472   -1.6148 H         1 <0>         0.0789
     54 H21        -1.9769   -3.0389   -0.6804 H         1 <0>         0.0552
@<TRIPOS>BOND
     1    1    2 1
     2    1   35 1
     3    1   36 1
     4    1   37 1
     5    2    7 ar
     6    2    3 ar
     7    3    4 ar
     8    3   38 1
     9    4    5 ar
    10    4   39 1
    11    5    6 ar
    12    5   40 1
    13    6    7 ar
    14    6   41 1
    15    7    8 1
    16    8   26 1
    17    8    9 am
    18    9   10 2
    19    9   11 1
    20   11   12 2
    21   11   23 1
    22   12   13 1
    23   12   42 1
    24   13   18 1
    25   13   14 2
    26   14   15 1
    27   14   43 1
    28   15   16 1
    29   15   17 1
    30   17   22 ar
    31   17   18 ar
    32   18   19 ar
    33   19   20 ar
    34   19   44 1
    35   20   21 ar
    36   20   45 1
    37   21   22 ar
    38   21   46 1
    39   22   47 1
    40   23   24 2
    41   23   25 am
    42   25   26 1
    43   25   28 1
    44   26   27 2
    45   28   33 ar
    46   28   29 ar
    47   29   30 ar
    48   29   48 1
    49   30   31 ar
    50   30   49 1
    51   31   32 ar
    52   31   50 1
    53   32   33 ar
    54   32   51 1
    55   33   34 1
    56   34   52 1
    57   34   53 1
    58   34   54 1
@<TRIPOS>MOLECULE
ZINC05030581
   43    45     0     0     0
SMALL
USER_CHARGES
1,3-diethyl-5-[(1-methylindol-3-yl)methylene]-2-thioxo-hexahydropyrimidine-4,6-dione
@<TRIPOS>ATOM
      1 C1         -7.1232    8.3202   -1.7944 C.3       1 <0>        -0.1638
      2 C2         -7.0056    7.9252   -0.3210 C.3       1 <0>         0.0868
      3 N1         -6.4250    6.5840   -0.2199 N.am      1 <0>        -0.5142
      4 C3         -5.0854    6.4504   -0.1345 C.2       1 <0>         0.5627
      5 O1         -4.3586    7.4263   -0.1402 O.2       1 <0>        -0.4749
      6 C4         -4.5260    5.0909   -0.0337 C.2       1 <0>        -0.3363
      7 C5         -3.1577    4.8756    0.0570 C.2       1 <0>         0.2045
      8 C6         -2.6645    3.5864    0.3448 C.2       1 <0>        -0.2518
      9 C7         -3.1313    2.7137    1.3126 C.2       1 <0>         0.2039
     10 N2         -2.4082    1.5796    1.2827 N.pl3     1 <0>        -0.4562
     11 C8         -1.4438    1.6392    0.2960 C.ar      1 <0>         0.0753
     12 C9         -1.5561    2.8870   -0.3367 C.ar      1 <0>        -0.0547
     13 C10        -0.7047    3.2186   -1.3854 C.ar      1 <0>        -0.0870
     14 C11         0.2547    2.3177   -1.7968 C.ar      1 <0>        -0.1233
     15 C12         0.3715    1.0866   -1.1698 C.ar      1 <0>        -0.1056
     16 C13        -0.4664    0.7459   -0.1296 C.ar      1 <0>        -0.1117
     17 C14        -2.6156    0.4368    2.1755 C.3       1 <0>         0.0664
     18 C15        -5.4821    3.9697   -0.0395 C.2       1 <0>         0.5626
     19 O2         -5.0955    2.8184    0.0358 O.2       1 <0>        -0.4725
     20 N3         -6.7979    4.2543   -0.1258 N.am      1 <0>        -0.5146
     21 C16        -7.2371    5.5176   -0.2147 C.2       1 <0>         0.5341
     22 S1         -8.9247    5.7831   -0.3270 S.2       1 <0>        -0.5268
     23 C17        -7.7688    3.1572   -0.1284 C.3       1 <0>         0.0893
     24 C18        -8.0218    2.7035   -1.5676 C.3       1 <0>        -0.1637
     25 H1         -6.1337    8.3172   -2.2515 H         1 <0>         0.0572
     26 H2         -7.7646    7.6067   -2.3118 H         1 <0>         0.0692
     27 H3         -7.5552    9.3181   -1.8697 H         1 <0>         0.0833
     28 H4         -7.9951    7.9282    0.1361 H         1 <0>         0.1264
     29 H5         -6.3642    8.6387    0.1964 H         1 <0>         0.1031
     30 H6         -2.4709    5.6955   -0.0930 H         1 <0>         0.1542
     31 H7         -3.9454    2.9157    1.9930 H         1 <0>         0.1756
     32 H8         -0.7945    4.1771   -1.8749 H         1 <0>         0.1260
     33 H9          0.9174    2.5719   -2.6108 H         1 <0>         0.1287
     34 H10         1.1260    0.3879   -1.4997 H         1 <0>         0.1301
     35 H11        -0.3669   -0.2159    0.3516 H         1 <0>         0.1229
     36 H12        -2.0040    0.5584    3.0695 H         1 <0>         0.0800
     37 H13        -3.6668    0.3832    2.4589 H         1 <0>         0.0910
     38 H14        -2.3305   -0.4816    1.6623 H         1 <0>         0.0899
     39 H15        -7.3754    2.3225    0.4518 H         1 <0>         0.1000
     40 H16        -8.7042    3.4987    0.3146 H         1 <0>         0.1260
     41 H17        -8.7441    1.8873   -1.5696 H         1 <0>         0.0820
     42 H18        -8.4152    3.5382   -2.1478 H         1 <0>         0.0698
     43 H19        -7.0863    2.3620   -2.0107 H         1 <0>         0.0563
@<TRIPOS>BOND
     1    1    2 1
     2    1   25 1
     3    1   26 1
     4    1   27 1
     5    2    3 1
     6    2   28 1
     7    2   29 1
     8    3   21 1
     9    3    4 am
    10    4    5 2
    11    4    6 1
    12    6    7 2
    13    6   18 1
    14    7    8 1
    15    7   30 1
    16    8   12 1
    17    8    9 2
    18    9   10 1
    19    9   31 1
    20   10   11 1
    21   10   17 1
    22   11   16 ar
    23   11   12 ar
    24   12   13 ar
    25   13   14 ar
    26   13   32 1
    27   14   15 ar
    28   14   33 1
    29   15   16 ar
    30   15   34 1
    31   16   35 1
    32   17   36 1
    33   17   37 1
    34   17   38 1
    35   18   19 2
    36   18   20 am
    37   20   21 1
    38   20   23 1
    39   21   22 2
    40   23   24 1
    41   23   39 1
    42   23   40 1
    43   24   41 1
    44   24   42 1
    45   24   43 1
