@<TRIPOS>MOLECULE
ZINC04099013
   49    53     0     0     0
SMALL
USER_CHARGES

@<TRIPOS>ATOM
      1 C1         -0.0187    1.5258    0.0104 C.3       1 <0>        -0.1487
      2 C2          0.0021   -0.0041    0.0020 C.3       1 <0>        -0.0955
      3 C3          0.7309   -0.5033    1.2229 C.ar      1 <0>         0.0146
      4 C4          2.1240   -0.7202    1.1971 C.ar      1 <0>        -0.0673
      5 C5          2.8764   -0.4787    0.0390 C.ar      1 <0>        -0.1298
      6 C6          4.2251   -0.7005    0.0513 C.ar      1 <0>         0.1273
      7 C7          4.8625   -1.1662    1.2061 C.ar      1 <0>        -0.1197
      8 C8          4.1605   -1.4095    2.3442 C.ar      1 <0>        -0.0662
      9 C9          2.7692   -1.1916    2.3695 C.ar      1 <0>         0.1310
     10 N1          2.0614   -1.4220    3.4756 N.ar      1 <0>        -0.4296
     11 C10         0.7536   -1.2209    3.5135 C.ar      1 <0>         0.1738
     12 C11         0.0647   -0.7516    2.3814 C.ar      1 <0>        -0.1564
     13 C12        -1.3859   -0.6324    2.7723 C.3       1 <0>         0.1449
     14 N2         -1.4753   -1.0521    4.1772 N.am      1 <0>        -0.4947
     15 C13        -0.2273   -1.4020    4.6090 C.2       1 <0>         0.1930
     16 C14        -0.0462   -1.8285    5.9077 C.2       1 <0>        -0.1451
     17 C15        -1.1412   -1.9284    6.7751 C.2       1 <0>         0.0375
     18 C16        -2.3835   -1.6044    6.3261 C.2       1 <0>        -0.2303
     19 C17        -2.5345   -1.1338    5.0052 C.2       1 <0>         0.5491
     20 O1         -3.6414   -0.8163    4.6011 O.2       1 <0>        -0.5315
     21 C18        -3.6096   -1.7246    7.1912 C.3       1 <0>         0.1435
     22 O2         -3.2499   -1.8210    8.5699 O.3       1 <0>        -0.3605
     23 C19        -2.2416   -2.6814    8.8378 C.2       1 <0>         0.4717
     24 O3         -2.4000   -3.6396    9.5566 O.2       1 <0>        -0.4236
     25 C20        -0.9064   -2.3855    8.1932 C.3       1 <0>         0.1371
     26 C21        -0.1926   -1.2816    8.9760 C.3       1 <0>        -0.1409
     27 C22         0.0444   -1.7477   10.4139 C.3       1 <0>        -0.1645
     28 O4         -0.1043   -3.5681    8.1885 O.3       1 <0>        -0.5232
     29 O5          4.9546   -0.4665   -1.0707 O.3       1 <0>        -0.4947
     30 H1          1.0039    1.9031    0.0027 H         1 <0>         0.0597
     31 H2         -0.5459    1.8868   -0.8726 H         1 <0>         0.0701
     32 H3         -0.5289    1.8773    0.9072 H         1 <0>         0.0587
     33 H4         -1.0205   -0.3814    0.0098 H         1 <0>         0.0857
     34 H5          0.5123   -0.3556   -0.8948 H         1 <0>         0.0876
     35 H6          2.3932   -0.1198   -0.8578 H         1 <0>         0.1440
     36 H7          5.9291   -1.3354    1.1930 H         1 <0>         0.1437
     37 H8          4.6682   -1.7694    3.2269 H         1 <0>         0.1482
     38 H9         -1.7170    0.4009    2.6691 H         1 <0>         0.1167
     39 H10        -1.9960   -1.2850    2.1478 H         1 <0>         0.1161
     40 H11         0.9427   -2.0865    6.2569 H         1 <0>         0.1639
     41 H12        -4.2390   -0.8467    7.0453 H         1 <0>         0.1351
     42 H13        -4.1663   -2.6161    6.9025 H         1 <0>         0.0921
     43 H14         0.7645   -1.0615    8.5030 H         1 <0>         0.0965
     44 H15        -0.8098   -0.3833    8.9823 H         1 <0>         0.0890
     45 H16        -0.9127   -1.9678   10.8869 H         1 <0>         0.0598
     46 H17         0.6617   -2.6460   10.4076 H         1 <0>         0.0644
     47 H18         0.5530   -0.9613   10.9716 H         1 <0>         0.0751
     48 H19         0.0861   -3.9177    9.0698 H         1 <0>         0.3947
     49 H20         5.3005    0.4343   -1.1342 H         1 <0>         0.3977
@<TRIPOS>BOND
     1    1    2 1
     2    1   30 1
     3    1   31 1
     4    1   32 1
     5    2    3 1
     6    2   33 1
     7    2   34 1
     8    3   12 ar
     9    3    4 ar
    10    4    9 ar
    11    4    5 ar
    12    5    6 ar
    13    5   35 1
    14    6    7 ar
    15    6   29 1
    16    7    8 ar
    17    7   36 1
    18    8    9 ar
    19    8   37 1
    20    9   10 ar
    21   10   11 ar
    22   11   15 1
    23   11   12 ar
    24   12   13 1
    25   13   14 1
    26   13   38 1
    27   13   39 1
    28   14   19 am
    29   14   15 1
    30   15   16 2
    31   16   17 1
    32   16   40 1
    33   17   25 1
    34   17   18 2
    35   18   19 1
    36   18   21 1
    37   19   20 2
    38   21   22 1
    39   21   41 1
    40   21   42 1
    41   22   23 1
    42   23   24 2
    43   23   25 1
    44   25   26 1
    45   25   28 1
    46   26   27 1
    47   26   43 1
    48   26   44 1
    49   27   45 1
    50   27   46 1
    51   27   47 1
    52   28   48 1
    53   29   49 1
