@<TRIPOS>MOLECULE
ZINC49877340
  112   115     0     0     0
SMALL
USER_CHARGES

@<TRIPOS>ATOM
      1 C1         -1.6429    2.2688   -1.9966 C.3       1 <0>        -0.1543
      2 C2         -1.5165    0.7582   -1.7889 C.3       1 <0>        -0.1263
      3 C3         -0.6456    0.1622   -2.8966 C.3       1 <0>        -0.1211
      4 C4         -0.5192   -1.3484   -2.6889 C.3       1 <0>        -0.1216
      5 C5          0.3518   -1.9444   -3.7966 C.3       1 <0>        -0.1202
      6 C6          0.4782   -3.4550   -3.5889 C.3       1 <0>        -0.1202
      7 C7          1.3491   -4.0510   -4.6966 C.3       1 <0>        -0.1196
      8 C8          1.4755   -5.5615   -4.4889 C.3       1 <0>        -0.1090
      9 C9          2.3465   -6.1576   -5.5966 C.3       1 <0>        -0.1140
     10 C10         2.4710   -7.6454   -5.3920 C.2       1 <0>         0.4544
     11 O1          1.9197   -8.1748   -4.4562 O.2       1 <0>        -0.4950
     12 O2          3.1944   -8.3826   -6.2494 O.3       1 <0>        -0.3442
     13 C11         3.2697   -9.7949   -5.9931 C.3       1 <0>         0.1302
     14 H1          2.3200  -10.0738   -5.4918 H         1 <0>         0.1035
     15 C12         4.4087  -10.0781   -5.0354 C.3       1 <0>        -0.1272
     16 H2          5.2940   -9.4967   -5.2972 H         1 <0>         0.0929
     17 C13         4.7903  -11.5511   -4.9047 C.3       1 <0>         0.1862
     18 C14         5.0682  -12.2472   -6.2136 C.3       1 <0>        -0.0177
     19 H3          6.1173  -12.1358   -6.4554 H         1 <0>         0.0996
     20 C15         4.7924  -13.7292   -6.1225 C.2       1 <0>        -0.1144
     21 C16         4.9510  -14.4948   -5.0998 C.2       1 <0>        -0.1110
     22 C17         5.4279  -14.0772   -3.7462 C.3       1 <0>        -0.0870
     23 C18         6.5423  -13.0555   -3.7795 C.3       1 <0>         0.1030
     24 C19         6.0302  -11.6277   -4.0047 C.3       1 <0>        -0.0935
     25 H4          5.8836  -11.1165   -3.0438 H         1 <0>         0.1232
     26 C20         7.1714  -10.9834   -4.7872 C.2       1 <0>        -0.0892
     27 C21         7.9675  -11.9211   -5.2889 C.2       1 <0>        -0.2001
     28 C22         7.5295  -13.2673   -4.9033 C.2       1 <0>         0.3772
     29 O3          7.8917  -14.3228   -5.3810 O.2       1 <0>        -0.4110
     30 C23         9.1727  -11.6379   -6.1505 C.3       1 <0>        -0.1045
     31 O4          7.2583  -13.1065   -2.5234 O.3       1 <0>        -0.5393
     32 C24         4.6190  -15.9605   -5.2897 C.3       1 <0>         0.1126
     33 O5          4.1804  -16.1795   -6.6319 O.3       1 <0>        -0.5686
     34 C25         4.2692  -11.7590   -7.4028 C.3       1 <0>        -0.1159
     35 H5          3.8752  -12.5787   -8.0215 H         1 <0>         0.1147
     36 C26         3.3549  -10.5520   -7.3030 C.3       1 <0>         0.0648
     37 C27         4.6099  -10.4949   -8.1713 C.3       1 <0>        -0.0732
     38 C28         4.3883  -10.5384   -9.6967 C.3       1 <0>        -0.1157
     39 C29         5.8071   -9.6551   -7.7464 C.3       1 <0>        -0.1273
     40 O6          2.0999  -10.6507   -8.0099 O.3       1 <0>        -0.3212
     41 C30         1.1248  -11.3631   -7.4238 C.2       1 <0>         0.4432
     42 O7          1.3484  -11.9657   -6.4007 O.2       1 <0>        -0.4711
     43 C31        -0.2487  -11.4114   -8.0419 C.3       1 <0>        -0.1130
     44 C32        -1.1644  -12.2851   -7.1822 C.3       1 <0>        -0.1074
     45 C33        -2.5590  -12.3340   -7.8098 C.3       1 <0>        -0.1191
     46 C34        -3.4747  -13.2077   -6.9501 C.3       1 <0>        -0.1198
     47 C35        -4.8692  -13.2567   -7.5776 C.3       1 <0>        -0.1199
     48 C36        -5.7849  -14.1304   -6.7180 C.3       1 <0>        -0.1215
     49 C37        -7.1794  -14.1794   -7.3455 C.3       1 <0>        -0.1209
     50 C38        -8.0951  -15.0531   -6.4859 C.3       1 <0>        -0.1263
     51 C39        -9.4897  -15.1021   -7.1134 C.3       1 <0>        -0.1542
     52 O8          3.6833  -12.2009   -4.2651 O.3       1 <0>        -0.5265
     53 C40         3.9603   -9.5777   -3.6421 C.3       1 <0>        -0.1659
     54 H6         -0.6530    2.7239   -1.9651 H         1 <0>         0.0533
     55 H7         -2.1024    2.4651   -2.9654 H         1 <0>         0.0533
     56 H8         -2.2634    2.6934   -1.2075 H         1 <0>         0.0535
     57 H9         -1.0571    0.5619   -0.8202 H         1 <0>         0.0603
     58 H10        -2.5064    0.3030   -1.8205 H         1 <0>         0.0603
     59 H11        -1.1050    0.3585   -3.8654 H         1 <0>         0.0606
     60 H12         0.3443    0.6174   -2.8651 H         1 <0>         0.0606
     61 H13        -0.0597   -1.5447   -1.7202 H         1 <0>         0.0608
     62 H14        -1.5091   -1.8036   -2.7205 H         1 <0>         0.0609
     63 H15        -0.1077   -1.7481   -4.7654 H         1 <0>         0.0612
     64 H16         1.3417   -1.4892   -3.7651 H         1 <0>         0.0611
     65 H17         0.9376   -3.6513   -2.6202 H         1 <0>         0.0624
     66 H18        -0.5117   -3.9101   -3.6205 H         1 <0>         0.0624
     67 H19         0.8897   -3.8546   -5.6654 H         1 <0>         0.0646
     68 H20         2.3391   -3.5958   -4.6651 H         1 <0>         0.0645
     69 H21         1.9350   -5.7579   -3.5202 H         1 <0>         0.0719
     70 H22         0.4856   -6.0167   -4.5205 H         1 <0>         0.0718
     71 H23         1.8870   -5.9612   -6.5654 H         1 <0>         0.1058
     72 H24         3.3364   -5.7024   -5.5651 H         1 <0>         0.1054
     73 H25         4.4195  -14.1995   -7.0283 H         1 <0>         0.1225
     74 H26         4.5983  -13.7241   -3.1384 H         1 <0>         0.1058
     75 H27         5.8120  -14.9812   -3.2383 H         1 <0>         0.0672
     76 H28         7.3084   -9.9196   -4.9101 H         1 <0>         0.1514
     77 H29        10.0521  -11.5191   -5.5176 H         1 <0>         0.0756
     78 H30         9.3301  -12.4679   -6.8392 H         1 <0>         0.0731
     79 H31         9.0067  -10.7218   -6.7175 H         1 <0>         0.0726
     80 H32         7.6478  -13.9697   -2.3274 H         1 <0>         0.3855
     81 H33         5.5066  -16.5623   -5.0946 H         1 <0>         0.0542
     82 H34         3.8270  -16.2462   -4.5974 H         1 <0>         0.0545
     83 H35         3.9501  -17.0986   -6.8254 H         1 <0>         0.3804
     84 H36         3.8650  -11.4571   -9.9618 H         1 <0>         0.0597
     85 H37         3.7912   -9.6791  -10.0018 H         1 <0>         0.0694
     86 H38         5.3522  -10.5098  -10.2048 H         1 <0>         0.0658
     87 H39         6.5850   -9.7203   -8.5071 H         1 <0>         0.0736
     88 H40         5.4990   -8.6161   -7.6298 H         1 <0>         0.0747
     89 H41         6.1941  -10.0279   -6.7980 H         1 <0>         0.0621
     90 H42        -0.6574  -10.4024   -8.0984 H         1 <0>         0.1015
     91 H43        -0.1812  -11.8327   -9.0449 H         1 <0>         0.1032
     92 H44        -0.7558  -13.2940   -7.1257 H         1 <0>         0.0726
     93 H45        -1.2320  -11.8637   -6.1792 H         1 <0>         0.0712
     94 H46        -2.9676  -11.3251   -7.8663 H         1 <0>         0.0635
     95 H47        -2.4915  -12.7554   -8.8128 H         1 <0>         0.0641
     96 H48        -3.0660  -14.2167   -6.8936 H         1 <0>         0.0624
     97 H49        -3.5422  -12.7864   -5.9471 H         1 <0>         0.0622
     98 H50        -5.2778  -12.2478   -7.6341 H         1 <0>         0.0608
     99 H51        -4.8017  -13.6781   -8.5806 H         1 <0>         0.0610
    100 H52        -5.3763  -15.1394   -6.6615 H         1 <0>         0.0608
    101 H53        -5.8524  -13.7091   -5.7150 H         1 <0>         0.0608
    102 H54        -7.5881  -13.1705   -7.4020 H         1 <0>         0.0605
    103 H55        -7.1119  -14.6008   -8.3485 H         1 <0>         0.0605
    104 H56        -7.6865  -16.0620   -6.4293 H         1 <0>         0.0603
    105 H57        -8.1626  -14.6318   -5.4829 H         1 <0>         0.0603
    106 H58        -9.8983  -14.0932   -7.1699 H         1 <0>         0.0533
    107 H59        -9.4221  -15.5235   -8.1164 H         1 <0>         0.0533
    108 H60       -10.1420  -15.7245   -6.5009 H         1 <0>         0.0534
    109 H61         3.4764  -11.8524   -3.3872 H         1 <0>         0.3702
    110 H62         3.0589  -10.1097   -3.3378 H         1 <0>         0.0719
    111 H63         4.7532   -9.7621   -2.9173 H         1 <0>         0.0622
    112 H64         3.7527   -8.5087   -3.6895 H         1 <0>         0.0697
@<TRIPOS>BOND
     1    1    2 1
     2    1   54 1
     3    1   55 1
     4    1   56 1
     5    2    3 1
     6    2   57 1
     7    2   58 1
     8    3    4 1
     9    3   59 1
    10    3   60 1
    11    4    5 1
    12    4   61 1
    13    4   62 1
    14    5    6 1
    15    5   63 1
    16    5   64 1
    17    6    7 1
    18    6   65 1
    19    6   66 1
    20    7    8 1
    21    7   67 1
    22    7   68 1
    23    8    9 1
    24    8   69 1
    25    8   70 1
    26    9   10 1
    27    9   71 1
    28    9   72 1
    29   10   11 2
    30   10   12 1
    31   12   13 1
    32   13   14 1
    33   13   36 1
    34   13   15 1
    35   15   16 1
    36   15   17 1
    37   15   53 1
    38   17   24 1
    39   17   18 1
    40   17   52 1
    41   18   19 1
    42   18   20 1
    43   18   34 1
    44   20   21 2
    45   20   73 1
    46   21   22 1
    47   21   32 1
    48   22   23 1
    49   22   74 1
    50   22   75 1
    51   23   28 1
    52   23   24 1
    53   23   31 1
    54   24   25 1
    55   24   26 1
    56   26   27 2
    57   26   76 1
    58   27   28 1
    59   27   30 1
    60   28   29 2
    61   30   77 1
    62   30   78 1
    63   30   79 1
    64   31   80 1
    65   32   33 1
    66   32   81 1
    67   32   82 1
    68   33   83 1
    69   34   35 1
    70   34   37 1
    71   34   36 1
    72   36   37 1
    73   36   40 1
    74   37   38 1
    75   37   39 1
    76   38   84 1
    77   38   85 1
    78   38   86 1
    79   39   87 1
    80   39   88 1
    81   39   89 1
    82   40   41 1
    83   41   42 2
    84   41   43 1
    85   43   44 1
    86   43   90 1
    87   43   91 1
    88   44   45 1
    89   44   92 1
    90   44   93 1
    91   45   46 1
    92   45   94 1
    93   45   95 1
    94   46   47 1
    95   46   96 1
    96   46   97 1
    97   47   48 1
    98   47   98 1
    99   47   99 1
   100   48   49 1
   101   48  100 1
   102   48  101 1
   103   49   50 1
   104   49  102 1
   105   49  103 1
   106   50   51 1
   107   50  104 1
   108   50  105 1
   109   51  106 1
   110   51  107 1
   111   51  108 1
   112   52  109 1
   113   53  110 1
   114   53  111 1
   115   53  112 1
