@<TRIPOS>MOLECULE
ZINC13487644
   72    75     0     0     0
SMALL
USER_CHARGES
3-[3-[[[4-[(1-ethanimidoyl-4-piperidyl)oxy]phenyl]-methylsulfonyl-amino]methyl]phenyl]benzamidine
@<TRIPOS>ATOM
      1 C1          5.7882    2.7895   10.1474 C.3       1 <0>        -0.1584
      2 C2          4.8180    3.9411   10.2053 C.cat     1 <0>         0.5315
      3 N1          4.3991    4.5428    9.0479 N.pl3     1 <0>        -0.5660
      4 C3          4.9785    4.1600    7.7531 C.3       1 <0>         0.0989
      5 C4          5.4907    5.4209    7.0498 C.3       1 <0>        -0.1364
      6 C5          4.3556    6.4429    6.9531 C.3       1 <0>         0.0855
      7 C6          3.8932    6.8285    8.3600 C.3       1 <0>        -0.1718
      8 C7          3.3626    5.5836    9.0779 C.3       1 <0>         0.0894
      9 O1          4.8211    7.6079    6.2689 O.3       1 <0>        -0.2995
     10 C8          3.8848    8.3757    5.6497 C.ar      1 <0>         0.1193
     11 C9          2.5378    8.0787    5.7958 C.ar      1 <0>        -0.1888
     12 C10         1.5863    8.8572    5.1666 C.ar      1 <0>        -0.1015
     13 C11         1.9785    9.9379    4.3878 C.ar      1 <0>         0.1302
     14 C12         3.3274   10.2314    4.2377 C.ar      1 <0>        -0.0757
     15 C13         4.2773    9.4549    4.8719 C.ar      1 <0>        -0.1232
     16 N2          1.0150   10.7274    3.7499 N.pl3     1 <0>        -0.9427
     17 C14         1.0389   10.8776    2.2929 C.3       1 <0>         0.1441
     18 C15         0.3652    9.6904    1.6544 C.ar      1 <0>        -0.1036
     19 C16        -0.9844    9.7409    1.3547 C.ar      1 <0>        -0.0997
     20 C17        -1.6091    8.6548    0.7692 C.ar      1 <0>        -0.1091
     21 C18        -0.8880    7.5137    0.4806 C.ar      1 <0>        -0.0995
     22 C19         0.4714    7.4574    0.7798 C.ar      1 <0>        -0.0705
     23 C20         1.0946    8.5527    1.3746 C.ar      1 <0>        -0.0759
     24 C21         1.2517    6.2332    0.4719 C.ar      1 <0>        -0.0203
     25 C22         2.6125    6.1787    0.7711 C.ar      1 <0>        -0.0520
     26 C23         3.3406    5.0407    0.4849 C.ar      1 <0>        -0.1048
     27 C24         2.7266    3.9502   -0.0989 C.ar      1 <0>        -0.0622
     28 C25         1.3659    3.9931   -0.4033 C.ar      1 <0>        -0.1470
     29 C26         0.6271    5.1386   -0.1166 C.ar      1 <0>        -0.0645
     30 C27         0.7083    2.8235   -1.0303 C.cat     1 <0>         0.5990
     31 N3          1.4406    1.6913   -1.3132 N.pl3     1 <0>        -0.7784
     32 S1         -0.1519   11.4918    4.6421 S.o2      1 <0>         2.5950
     33 O2          0.4558   11.7326    5.9038 O.2       1 <0>        -0.9348
     34 O3         -0.5813   12.5735    3.8267 O.2       1 <0>        -0.9367
     35 C28        -1.4829   10.2711    4.8125 C.3       1 <0>        -0.6768
     36 H1          6.8064    3.1747   10.0922 H         1 <0>         0.1354
     37 H2          5.6794    2.1773   11.0427 H         1 <0>         0.1243
     38 H3          5.5807    2.1836    9.2655 H         1 <0>         0.1241
     39 H4          4.6182    4.0006   12.2219 H         1 <0>         0.4589
     40 H5          4.2154    3.6830    7.1380 H         1 <0>         0.1040
     41 H6          5.8062    3.4691    7.9130 H         1 <0>         0.1185
     42 H7          5.8356    5.1642    6.0483 H         1 <0>         0.1083
     43 H8          6.3157    5.8464    7.6213 H         1 <0>         0.0921
     44 H9          3.5212    6.0078    6.4031 H         1 <0>         0.0824
     45 H10         4.7333    7.2407    8.9189 H         1 <0>         0.0934
     46 H11         3.1009    7.5740    8.2911 H         1 <0>         0.1063
     47 H12         2.4676    5.2228    8.5709 H         1 <0>         0.1102
     48 H13         3.1222    5.8302   10.1122 H         1 <0>         0.0970
     49 H14         2.2330    7.2381    6.4016 H         1 <0>         0.1299
     50 H15         0.5376    8.6254    5.2799 H         1 <0>         0.1252
     51 H16         3.6335   11.0689    3.6283 H         1 <0>         0.1422
     52 H17         5.3263    9.6855    4.7587 H         1 <0>         0.1414
     53 H18         2.0721   10.9366    1.9505 H         1 <0>         0.1022
     54 H19         0.5107   11.7890    2.0128 H         1 <0>         0.1201
     55 H20        -1.5524   10.6317    1.5791 H         1 <0>         0.1357
     56 H21        -2.6630    8.6995    0.5376 H         1 <0>         0.1357
     57 H22        -1.3770    6.6658    0.0239 H         1 <0>         0.1229
     58 H23         2.1472    8.5126    1.6132 H         1 <0>         0.1294
     59 H24         3.0982    7.0286    1.2274 H         1 <0>         0.1461
     60 H25         4.3944    5.0035    0.7184 H         1 <0>         0.1502
     61 H26         3.3009    3.0629   -0.3205 H         1 <0>         0.1391
     62 H27        -0.4256    5.1783   -0.3545 H         1 <0>         0.1368
     63 H28        -1.0826    2.1504   -1.7256 H         1 <0>         0.4466
     64 H29         2.3867    1.6601   -1.1017 H         1 <0>         0.4430
     65 H30         1.0099    0.9252   -1.7238 H         1 <0>         0.4332
     66 H31        -1.1420    9.4471    5.4393 H         1 <0>         0.1266
     67 H32        -2.3515   10.7424    5.2724 H         1 <0>         0.1380
     68 H33        -1.7549    9.8904    3.8280 H         1 <0>         0.1300
     69 N4          4.3367    4.4149   11.3333 N.pl3     1 <0>        -0.7632
     70 H34         3.6775    5.2020   11.3198 H         1 <0>         0.4398
     71 N5         -0.5848    2.9292   -1.2940 N.pl3     1 <0>        -0.7584
     72 H35        -1.0866    3.7950   -1.0641 H         1 <0>         0.4592
@<TRIPOS>BOND
     1    1    2 1
     2    1   36 1
     3    1   37 1
     4    1   38 1
     5    2    3 1
     6    2   69 2
     7    3    8 1
     8    3    4 1
     9    4    5 1
    10    4   40 1
    11    4   41 1
    12    5    6 1
    13    5   42 1
    14    5   43 1
    15    6    7 1
    16    6    9 1
    17    6   44 1
    18    7    8 1
    19    7   45 1
    20    7   46 1
    21    8   47 1
    22    8   48 1
    23    9   10 1
    24   10   15 ar
    25   10   11 ar
    26   11   12 ar
    27   11   49 1
    28   12   13 ar
    29   12   50 1
    30   13   14 ar
    31   13   16 1
    32   14   15 ar
    33   14   51 1
    34   15   52 1
    35   16   17 1
    36   16   32 1
    37   17   18 1
    38   17   53 1
    39   17   54 1
    40   18   23 ar
    41   18   19 ar
    42   19   20 ar
    43   19   55 1
    44   20   21 ar
    45   20   56 1
    46   21   22 ar
    47   21   57 1
    48   22   23 ar
    49   22   24 1
    50   23   58 1
    51   24   29 ar
    52   24   25 ar
    53   25   26 ar
    54   25   59 1
    55   26   27 ar
    56   26   60 1
    57   27   28 ar
    58   27   61 1
    59   28   29 ar
    60   28   30 1
    61   29   62 1
    62   30   31 1
    63   30   71 2
    64   31   64 1
    65   31   65 1
    66   32   33 2
    67   32   34 2
    68   32   35 1
    69   35   66 1
    70   35   67 1
    71   35   68 1
    72   39   69 1
    73   63   71 1
    74   69   70 1
    75   71   72 1
@<TRIPOS>MOLECULE
ZINC03964182
   66    70     0     0     0
SMALL
USER_CHARGES
7-[[8-[(1-ethanimidoyl-4-piperidyl)oxy]-3-oxo-5-oxa-2-azabicyclo[4.4.0]deca-7,9,11-trien-2-yl]methyl]naphthalene-2-carboxamidine
@<TRIPOS>ATOM
      1 C1         -9.1157   -0.0110    2.0453 C.3       1 <0>        -0.1643
      2 C2         -9.0455   -0.3217    0.5723 C.cat     1 <0>         0.5326
      3 N1         -7.8821   -0.1069   -0.1185 N.pl3     1 <0>        -0.5644
      4 C3         -7.8343   -0.2801   -1.5766 C.3       1 <0>         0.0897
      5 C4         -6.6940   -1.2431   -1.9217 C.3       1 <0>        -0.1342
      6 C5         -5.3913   -0.7260   -1.3072 C.3       1 <0>         0.0811
      7 C6         -5.5313   -0.6691    0.2157 C.3       1 <0>        -0.1685
      8 C7         -6.6582    0.3007    0.5850 C.3       1 <0>         0.0928
      9 O1         -4.3194   -1.6049   -1.6542 O.3       1 <0>        -0.2969
     10 C8         -3.0622   -1.0881   -1.6220 C.ar      1 <0>         0.1352
     11 C9         -1.9709   -1.9060   -1.8761 C.ar      1 <0>        -0.1363
     12 C10        -0.6910   -1.3838   -1.8502 C.ar      1 <0>        -0.0873
     13 C11        -0.4987   -0.0422   -1.5648 C.ar      1 <0>         0.0692
     14 C12        -1.5934    0.7803   -1.3039 C.ar      1 <0>         0.1247
     15 C13        -2.8733    0.2552   -1.3308 C.ar      1 <0>        -0.2011
     16 O2         -1.3903    2.0955   -1.0243 O.3       1 <0>        -0.3002
     17 C14        -0.1885    2.4259   -0.3235 C.3       1 <0>         0.0515
     18 C15         0.9793    1.7123   -0.9557 C.2       1 <0>         0.4882
     19 O3          2.0812    2.2196   -0.9451 O.2       1 <0>        -0.4920
     20 N2          0.7938    0.5059   -1.5345 N.am      1 <0>        -0.5470
     21 C16         1.9233   -0.2194   -2.1211 C.3       1 <0>         0.1411
     22 C17         2.0705    0.1671   -3.5703 C.ar      1 <0>        -0.0913
     23 C18         2.8820    1.2466   -3.9140 C.ar      1 <0>        -0.0611
     24 C19         3.0368    1.6217   -5.2135 C.ar      1 <0>        -0.1111
     25 C20         2.3705    0.9127   -6.2271 C.ar      1 <0>        -0.0069
     26 C21         2.5099    1.2761   -7.5790 C.ar      1 <0>        -0.0778
     27 C22         1.8550    0.5769   -8.5409 C.ar      1 <0>        -0.0918
     28 C23         1.0339   -0.5136   -8.2065 C.ar      1 <0>        -0.1528
     29 C24         0.8765   -0.8962   -6.8863 C.ar      1 <0>        -0.0168
     30 C25         1.5448   -0.1856   -5.8775 C.ar      1 <0>        -0.0661
     31 C26         1.4134   -0.5467   -4.5247 C.ar      1 <0>        -0.0780
     32 C27         0.3320   -1.2591   -9.2756 C.cat     1 <0>         0.5993
     33 N3          0.4849   -0.8828  -10.5924 N.pl3     1 <0>        -0.7773
     34 H1         -8.1333    0.3039    2.3974 H         1 <0>         0.1218
     35 H2         -9.8359    0.7896    2.2138 H         1 <0>         0.1352
     36 H3         -9.4285   -0.9018    2.5900 H         1 <0>         0.1315
     37 H4        -10.9525   -0.9773    0.3625 H         1 <0>         0.4590
     38 H5         -7.6555    0.6837   -2.0534 H         1 <0>         0.1135
     39 H6         -8.7802   -0.6934   -1.9267 H         1 <0>         0.0995
     40 H7         -6.5857   -1.3057   -3.0045 H         1 <0>         0.1077
     41 H8         -6.9185   -2.2314   -1.5203 H         1 <0>         0.0915
     42 H9         -5.1805    0.2726   -1.6900 H         1 <0>         0.0866
     43 H10        -5.7668   -1.6628    0.5968 H         1 <0>         0.0926
     44 H11        -4.5954   -0.3230    0.6544 H         1 <0>         0.1056
     45 H12        -6.3835    1.3118    0.2845 H         1 <0>         0.1071
     46 H13        -6.8289    0.2730    1.6612 H         1 <0>         0.1200
     47 H14        -2.1216   -2.9520   -2.0989 H         1 <0>         0.1436
     48 H15         0.1574   -2.0209   -2.0520 H         1 <0>         0.1436
     49 H16        -3.7234    0.8902   -1.1295 H         1 <0>         0.1439
     50 H17        -0.2800    2.1192    0.7184 H         1 <0>         0.1064
     51 H18        -0.0248    3.5024   -0.3713 H         1 <0>         0.1526
     52 H19         2.8367    0.0340   -1.5830 H         1 <0>         0.1124
     53 H20         1.7440   -1.2921   -2.0475 H         1 <0>         0.1032
     54 H21         3.3955    1.7942   -3.1377 H         1 <0>         0.1438
     55 H22         3.6695    2.4602   -5.4642 H         1 <0>         0.1452
     56 H23         3.1372    2.1120   -7.8515 H         1 <0>         0.1510
     57 H24         1.9665    0.8624   -9.5765 H         1 <0>         0.1368
     58 H25         0.2442   -1.7346   -6.6342 H         1 <0>         0.1389
     59 H26         0.7910   -1.3836   -4.2442 H         1 <0>         0.1369
     60 H27        -0.9315   -2.8222   -9.6010 H         1 <0>         0.4447
     61 H28         1.0523   -0.1294  -10.8187 H         1 <0>         0.4442
     62 H29         0.0249   -1.3714  -11.2929 H         1 <0>         0.4318
     63 N4        -10.0643   -0.8002   -0.1071 N.pl3     1 <0>        -0.7650
     64 H30        -9.9661   -0.9956   -1.1102 H         1 <0>         0.4389
     65 N5         -0.4275   -2.2774   -8.9011 N.pl3     1 <0>        -0.7641
     66 H31        -0.5091   -2.5185   -7.9064 H         1 <0>         0.4573
@<TRIPOS>BOND
     1    1    2 1
     2    1   34 1
     3    1   35 1
     4    1   36 1
     5    2    3 1
     6    2   63 2
     7    3    8 1
     8    3    4 1
     9    4    5 1
    10    4   38 1
    11    4   39 1
    12    5    6 1
    13    5   40 1
    14    5   41 1
    15    6    7 1
    16    6    9 1
    17    6   42 1
    18    7    8 1
    19    7   43 1
    20    7   44 1
    21    8   45 1
    22    8   46 1
    23    9   10 1
    24   10   15 ar
    25   10   11 ar
    26   11   12 ar
    27   11   47 1
    28   12   13 ar
    29   12   48 1
    30   13   20 1
    31   13   14 ar
    32   14   15 ar
    33   14   16 1
    34   15   49 1
    35   16   17 1
    36   17   18 1
    37   17   50 1
    38   17   51 1
    39   18   19 2
    40   18   20 am
    41   20   21 1
    42   21   22 1
    43   21   52 1
    44   21   53 1
    45   22   31 ar
    46   22   23 ar
    47   23   24 ar
    48   23   54 1
    49   24   25 ar
    50   24   55 1
    51   25   30 ar
    52   25   26 ar
    53   26   27 ar
    54   26   56 1
    55   27   28 ar
    56   27   57 1
    57   28   29 ar
    58   28   32 1
    59   29   30 ar
    60   29   58 1
    61   30   31 ar
    62   31   59 1
    63   32   33 1
    64   32   65 2
    65   33   61 1
    66   33   62 1
    67   37   63 1
    68   60   65 1
    69   63   64 1
    70   65   66 1
@<TRIPOS>MOLECULE
ZINC13487638
   65    68     0     0     0
SMALL
USER_CHARGES
2-[[[4-[(1-ethanimidoyl-4-piperidyl)oxy]phenyl]-methylsulfonyl-amino]methyl]benzothiophene-5-carboxamidine
@<TRIPOS>ATOM
      1 C1         -5.3052   -7.8307    0.4472 C.3       1 <0>        -0.1618
      2 C2         -5.5357   -7.9730    1.9297 C.cat     1 <0>         0.5298
      3 N1         -5.0650   -7.0173    2.7910 N.pl3     1 <0>        -0.5639
      4 C3         -5.1798   -7.1977    4.2447 C.3       1 <0>         0.0890
      5 C4         -5.8766   -5.9703    4.8403 C.3       1 <0>        -0.1366
      6 C5         -5.1217   -4.7067    4.4215 C.3       1 <0>         0.0817
      7 C6         -5.1416   -4.5807    2.8964 C.3       1 <0>        -0.1661
      8 C7         -4.4362   -5.7921    2.2787 C.3       1 <0>         0.0937
      9 O1         -5.7503   -3.5621    5.0019 O.3       1 <0>        -0.2996
     10 C8         -4.9754   -2.4601    5.1882 C.ar      1 <0>         0.1209
     11 C9         -3.6693   -2.4443    4.7215 C.ar      1 <0>        -0.1867
     12 C10        -2.8815   -1.3259    4.9110 C.ar      1 <0>        -0.1002
     13 C11        -3.3973   -0.2170    5.5686 C.ar      1 <0>         0.1257
     14 C12        -4.7032   -0.2357    6.0403 C.ar      1 <0>        -0.0761
     15 C13        -5.4914   -1.3530    5.8452 C.ar      1 <0>        -0.1217
     16 N2         -2.5997    0.9166    5.7611 N.pl3     1 <0>        -0.9412
     17 C14        -3.0677    2.2277    5.3048 C.3       1 <0>         0.1832
     18 C15        -2.7784    2.3802    3.8336 C.2       1 <0>        -0.1379
     19 C16        -3.5158    1.9618    2.7959 C.2       1 <0>        -0.1186
     20 C17        -3.0494    2.2177    1.4403 C.ar      1 <0>        -0.0866
     21 C18        -3.6630    1.8729    0.2160 C.ar      1 <0>        -0.0080
     22 C19        -3.0599    2.2000   -0.9850 C.ar      1 <0>        -0.1560
     23 C20        -1.8338    2.8770   -1.0172 C.ar      1 <0>        -0.0536
     24 C21        -1.2222    3.2198    0.1561 C.ar      1 <0>        -0.0569
     25 C22        -1.8140    2.8992    1.3615 C.ar      1 <0>        -0.0802
     26 S1         -1.3703    3.1533    3.0610 S.3       1 <0>         0.1064
     27 C23        -3.7202    1.8291   -2.2560 C.cat     1 <0>         0.6015
     28 N3         -3.1288    2.1495   -3.4588 N.pl3     1 <0>        -0.7764
     29 S2         -1.1266    0.7760    6.5046 S.o2      1 <0>         2.5894
     30 O2         -1.2505   -0.3654    7.3418 O.2       1 <0>        -0.9274
     31 O3         -0.8777    2.0595    7.0616 O.2       1 <0>        -0.9327
     32 C24         0.0441    0.4407    5.1602 C.3       1 <0>        -0.6773
     33 H1         -4.6675   -6.9667    0.2601 H         1 <0>         0.1190
     34 H2         -4.8198   -8.7296    0.0671 H         1 <0>         0.1325
     35 H3         -6.2613   -7.6928   -0.0576 H         1 <0>         0.1319
     36 H4         -6.5501   -9.7270    1.8591 H         1 <0>         0.4589
     37 H5         -4.1857   -7.3005    4.6797 H         1 <0>         0.1153
     38 H6         -5.7679   -8.0906    4.4567 H         1 <0>         0.1006
     39 H7         -5.8824   -6.0471    5.9276 H         1 <0>         0.1119
     40 H8         -6.9018   -5.9201    4.4733 H         1 <0>         0.0909
     41 H9         -4.0898   -4.7688    4.7673 H         1 <0>         0.0866
     42 H10        -6.1738   -4.5438    2.5479 H         1 <0>         0.0907
     43 H11        -4.6242   -3.6684    2.5999 H         1 <0>         0.1018
     44 H12        -3.3815   -5.7804    2.5535 H         1 <0>         0.1054
     45 H13        -4.5315   -5.7590    1.1934 H         1 <0>         0.1159
     46 H14        -3.2683   -3.3068    4.2101 H         1 <0>         0.1322
     47 H15        -1.8643   -1.3140    4.5482 H         1 <0>         0.1246
     48 H16        -5.1036    0.6246    6.5560 H         1 <0>         0.1432
     49 H17        -6.5085   -1.3661    6.2082 H         1 <0>         0.1423
     50 H18        -4.1413    2.3094    5.4743 H         1 <0>         0.1236
     51 H19        -2.5516    3.0111    5.8598 H         1 <0>         0.1303
     52 H20        -4.4478    1.4422    2.9631 H         1 <0>         0.1507
     53 H21        -4.6083    1.3508    0.2174 H         1 <0>         0.1374
     54 H22        -1.3749    3.1261   -1.9626 H         1 <0>         0.1486
     55 H23        -0.2768    3.7419    0.1403 H         1 <0>         0.1568
     56 H24        -5.3719    0.9137   -3.0182 H         1 <0>         0.4451
     57 H25        -2.2797    2.6181   -3.4722 H         1 <0>         0.4445
     58 H26        -3.5618    1.9064   -4.2921 H         1 <0>         0.4329
     59 H27        -0.3152   -0.4003    4.5669 H         1 <0>         0.1274
     60 H28         0.1307    1.3225    4.5254 H         1 <0>         0.1301
     61 H29         1.0202    0.1983    5.5804 H         1 <0>         0.1420
     62 N4         -6.1803   -8.9894    2.4589 N.pl3     1 <0>        -0.7632
     63 H30        -6.3116   -9.0406    3.4760 H         1 <0>         0.4411
     64 N5         -4.8778    1.1906   -2.1698 N.pl3     1 <0>        -0.7644
     65 H31        -5.2776    0.9745   -1.2491 H         1 <0>         0.4573
@<TRIPOS>BOND
     1    1    2 1
     2    1   33 1
     3    1   34 1
     4    1   35 1
     5    2    3 1
     6    2   62 2
     7    3    8 1
     8    3    4 1
     9    4    5 1
    10    4   37 1
    11    4   38 1
    12    5    6 1
    13    5   39 1
    14    5   40 1
    15    6    7 1
    16    6    9 1
    17    6   41 1
    18    7    8 1
    19    7   42 1
    20    7   43 1
    21    8   44 1
    22    8   45 1
    23    9   10 1
    24   10   15 ar
    25   10   11 ar
    26   11   12 ar
    27   11   46 1
    28   12   13 ar
    29   12   47 1
    30   13   14 ar
    31   13   16 1
    32   14   15 ar
    33   14   48 1
    34   15   49 1
    35   16   17 1
    36   16   29 1
    37   17   18 1
    38   17   50 1
    39   17   51 1
    40   18   26 1
    41   18   19 2
    42   19   20 1
    43   19   52 1
    44   20   25 ar
    45   20   21 ar
    46   21   22 ar
    47   21   53 1
    48   22   23 ar
    49   22   27 1
    50   23   24 ar
    51   23   54 1
    52   24   25 ar
    53   24   55 1
    54   25   26 1
    55   27   28 1
    56   27   64 2
    57   28   57 1
    58   28   58 1
    59   29   30 2
    60   29   31 2
    61   29   32 1
    62   32   59 1
    63   32   60 1
    64   32   61 1
    65   36   62 1
    66   56   64 1
    67   62   63 1
    68   64   65 1
@<TRIPOS>MOLECULE
ZINC03952416
   70    73     0     0     0
SMALL
USER_CHARGES
2-[(7-amidino-2-naphthyl)methyl-[4-[(1-ethanimidoyl-4-piperidyl)oxy]phenyl]-sulfamoyl]acetic acid
@<TRIPOS>ATOM
      1 C1         -4.8156   -6.9086    0.2191 C.3       1 <0>        -0.1622
      2 C2         -5.1174   -6.7189   -1.2452 C.cat     1 <0>         0.5282
      3 H1         -5.7695   -8.6029   -1.6136 H         1 <0>         0.4564
      4 N1         -4.8997   -5.5030   -1.8375 N.pl3     1 <0>        -0.5586
      5 C3         -5.2987   -5.2673   -3.2318 C.3       1 <0>         0.0883
      6 C4         -4.0865   -4.7467   -4.0104 C.3       1 <0>        -0.1362
      7 C5         -3.5209   -3.5140   -3.3015 C.3       1 <0>         0.0786
      8 C6         -3.0616   -3.8992   -1.8935 C.3       1 <0>        -0.1633
      9 C7         -4.2623   -4.4098   -1.0907 C.3       1 <0>         0.0909
     10 O1         -2.4096   -3.0066   -4.0427 O.3       1 <0>        -0.3027
     11 C8         -2.1977   -1.6639   -3.9964 C.ar      1 <0>         0.0935
     12 C9         -2.9673   -0.8692   -3.1597 C.ar      1 <0>        -0.1687
     13 C10        -2.7536    0.4943   -3.1128 C.ar      1 <0>        -0.1128
     14 C11        -1.7675    1.0698   -3.9032 C.ar      1 <0>         0.1545
     15 C12        -1.0009    0.2741   -4.7444 C.ar      1 <0>        -0.1118
     16 C13        -1.2126   -1.0900   -4.7863 C.ar      1 <0>        -0.1137
     17 N2         -1.5500    2.4514   -3.8562 N.pl3     1 <0>        -0.9430
     18 C14        -0.2348    2.9981   -4.1988 C.3       1 <0>         0.1337
     19 C15         0.6838    2.8791   -3.0100 C.ar      1 <0>        -0.0921
     20 C16         1.5121    1.7647   -2.8910 C.ar      1 <0>        -0.0595
     21 C17         2.3536    1.6264   -1.8299 C.ar      1 <0>        -0.1144
     22 C18         2.3915    2.6199   -0.8371 C.ar      1 <0>        -0.0085
     23 C19         3.2505    2.5062    0.2711 C.ar      1 <0>        -0.0845
     24 C20         3.2698    3.4791    1.2177 C.ar      1 <0>        -0.0898
     25 C21         2.4398    4.6081    1.1082 C.ar      1 <0>        -0.1553
     26 C22         1.5840    4.7493    0.0304 C.ar      1 <0>        -0.0087
     27 C23         1.5492    3.7541   -0.9582 C.ar      1 <0>        -0.0610
     28 C24         0.6965    3.8642   -2.0712 C.ar      1 <0>        -0.0869
     29 C25         2.4813    5.6543    2.1547 C.cat     1 <0>         0.5985
     30 H2          1.6692    7.4419    2.6932 H         1 <0>         0.4447
     31 N3          3.3318    5.5192    3.2305 N.pl3     1 <0>        -0.7837
     32 S1         -2.7815    3.4690   -3.4199 S.o2      1 <0>         2.6099
     33 O2         -2.4664    4.7072   -4.0418 O.2       1 <0>        -0.9316
     34 O3         -3.9695    2.7681   -3.7620 O.2       1 <0>        -0.9382
     35 C26        -2.6434    3.6220   -1.6177 C.3       1 <0>        -0.6599
     36 C27        -3.6006    4.6782   -1.1285 C.2       1 <0>         0.4872
     37 O4         -4.3038    5.2672   -1.9149 O.co2     1 <0>        -0.6126
     38 H3         -4.5078   -5.9572    0.6528 H         1 <0>         0.1214
     39 H4         -5.7081   -7.2692    0.7303 H         1 <0>         0.1311
     40 H5         -4.0124   -7.6367    0.3331 H         1 <0>         0.1308
     41 H6         -6.0983   -4.5272   -3.2630 H         1 <0>         0.1154
     42 H7         -5.6447   -6.2008   -3.6756 H         1 <0>         0.0980
     43 H8         -4.3918   -4.4770   -5.0213 H         1 <0>         0.1091
     44 H9         -3.3224   -5.5228   -4.0555 H         1 <0>         0.0887
     45 H10        -4.2931   -2.7475   -3.2346 H         1 <0>         0.0887
     46 H11        -2.3073   -4.6834   -1.9587 H         1 <0>         0.0893
     47 H12        -2.6374   -3.0261   -1.3975 H         1 <0>         0.1054
     48 H13        -4.9774   -3.5998   -0.9473 H         1 <0>         0.1085
     49 H14        -3.9267   -4.7769   -0.1209 H         1 <0>         0.1175
     50 H15        -3.7343   -1.3169   -2.5451 H         1 <0>         0.1315
     51 H16        -3.3534    1.1131   -2.4618 H         1 <0>         0.1316
     52 H17        -0.2370    0.7215   -5.3631 H         1 <0>         0.1388
     53 H18        -0.6137   -1.7095   -5.4375 H         1 <0>         0.1369
     54 H19         0.1828    2.4413   -5.0377 H         1 <0>         0.1059
     55 H20        -0.3380    4.0475   -4.4746 H         1 <0>         0.1226
     56 H21         1.4858    0.9989   -3.6521 H         1 <0>         0.1380
     57 H22         2.9894    0.7570   -1.7516 H         1 <0>         0.1417
     58 H23         3.8944    1.6447    0.3690 H         1 <0>         0.1474
     59 H24         3.9318    3.3846    2.0658 H         1 <0>         0.1345
     60 H25         0.9475    5.6182   -0.0491 H         1 <0>         0.1445
     61 H26         0.0523    4.7244   -2.1783 H         1 <0>         0.1437
     62 H27         3.9032    4.7386    3.3021 H         1 <0>         0.4413
     63 H28         3.3590    6.2046    3.9163 H         1 <0>         0.4298
     64 H29        -2.8873    2.6670   -1.1521 H         1 <0>         0.1327
     65 H30        -1.6243    3.9050   -1.3541 H         1 <0>         0.1277
     66 N4         -5.5906   -7.6794   -2.0082 N.pl3     1 <0>        -0.7681
     67 H31        -5.7801   -7.4999   -3.0012 H         1 <0>         0.4395
     68 N5          1.6770    6.6947    1.9988 N.pl3     1 <0>        -0.7567
     69 H32         1.0612    6.7493    1.1790 H         1 <0>         0.4630
     70 O5         -3.6719    4.9646    0.1810 O.co2     1 <0>        -0.7350
@<TRIPOS>BOND
     1    1    2 1
     2    1   38 1
     3    1   39 1
     4    1   40 1
     5    2    4 1
     6    2   66 2
     7    3   66 1
     8    4    9 1
     9    4    5 1
    10    5    6 1
    11    5   41 1
    12    5   42 1
    13    6    7 1
    14    6   43 1
    15    6   44 1
    16    7    8 1
    17    7   10 1
    18    7   45 1
    19    8    9 1
    20    8   46 1
    21    8   47 1
    22    9   48 1
    23    9   49 1
    24   10   11 1
    25   11   16 ar
    26   11   12 ar
    27   12   13 ar
    28   12   50 1
    29   13   14 ar
    30   13   51 1
    31   14   15 ar
    32   14   17 1
    33   15   16 ar
    34   15   52 1
    35   16   53 1
    36   17   18 1
    37   17   32 1
    38   18   19 1
    39   18   54 1
    40   18   55 1
    41   19   28 ar
    42   19   20 ar
    43   20   21 ar
    44   20   56 1
    45   21   22 ar
    46   21   57 1
    47   22   27 ar
    48   22   23 ar
    49   23   24 ar
    50   23   58 1
    51   24   25 ar
    52   24   59 1
    53   25   26 ar
    54   25   29 1
    55   26   27 ar
    56   26   60 1
    57   27   28 ar
    58   28   61 1
    59   29   31 1
    60   29   68 2
    61   30   68 1
    62   31   62 1
    63   31   63 1
    64   32   33 2
    65   32   34 2
    66   32   35 1
    67   35   36 1
    68   35   64 1
    69   35   65 1
    70   36   37 2
    71   36   70 1
    72   66   67 1
    73   68   69 1
