@<TRIPOS>MOLECULE
ZINC10634597
   51    53     0     0     0
SMALL
USER_CHARGES

@<TRIPOS>ATOM
      1 C1          0.6767    1.0580    0.0653 C.3       1 <0>        -0.1527
      2 C2          0.4302   -0.4514    0.1073 C.3       1 <0>         0.0615
      3 O1         -0.9740   -0.7069    0.0382 O.3       1 <0>        -0.3511
      4 C3         -1.3617   -1.9917    0.0640 C.2       1 <0>         0.4458
      5 O2         -0.5361   -2.8704    0.1426 O.2       1 <0>        -0.4948
      6 C4         -2.8267   -2.3383   -0.0051 C.3       1 <0>         0.1269
      7 N1         -2.9868   -3.7938    0.0397 N.am      1 <0>        -0.5525
      8 C5         -3.1309   -4.4448    1.2710 C.ar      1 <0>         0.1006
      9 C6         -2.1378   -5.3028    1.7243 C.ar      1 <0>        -0.0804
     10 C7         -2.2817   -5.9435    2.9393 C.ar      1 <0>        -0.1393
     11 C8         -3.4156   -5.7310    3.7052 C.ar      1 <0>         0.1111
     12 C9         -4.4073   -4.8757    3.2549 C.ar      1 <0>        -0.1409
     13 C10        -4.2646   -4.2287    2.0431 C.ar      1 <0>        -0.0847
     14 F1         -3.5549   -6.3594    4.8930 F         1 <0>        -0.1327
     15 C11        -2.9953   -4.5064   -1.1043 C.2       1 <0>         0.5320
     16 O3         -2.7898   -3.9539   -2.1644 O.2       1 <0>        -0.4930
     17 C12        -3.2601   -5.9894   -1.0664 C.3       1 <0>         0.0536
     18 O4         -3.3388   -6.4936   -2.4011 O.3       1 <0>        -0.3332
     19 C13        -3.5720   -7.8078   -2.5434 C.2       1 <0>         0.4600
     20 O5         -3.7049   -8.5069   -1.5670 O.2       1 <0>        -0.4900
     21 C14        -3.6679   -8.4112   -3.9210 C.3       1 <0>        -0.0300
     22 C15        -3.9327   -9.8902   -3.8042 C.2       1 <0>        -0.1739
     23 C16        -3.0148  -10.8695   -3.8214 C.2       1 <0>         0.0785
     24 N2         -3.6277  -12.0859   -3.6912 N.pl3     1 <0>        -0.5920
     25 H1         -3.1708  -12.9414   -3.6764 H         1 <0>         0.4182
     26 C17        -4.9898  -11.9147   -3.5844 C.ar      1 <0>         0.0953
     27 C18        -5.2401  -10.5314   -3.6442 C.ar      1 <0>        -0.0892
     28 C19        -6.5494  -10.0559   -3.5541 C.ar      1 <0>        -0.0731
     29 C20        -7.5826  -10.9378   -3.4045 C.ar      1 <0>        -0.1422
     30 C21        -7.3407  -12.3030   -3.3409 C.ar      1 <0>        -0.0993
     31 C22        -6.0569  -12.7944   -3.4370 C.ar      1 <0>        -0.1282
     32 H2          1.7478    1.2529    0.1180 H         1 <0>         0.0809
     33 H3          0.2786    1.4655   -0.8639 H         1 <0>         0.0682
     34 H4          0.1793    1.5311    0.9120 H         1 <0>         0.0674
     35 H5          0.9277   -0.9244   -0.7394 H         1 <0>         0.0685
     36 H6          0.8284   -0.8589    1.0366 H         1 <0>         0.0678
     37 H7         -3.3465   -1.8894    0.8412 H         1 <0>         0.1299
     38 H8         -3.2473   -1.9549   -0.9348 H         1 <0>         0.1361
     39 H9         -1.2536   -5.4693    1.1270 H         1 <0>         0.1412
     40 H10        -1.5094   -6.6110    3.2922 H         1 <0>         0.1446
     41 H11        -5.2909   -4.7113    3.8537 H         1 <0>         0.1459
     42 H12        -5.0361   -3.5582    1.6944 H         1 <0>         0.1431
     43 H13        -2.4498   -6.4897   -0.5361 H         1 <0>         0.1025
     44 H14        -4.2021   -6.1772   -0.5510 H         1 <0>         0.1021
     45 H15        -4.4830   -7.9383   -4.4688 H         1 <0>         0.1159
     46 H16        -2.7308   -8.2508   -4.4540 H         1 <0>         0.1162
     47 H17        -1.9501  -10.7195   -3.9232 H         1 <0>         0.1718
     48 H18        -6.7452   -8.9949   -3.6021 H         1 <0>         0.1186
     49 H19        -8.5955  -10.5695   -3.3348 H         1 <0>         0.1228
     50 H20        -8.1675  -12.9874   -3.2218 H         1 <0>         0.1258
     51 H21        -5.8788  -13.8584   -3.3853 H         1 <0>         0.1203
@<TRIPOS>BOND
     1    1    2 1
     2    1   32 1
     3    1   33 1
     4    1   34 1
     5    2    3 1
     6    2   35 1
     7    2   36 1
     8    3    4 1
     9    4    5 2
    10    4    6 1
    11    6    7 1
    12    6   37 1
    13    6   38 1
    14    7    8 1
    15    7   15 am
    16    8   13 ar
    17    8    9 ar
    18    9   10 ar
    19    9   39 1
    20   10   11 ar
    21   10   40 1
    22   11   12 ar
    23   11   14 1
    24   12   13 ar
    25   12   41 1
    26   13   42 1
    27   15   16 2
    28   15   17 1
    29   17   18 1
    30   17   43 1
    31   17   44 1
    32   18   19 1
    33   19   20 2
    34   19   21 1
    35   21   22 1
    36   21   45 1
    37   21   46 1
    38   22   27 1
    39   22   23 2
    40   23   24 1
    41   23   47 1
    42   24   25 1
    43   24   26 1
    44   26   31 ar
    45   26   27 ar
    46   27   28 ar
    47   28   29 ar
    48   28   48 1
    49   29   30 ar
    50   29   49 1
    51   30   31 ar
    52   30   50 1
    53   31   51 1
