@<TRIPOS>MOLECULE
ZINC00655343
   40    42     0     0     0
SMALL
USER_CHARGES

@<TRIPOS>ATOM
      1 C1         -0.0184    1.5028    0.0103 C.3       1 <0>        -0.1141
      2 C2          0.0021   -0.0041    0.0020 C.2       1 <0>         0.4186
      3 N1          0.0054   -0.6428   -1.1308 N.2       1 <0>        -0.5411
      4 C3          0.0223   -2.0120   -1.1716 C.ar      1 <0>         0.1526
      5 C4         -0.2916   -2.6887   -2.3505 C.ar      1 <0>        -0.1017
      6 C5         -0.2721   -4.0681   -2.3750 C.ar      1 <0>        -0.0720
      7 C6          0.0570   -4.7821   -1.2355 C.ar      1 <0>        -0.1063
      8 C7          0.3697   -4.1165   -0.0615 C.ar      1 <0>        -0.0579
      9 C8          0.3544   -2.7404   -0.0274 C.ar      1 <0>        -0.1391
     10 C9          0.6960   -1.9949    1.2401 C.3       1 <0>         0.2461
     11 H1          0.3470   -2.5582    2.1055 H         1 <0>         0.1049
     12 N2          0.0227   -0.6900    1.1883 N.pl3     1 <0>        -0.6180
     13 C10        -0.6178   -0.1355    2.3835 C.3       1 <0>         0.1289
     14 C11        -2.0533   -0.5907    2.4413 C.2       1 <0>         0.4288
     15 O1         -2.4959   -1.3051    1.5731 O.2       1 <0>        -0.4860
     16 O2         -2.8401   -0.2026    3.4571 O.3       1 <0>        -0.3538
     17 C12        -4.1899   -0.6717    3.4481 C.3       1 <0>         0.0343
     18 C13         2.1870   -1.7946    1.3287 C.ar      1 <0>        -0.1044
     19 C14         2.7907   -0.7740    0.6181 C.ar      1 <0>        -0.1009
     20 C15         4.1584   -0.5903    0.6994 C.ar      1 <0>        -0.1167
     21 C16         4.9223   -1.4267    1.4917 C.ar      1 <0>        -0.1132
     22 C17         4.3185   -2.4467    2.2030 C.ar      1 <0>        -0.1162
     23 C18         2.9502   -2.6278    2.1251 C.ar      1 <0>        -0.1049
     24 Br1         0.0792   -6.6724   -1.2816 Br        1 <0>        -0.0505
     25 H2          1.0042    1.8801    0.0026 H         1 <0>         0.0980
     26 H3         -0.5455    1.8639   -0.8728 H         1 <0>         0.0987
     27 H4         -0.5286    1.8543    0.9071 H         1 <0>         0.0811
     28 H5         -0.5492   -2.1346   -3.2410 H         1 <0>         0.1389
     29 H6         -0.5151   -4.5931   -3.2870 H         1 <0>         0.1365
     30 H7          0.6253   -4.6765    0.8259 H         1 <0>         0.1306
     31 H8         -0.0906   -0.4823    3.2723 H         1 <0>         0.1258
     32 H9         -0.5833    0.9532    2.3423 H         1 <0>         0.1303
     33 H10        -4.1960   -1.7614    3.4727 H         1 <0>         0.0607
     34 H11        -4.7146   -0.2856    4.3220 H         1 <0>         0.1050
     35 H12        -4.6886   -0.3259    2.5427 H         1 <0>         0.0610
     36 H13         2.1939   -0.1205   -0.0008 H         1 <0>         0.1201
     37 H14         4.6301    0.2066    0.1437 H         1 <0>         0.1236
     38 H15         5.9909   -1.2836    1.5546 H         1 <0>         0.1239
     39 H16         4.9153   -3.1004    2.8217 H         1 <0>         0.1254
     40 H17         2.4780   -3.4223    2.6837 H         1 <0>         0.1227
@<TRIPOS>BOND
     1    1    2 1
     2    1   25 1
     3    1   26 1
     4    1   27 1
     5    2   12 1
     6    2    3 2
     7    3    4 1
     8    4    9 ar
     9    4    5 ar
    10    5    6 ar
    11    5   28 1
    12    6    7 ar
    13    6   29 1
    14    7    8 ar
    15    7   24 1
    16    8    9 ar
    17    8   30 1
    18    9   10 1
    19   10   11 1
    20   10   12 1
    21   10   18 1
    22   12   13 1
    23   13   14 1
    24   13   31 1
    25   13   32 1
    26   14   15 2
    27   14   16 1
    28   16   17 1
    29   17   33 1
    30   17   34 1
    31   17   35 1
    32   18   23 ar
    33   18   19 ar
    34   19   20 ar
    35   19   36 1
    36   20   21 ar
    37   20   37 1
    38   21   22 ar
    39   21   38 1
    40   22   23 ar
    41   22   39 1
    42   23   40 1
@<TRIPOS>MOLECULE
ZINC00655345
   40    42     0     0     0
SMALL
USER_CHARGES

@<TRIPOS>ATOM
      1 C1         -0.0184    1.5028    0.0103 C.3       1 <0>        -0.1174
      2 C2          0.0021   -0.0041    0.0020 C.2       1 <0>         0.4272
      3 N1          0.0054   -0.6428   -1.1308 N.2       1 <0>        -0.5472
      4 C3          0.0253   -2.0120   -1.1716 C.ar      1 <0>         0.1495
      5 C4          0.3463   -2.6800   -2.3535 C.ar      1 <0>        -0.1021
      6 C5          0.3641   -4.0594   -2.3780 C.ar      1 <0>        -0.0705
      7 C6          0.0653   -4.7820   -1.2355 C.ar      1 <0>        -0.1076
      8 C7         -0.2552   -4.1250   -0.0588 C.ar      1 <0>        -0.0564
      9 C8         -0.2760   -2.7490   -0.0244 C.ar      1 <0>        -0.1466
     10 C9         -0.6258   -2.0129    1.2464 C.3       1 <0>         0.2446
     11 H1         -0.2534   -2.5664    2.1084 H         1 <0>         0.1069
     12 N2          0.0227   -0.6900    1.1883 N.pl3     1 <0>        -0.6192
     13 C10         0.6703   -0.1179    2.3713 C.3       1 <0>         0.1342
     14 C11        -0.3336    0.6904    3.1522 C.2       1 <0>         0.4277
     15 O1         -1.4732    0.7794    2.7607 O.2       1 <0>        -0.4768
     16 O2          0.0381    1.3114    4.2826 O.3       1 <0>        -0.3553
     17 C12        -0.9653    2.0600    4.9717 C.3       1 <0>         0.0354
     18 C13        -2.1208   -1.8531    1.3491 C.ar      1 <0>        -0.1009
     19 C14        -2.7600   -0.8566    0.6356 C.ar      1 <0>        -0.0748
     20 C15        -4.1314   -0.7100    0.7298 C.ar      1 <0>        -0.1177
     21 C16        -4.8635   -1.5603    1.5373 C.ar      1 <0>        -0.1127
     22 C17        -4.2243   -2.5574    2.2501 C.ar      1 <0>        -0.1213
     23 C18        -2.8535   -2.7067    2.1525 C.ar      1 <0>        -0.1069
     24 Br1         0.0940   -6.6722   -1.2817 Br        1 <0>        -0.0491
     25 H2          1.0042    1.8801    0.0026 H         1 <0>         0.0922
     26 H3         -0.5455    1.8639   -0.8728 H         1 <0>         0.1000
     27 H4         -0.5286    1.8543    0.9071 H         1 <0>         0.0839
     28 H5          0.5797   -2.1193   -3.2465 H         1 <0>         0.1398
     29 H6          0.6119   -4.5777   -3.2926 H         1 <0>         0.1371
     30 H7         -0.4884   -4.6917    0.8306 H         1 <0>         0.1323
     31 H8          1.0565   -0.9215    2.9984 H         1 <0>         0.1250
     32 H9          1.4922    0.5266    2.0596 H         1 <0>         0.1250
     33 H10        -1.7818    1.3966    5.2569 H         1 <0>         0.0604
     34 H11        -0.5333    2.5096    5.8657 H         1 <0>         0.1029
     35 H12        -1.3461    2.8447    4.3181 H         1 <0>         0.0611
     36 H13        -2.1881   -0.1923    0.0047 H         1 <0>         0.1157
     37 H14        -4.6307    0.0690    0.1729 H         1 <0>         0.1196
     38 H15        -5.9348   -1.4453    1.6115 H         1 <0>         0.1208
     39 H16        -4.7962   -3.2215    2.8812 H         1 <0>         0.1222
     40 H17        -2.3546   -3.4880    2.7066 H         1 <0>         0.1191
@<TRIPOS>BOND
     1    1    2 1
     2    1   25 1
     3    1   26 1
     4    1   27 1
     5    2   12 1
     6    2    3 2
     7    3    4 1
     8    4    9 ar
     9    4    5 ar
    10    5    6 ar
    11    5   28 1
    12    6    7 ar
    13    6   29 1
    14    7    8 ar
    15    7   24 1
    16    8    9 ar
    17    8   30 1
    18    9   10 1
    19   10   11 1
    20   10   12 1
    21   10   18 1
    22   12   13 1
    23   13   14 1
    24   13   31 1
    25   13   32 1
    26   14   15 2
    27   14   16 1
    28   16   17 1
    29   17   33 1
    30   17   34 1
    31   17   35 1
    32   18   23 ar
    33   18   19 ar
    34   19   20 ar
    35   19   36 1
    36   20   21 ar
    37   20   37 1
    38   21   22 ar
    39   21   38 1
    40   22   23 ar
    41   22   39 1
    42   23   40 1
@<TRIPOS>MOLECULE
ZINC00069847
   40    42     0     0     0
SMALL
USER_CHARGES
methyl 2-(6-chloro-2-methyl-4-phenyl-4H-quinazolin-3-yl)acetate
@<TRIPOS>ATOM
      1 C1         -0.0184    1.5028    0.0103 C.3       1 <0>        -0.1166
      2 C2          0.0021   -0.0041    0.0020 C.2       1 <0>         0.4251
      3 N1         -0.0054   -0.6429   -1.1307 N.2       1 <0>        -0.5461
      4 C3          0.0197   -2.0121   -1.1716 C.ar      1 <0>         0.1378
      5 C4          0.3367   -2.6802   -2.3545 C.ar      1 <0>        -0.0949
      6 C5          0.3569   -4.0596   -2.3784 C.ar      1 <0>        -0.0901
      7 C6          0.0635   -4.7823   -1.2343 C.ar      1 <0>        -0.0506
      8 C7         -0.2530   -4.1250   -0.0564 C.ar      1 <0>        -0.0768
      9 C8         -0.2758   -2.7490   -0.0228 C.ar      1 <0>        -0.1395
     10 C9         -0.6193   -2.0127    1.2496 C.3       1 <0>         0.2442
     11 H1         -0.2433   -2.5665    2.1099 H         1 <0>         0.1070
     12 N2          0.0227   -0.6900    1.1884 N.pl3     1 <0>        -0.6187
     13 C10         0.6701   -0.1179    2.3716 C.3       1 <0>         0.1335
     14 C11        -0.3341    0.6902    3.1523 C.2       1 <0>         0.4287
     15 O1         -1.4737    0.7791    2.7607 O.2       1 <0>        -0.4780
     16 O2          0.0374    1.3112    4.2828 O.3       1 <0>        -0.3609
     17 C12        -0.9824    2.0717    4.9829 C.3       1 <0>         0.0375
     18 C13        -2.1136   -1.8507    1.3586 C.ar      1 <0>        -0.1005
     19 C14        -2.7574   -0.8690    0.6288 C.ar      1 <0>        -0.0750
     20 C15        -4.1287   -0.7232    0.7254 C.ar      1 <0>        -0.1179
     21 C16        -4.8550   -1.5533    1.5587 C.ar      1 <0>        -0.1127
     22 C17        -4.2105   -2.5317    2.2924 C.ar      1 <0>        -0.1215
     23 C18        -2.8398   -2.6802    2.1925 C.ar      1 <0>        -0.1069
     24 Cl1         0.0919   -6.5176   -1.2760 Cl        1 <0>        -0.0684
     25 H2          1.0042    1.8801    0.0026 H         1 <0>         0.0915
     26 H3         -0.5455    1.8639   -0.8728 H         1 <0>         0.0997
     27 H4         -0.5286    1.8543    0.9071 H         1 <0>         0.0837
     28 H5          0.5651   -2.1195   -3.2488 H         1 <0>         0.1403
     29 H6          0.6024   -4.5779   -3.2936 H         1 <0>         0.1379
     30 H7         -0.4809   -4.6915    0.8345 H         1 <0>         0.1332
     31 H8          1.0563   -0.9214    2.9987 H         1 <0>         0.1244
     32 H9          1.4919    0.5268    2.0600 H         1 <0>         0.1244
     33 H10        -1.3632    2.8564    4.3292 H         1 <0>         0.0637
     34 H11        -1.7988    1.4082    5.2679 H         1 <0>         0.0629
     35 H12        -0.5506    2.5214    5.8770 H         1 <0>         0.1026
     36 H13        -2.1895   -0.2180   -0.0194 H         1 <0>         0.1161
     37 H14        -4.6322    0.0409    0.1518 H         1 <0>         0.1194
     38 H15        -5.9259   -1.4377    1.6361 H         1 <0>         0.1206
     39 H16        -4.7779   -3.1802    2.9435 H         1 <0>         0.1219
     40 H17        -2.3363   -3.4446    2.7658 H         1 <0>         0.1188
@<TRIPOS>BOND
     1    1    2 1
     2    1   25 1
     3    1   26 1
     4    1   27 1
     5    2   12 1
     6    2    3 2
     7    3    4 1
     8    4    9 ar
     9    4    5 ar
    10    5    6 ar
    11    5   28 1
    12    6    7 ar
    13    6   29 1
    14    7    8 ar
    15    7   24 1
    16    8    9 ar
    17    8   30 1
    18    9   10 1
    19   10   11 1
    20   10   12 1
    21   10   18 1
    22   12   13 1
    23   13   14 1
    24   13   31 1
    25   13   32 1
    26   14   15 2
    27   14   16 1
    28   16   17 1
    29   17   33 1
    30   17   34 1
    31   17   35 1
    32   18   23 ar
    33   18   19 ar
    34   19   20 ar
    35   19   36 1
    36   20   21 ar
    37   20   37 1
    38   21   22 ar
    39   21   38 1
    40   22   23 ar
    41   22   39 1
    42   23   40 1
@<TRIPOS>MOLECULE
ZINC02689651
   40    42     0     0     0
SMALL
USER_CHARGES
methyl 2-(6-chloro-2-methyl-4-phenyl-4H-quinazolin-3-yl)acetate
@<TRIPOS>ATOM
      1 C1          5.9723    2.3104    0.2472 C.3       1 <0>        -0.1097
      2 C2          4.6908    1.5177    0.2615 C.2       1 <0>         0.4237
      3 N1          3.5653    2.1061   -0.0186 N.2       1 <0>        -0.5452
      4 C3          2.3835    1.4131   -0.0129 C.ar      1 <0>         0.1378
      5 C4          1.1651    2.0925    0.0022 C.ar      1 <0>        -0.0946
      6 C5         -0.0167    1.3805    0.0096 C.ar      1 <0>        -0.0902
      7 C6          0.0021   -0.0041    0.0020 C.ar      1 <0>        -0.0505
      8 C7          1.2086   -0.6850   -0.0142 C.ar      1 <0>        -0.0769
      9 C8          2.3930    0.0167   -0.0219 C.ar      1 <0>        -0.1394
     10 C9          3.7187   -0.7051   -0.0417 C.3       1 <0>         0.2443
     11 H1          3.6446   -1.6296    0.5311 H         1 <0>         0.1072
     12 N2          4.7209    0.1825    0.5692 N.pl3     1 <0>        -0.6181
     13 C10         5.7306   -0.3504    1.4872 C.3       1 <0>         0.1326
     14 C11         6.9506   -0.7654    0.7060 C.2       1 <0>         0.4279
     15 O1          6.9743   -0.6300   -0.4944 O.2       1 <0>        -0.4770
     16 O2          8.0111   -1.2855    1.3438 O.3       1 <0>        -0.3614
     17 C12         9.1512   -1.6629    0.5277 C.3       1 <0>         0.0378
     18 C13         4.1102   -1.0154   -1.4635 C.ar      1 <0>        -0.1007
     19 C14         4.6719   -0.0319   -2.2560 C.ar      1 <0>        -0.0747
     20 C15         5.0351   -0.3177   -3.5588 C.ar      1 <0>        -0.1177
     21 C16         4.8277   -1.5844   -4.0721 C.ar      1 <0>        -0.1129
     22 C17         4.2616   -2.5665   -3.2811 C.ar      1 <0>        -0.1214
     23 C18         3.9024   -2.2819   -1.9769 C.ar      1 <0>        -0.1071
     24 Cl1        -1.4910   -0.8896    0.0122 Cl        1 <0>        -0.0683
     25 H2          6.4101    2.2754   -0.7504 H         1 <0>         0.0963
     26 H3          5.7622    3.3458    0.5156 H         1 <0>         0.0978
     27 H4          6.6717    1.8835    0.9660 H         1 <0>         0.0745
     28 H5          1.1471    3.1723    0.0077 H         1 <0>         0.1404
     29 H6         -0.9605    1.9054    0.0169 H         1 <0>         0.1379
     30 H7          1.2199   -1.7649   -0.0203 H         1 <0>         0.1332
     31 H8          6.0059    0.4177    2.2100 H         1 <0>         0.1248
     32 H9          5.3241   -1.2146    2.0125 H         1 <0>         0.1244
     33 H10         9.5273   -0.7858    0.0012 H         1 <0>         0.0636
     34 H11         9.9365   -2.0681    1.1658 H         1 <0>         0.1024
     35 H12         8.8456   -2.4181   -0.1964 H         1 <0>         0.0628
     36 H13         4.8302    0.9588   -1.8563 H         1 <0>         0.1156
     37 H14         5.4777    0.4495   -4.1768 H         1 <0>         0.1194
     38 H15         5.1083   -1.8067   -5.0911 H         1 <0>         0.1207
     39 H16         4.0996   -3.5562   -3.6821 H         1 <0>         0.1220
     40 H17         3.4598   -3.0492   -1.3590 H         1 <0>         0.1190
@<TRIPOS>BOND
     1    1    2 1
     2    1   25 1
     3    1   26 1
     4    1   27 1
     5    2   12 1
     6    2    3 2
     7    3    4 1
     8    4    9 ar
     9    4    5 ar
    10    5    6 ar
    11    5   28 1
    12    6    7 ar
    13    6   29 1
    14    7    8 ar
    15    7   24 1
    16    8    9 ar
    17    8   30 1
    18    9   10 1
    19   10   11 1
    20   10   12 1
    21   10   18 1
    22   12   13 1
    23   13   14 1
    24   13   31 1
    25   13   32 1
    26   14   15 2
    27   14   16 1
    28   16   17 1
    29   17   33 1
    30   17   34 1
    31   17   35 1
    32   18   23 ar
    33   18   19 ar
    34   19   20 ar
    35   19   36 1
    36   20   21 ar
    37   20   37 1
    38   21   22 ar
    39   21   38 1
    40   22   23 ar
    41   22   39 1
    42   23   40 1
@<TRIPOS>MOLECULE
ZINC02870217
   49    50     0     0     0
SMALL
USER_CHARGES
butyl 4-[3-(3-nitrophenyl)-3-oxo-propyl]aminobenzoate
@<TRIPOS>ATOM
      1 C1        -15.7728   -6.9902    0.0311 C.3       1 <0>        -0.1523
      2 C2        -15.9869   -5.4752    0.0419 C.3       1 <0>        -0.1226
      3 C3        -14.6300   -4.7684    0.0398 C.3       1 <0>        -0.1204
      4 C4        -14.8441   -3.2535    0.0506 C.3       1 <0>         0.0676
      5 O1        -13.5564   -2.5826    0.0485 O.3       1 <0>        -0.3563
      6 C5        -13.5685   -1.2351    0.0572 C.2       1 <0>         0.5138
      7 O2        -14.6263   -0.6370    0.0663 O.2       1 <0>        -0.5161
      8 C6        -12.2988   -0.4867    0.0558 C.ar      1 <0>        -0.1913
      9 C7        -12.3097    0.9118    0.0648 C.ar      1 <0>        -0.0026
     10 C8        -11.1267    1.6050    0.0639 C.ar      1 <0>        -0.2080
     11 C9         -9.9155    0.9181    0.0539 C.ar      1 <0>         0.2521
     12 C10        -9.9012   -0.4741    0.0396 C.ar      1 <0>        -0.2122
     13 C11       -11.0805   -1.1734    0.0458 C.ar      1 <0>        -0.0086
     14 N1         -8.7180    1.6240    0.0525 N.pl3     1 <0>        -0.7390
     15 C12        -7.4427    0.9030    0.0421 C.3       1 <0>         0.1258
     16 C13        -6.2888    1.9077    0.0427 C.3       1 <0>        -0.1680
     17 C14        -4.9770    1.1661    0.0320 C.2       1 <0>         0.4034
     18 O3         -4.9661   -0.0464    0.0245 O.2       1 <0>        -0.4286
     19 C15        -3.7092    1.9134    0.0305 C.ar      1 <0>        -0.1679
     20 C16        -3.7176    3.3121    0.0386 C.ar      1 <0>        -0.0251
     21 C17        -2.5257    4.0049    0.0367 C.ar      1 <0>        -0.1244
     22 C18        -1.3228    3.3200    0.0321 C.ar      1 <0>        -0.0245
     23 C19        -1.3061    1.9363    0.0188 C.ar      1 <0>        -0.0529
     24 C20        -2.4899    1.2288    0.0205 C.ar      1 <0>         0.0005
     25 N2         -0.0144    1.2138    0.0087 N.pl3     1 <0>         0.0241
     26 O4          0.0021   -0.0041    0.0020 O.2       1 <0>        -0.1495
     27 O5          1.0320    1.8371    0.0021 O.3       1 <0>        -0.1496
     28 H1        -15.2176   -7.2723   -0.8634 H         1 <0>         0.0561
     29 H2        -15.2088   -7.2837    0.9165 H         1 <0>         0.0561
     30 H3        -16.7395   -7.4937    0.0327 H         1 <0>         0.0577
     31 H4        -16.5421   -5.1931    0.9365 H         1 <0>         0.0657
     32 H5        -16.5509   -5.1817   -0.8434 H         1 <0>         0.0657
     33 H6        -14.0748   -5.0505   -0.8548 H         1 <0>         0.0747
     34 H7        -14.0660   -5.0619    0.9251 H         1 <0>         0.0747
     35 H8        -15.3993   -2.9714    0.9451 H         1 <0>         0.0703
     36 H9        -15.4081   -2.9599   -0.8348 H         1 <0>         0.0703
     37 H10       -13.2487    1.4451    0.0729 H         1 <0>         0.1371
     38 H11       -11.1343    2.6849    0.0712 H         1 <0>         0.1307
     39 H12        -8.9601   -1.0037    0.0277 H         1 <0>         0.1311
     40 H13       -11.0687   -2.2533    0.0392 H         1 <0>         0.1374
     41 H14        -8.7267    2.5940    0.0585 H         1 <0>         0.4033
     42 H15        -7.3836    0.2824   -0.8520 H         1 <0>         0.0755
     43 H16        -7.3751    0.2715    0.9279 H         1 <0>         0.0752
     44 H17        -6.3431    2.4771    0.8630 H         1 <0>         0.1005
     45 H18        -6.3564    2.5393   -0.8431 H         1 <0>         0.1124
     46 H19        -4.6553    3.8478    0.0467 H         1 <0>         0.1532
     47 H20        -2.5305    5.0849    0.0433 H         1 <0>         0.1581
     48 H21        -0.3924    3.8684    0.0352 H         1 <0>         0.1615
     49 H22        -2.4753    0.1490    0.0139 H         1 <0>         0.1658
@<TRIPOS>BOND
     1    1    2 1
     2    1   28 1
     3    1   29 1
     4    1   30 1
     5    2    3 1
     6    2   31 1
     7    2   32 1
     8    3    4 1
     9    3   33 1
    10    3   34 1
    11    4    5 1
    12    4   35 1
    13    4   36 1
    14    5    6 1
    15    6    7 2
    16    6    8 1
    17    8   13 ar
    18    8    9 ar
    19    9   10 ar
    20    9   37 1
    21   10   11 ar
    22   10   38 1
    23   11   12 ar
    24   11   14 1
    25   12   13 ar
    26   12   39 1
    27   13   40 1
    28   14   15 1
    29   14   41 1
    30   15   16 1
    31   15   42 1
    32   15   43 1
    33   16   17 1
    34   16   44 1
    35   16   45 1
    36   17   18 2
    37   17   19 1
    38   19   24 ar
    39   19   20 ar
    40   20   21 ar
    41   20   46 1
    42   21   22 ar
    43   21   47 1
    44   22   23 ar
    45   22   48 1
    46   23   24 ar
    47   23   25 1
    48   24   49 1
    49   25   26 2
    50   25   27 1
@<TRIPOS>MOLECULE
ZINC00446424
   34    35     0     0     0
SMALL
USER_CHARGES

@<TRIPOS>ATOM
      1 C1         -0.0167    1.3786    0.0096 C.ar      1 <0>        -0.1770
      2 C2          1.1695    2.0894    0.0021 C.ar      1 <0>        -0.0739
      3 C3          2.3774    1.4200   -0.0130 C.ar      1 <0>        -0.1947
      4 C4          2.3998    0.0311   -0.0206 C.ar      1 <0>         0.2116
      5 C5          1.2064   -0.6798   -0.0130 C.ar      1 <0>        -0.1962
      6 C6          0.0021   -0.0041    0.0020 C.ar      1 <0>        -0.0730
      7 N1          3.6196   -0.6492   -0.0363 N.pl3     1 <0>        -0.7523
      8 C7          3.6414   -2.1140   -0.0443 C.3       1 <0>         0.1336
      9 C8          5.0913   -2.6024   -0.0613 C.3       1 <0>        -0.1775
     10 C9          5.1137   -4.1092   -0.0696 C.2       1 <0>         0.4037
     11 O1          4.0728   -4.7311   -0.0626 O.2       1 <0>        -0.4303
     12 C10         6.3989   -4.8259   -0.0861 C.ar      1 <0>        -0.1670
     13 C11         7.6019   -4.1122   -0.0885 C.ar      1 <0>        -0.0255
     14 C12         8.8018   -4.7909   -0.1041 C.ar      1 <0>        -0.1248
     15 C13         8.8181   -6.1750   -0.1174 C.ar      1 <0>        -0.0254
     16 C14         7.6323   -6.8883   -0.1152 C.ar      1 <0>        -0.0581
     17 C15         6.4239   -6.2240   -0.0938 C.ar      1 <0>        -0.0005
     18 N2          7.6610   -8.3680   -0.1300 N.pl3     1 <0>         0.0302
     19 O2          8.7195   -8.9519   -0.1440 O.2       1 <0>        -0.1493
     20 O3          6.6259   -8.9927   -0.1281 O.3       1 <0>        -0.1493
     21 H1         -0.9598    1.9046    0.0260 H         1 <0>         0.1185
     22 H2          1.1513    3.1692    0.0077 H         1 <0>         0.1211
     23 H3          3.3034    1.9757   -0.0192 H         1 <0>         0.1187
     24 H4          1.2204   -1.7597   -0.0193 H         1 <0>         0.1206
     25 H5         -0.9261   -0.5561    0.0079 H         1 <0>         0.1210
     26 H6          4.4523   -0.1517   -0.0419 H         1 <0>         0.3988
     27 H7          3.1419   -2.4897    0.8486 H         1 <0>         0.0688
     28 H8          3.1243   -2.4802   -0.9312 H         1 <0>         0.0688
     29 H9          5.5908   -2.2267   -0.9543 H         1 <0>         0.1112
     30 H10         5.6084   -2.2362    0.8256 H         1 <0>         0.1112
     31 H11         7.5907   -3.0323   -0.0784 H         1 <0>         0.1533
     32 H12         9.7314   -4.2412   -0.1062 H         1 <0>         0.1576
     33 H13         9.7613   -6.7009   -0.1299 H         1 <0>         0.1610
     34 H14         5.4993   -6.7821   -0.0876 H         1 <0>         0.1652
@<TRIPOS>BOND
     1    1    6 ar
     2    1    2 ar
     3    1   21 1
     4    2    3 ar
     5    2   22 1
     6    3    4 ar
     7    3   23 1
     8    4    5 ar
     9    4    7 1
    10    5    6 ar
    11    5   24 1
    12    6   25 1
    13    7    8 1
    14    7   26 1
    15    8    9 1
    16    8   27 1
    17    8   28 1
    18    9   10 1
    19    9   29 1
    20    9   30 1
    21   10   11 2
    22   10   12 1
    23   12   17 ar
    24   12   13 ar
    25   13   14 ar
    26   13   31 1
    27   14   15 ar
    28   14   32 1
    29   15   16 ar
    30   15   33 1
    31   16   17 ar
    32   16   18 1
    33   17   34 1
    34   18   19 2
    35   18   20 1
@<TRIPOS>MOLECULE
ZINC00446278
   40    41     0     0     0
SMALL
USER_CHARGES
3-(2,3-dimethylphenyl)amino-1-(3-nitrophenyl)-propan-1-one
@<TRIPOS>ATOM
      1 C1        -13.6324    1.6317    0.0799 C.3       1 <0>        -0.1181
      2 C2        -12.3192    0.8926    0.0696 C.ar      1 <0>        -0.0418
      3 C3        -12.3049   -0.4904    0.0620 C.ar      1 <0>        -0.1732
      4 C4        -11.1022   -1.1724    0.0521 C.ar      1 <0>        -0.0736
      5 C5         -9.9105   -0.4741    0.0493 C.ar      1 <0>        -0.1983
      6 C6         -9.9212    0.9147    0.0569 C.ar      1 <0>         0.2168
      7 C7        -11.1314    1.5969    0.0726 C.ar      1 <0>        -0.1627
      8 C8        -11.1479    3.1037    0.0872 C.3       1 <0>        -0.1062
      9 N1         -8.7179    1.6240    0.0546 N.pl3     1 <0>        -0.7513
     10 C9         -7.4427    0.9030    0.0442 C.3       1 <0>         0.1323
     11 C10        -6.2888    1.9077    0.0437 C.3       1 <0>        -0.1675
     12 C11        -4.9770    1.1661    0.0329 C.2       1 <0>         0.4029
     13 O1         -4.9660   -0.0464    0.0263 O.2       1 <0>        -0.4288
     14 C12        -3.7092    1.9134    0.0305 C.ar      1 <0>        -0.1670
     15 C13        -3.7176    3.3121    0.0386 C.ar      1 <0>        -0.0251
     16 C14        -2.5257    4.0049    0.0367 C.ar      1 <0>        -0.1245
     17 C15        -1.3228    3.3200    0.0321 C.ar      1 <0>        -0.0250
     18 C16        -1.3061    1.9363    0.0188 C.ar      1 <0>        -0.0530
     19 C17        -2.4899    1.2288    0.0205 C.ar      1 <0>         0.0001
     20 N2         -0.0144    1.2138    0.0087 N.pl3     1 <0>         0.0244
     21 O2          0.0021   -0.0041    0.0020 O.2       1 <0>        -0.1499
     22 O3          1.0320    1.8371    0.0021 O.3       1 <0>        -0.1500
     23 H1        -13.9442    1.8043    1.1100 H         1 <0>         0.0710
     24 H2        -13.5150    2.5883   -0.4293 H         1 <0>         0.0675
     25 H3        -14.3880    1.0371   -0.4336 H         1 <0>         0.0670
     26 H4        -13.2353   -1.0388    0.0642 H         1 <0>         0.1180
     27 H5        -11.0946   -2.2523    0.0462 H         1 <0>         0.1206
     28 H6         -8.9714   -1.0074    0.0409 H         1 <0>         0.1204
     29 H7        -11.1597    3.4768   -0.9369 H         1 <0>         0.0648
     30 H8        -12.0379    3.4523    0.6111 H         1 <0>         0.0693
     31 H9        -10.2581    3.4719    0.5978 H         1 <0>         0.0560
     32 H10        -8.7267    2.5940    0.0599 H         1 <0>         0.3983
     33 H11        -7.3839    0.2818   -0.8495 H         1 <0>         0.0696
     34 H12        -7.3747    0.2721    0.9304 H         1 <0>         0.0691
     35 H13        -6.3428    2.4777    0.8636 H         1 <0>         0.0991
     36 H14        -6.3567    2.5387   -0.8425 H         1 <0>         0.1108
     37 H15        -4.6553    3.8478    0.0467 H         1 <0>         0.1532
     38 H16        -2.5305    5.0849    0.0430 H         1 <0>         0.1579
     39 H17        -0.3924    3.8684    0.0348 H         1 <0>         0.1613
     40 H18        -2.4753    0.1490    0.0139 H         1 <0>         0.1656
@<TRIPOS>BOND
     1    1    2 1
     2    1   23 1
     3    1   24 1
     4    1   25 1
     5    2    7 ar
     6    2    3 ar
     7    3    4 ar
     8    3   26 1
     9    4    5 ar
    10    4   27 1
    11    5    6 ar
    12    5   28 1
    13    6    7 ar
    14    6    9 1
    15    7    8 1
    16    8   29 1
    17    8   30 1
    18    8   31 1
    19    9   10 1
    20    9   32 1
    21   10   11 1
    22   10   33 1
    23   10   34 1
    24   11   12 1
    25   11   35 1
    26   11   36 1
    27   12   13 2
    28   12   14 1
    29   14   19 ar
    30   14   15 ar
    31   15   16 ar
    32   15   37 1
    33   16   17 ar
    34   16   38 1
    35   17   18 ar
    36   17   39 1
    37   18   19 ar
    38   18   20 1
    39   19   40 1
    40   20   21 2
    41   20   22 1
@<TRIPOS>MOLECULE
ZINC00059752
   34    35     0     0     0
SMALL
USER_CHARGES

@<TRIPOS>ATOM
      1 C1         -0.0167    1.3796    0.0096 C.ar      1 <0>        -0.1247
      2 C2          1.1660    2.0889    0.0021 C.ar      1 <0>        -0.0254
      3 C3          2.3862    1.4062   -0.0131 C.ar      1 <0>        -0.1675
      4 C4          2.3968    0.0075   -0.0207 C.ar      1 <0>        -0.0002
      5 C5          1.2060   -0.6872   -0.0131 C.ar      1 <0>        -0.0580
      6 C6          0.0021   -0.0041    0.0020 C.ar      1 <0>        -0.0253
      7 N1          1.2148   -2.1672   -0.0215 N.pl3     1 <0>         0.0301
      8 O1          2.2654   -2.7653   -0.0351 O.2       1 <0>        -0.1492
      9 O2          0.1715   -2.7779   -0.0148 O.3       1 <0>        -0.1490
     10 C7          3.6529    2.1555   -0.0217 C.2       1 <0>         0.4044
     11 O3          4.7092    1.5603   -0.0349 O.2       1 <0>        -0.4302
     12 C8          3.6370    3.6623   -0.0140 C.3       1 <0>        -0.1783
     13 C9          5.0740    4.1876   -0.0253 C.3       1 <0>         0.1319
     14 N2          5.0586    5.6525   -0.0178 N.pl3     1 <0>        -0.7465
     15 C10         6.2607    6.3635   -0.0260 C.ar      1 <0>         0.2414
     16 C11         7.4719    5.6829   -0.0469 C.ar      1 <0>        -0.2063
     17 C12         8.6594    6.3877   -0.0554 C.ar      1 <0>        -0.0423
     18 C13         8.6452    7.7703   -0.0426 C.ar      1 <0>        -0.2109
     19 C14         7.4404    8.4529   -0.0217 C.ar      1 <0>         0.1450
     20 C15         6.2476    7.7519   -0.0189 C.ar      1 <0>        -0.2331
     21 F1          7.4297    9.8038   -0.0092 F         1 <0>        -0.1388
     22 H1         -0.9599    1.9053    0.0260 H         1 <0>         0.1576
     23 H2          1.1498    3.1687    0.0077 H         1 <0>         0.1533
     24 H3          3.3353   -0.5268   -0.0328 H         1 <0>         0.1653
     25 H4         -0.9275   -0.5539    0.0079 H         1 <0>         0.1610
     26 H5          3.1108    4.0247   -0.8971 H         1 <0>         0.1121
     27 H6          3.1281    4.0158    0.8828 H         1 <0>         0.1121
     28 H7          5.6003    3.8252    0.8578 H         1 <0>         0.0721
     29 H8          5.5830    3.8341   -0.9221 H         1 <0>         0.0720
     30 H9          4.2136    6.1285   -0.0073 H         1 <0>         0.4014
     31 H10         7.4846    4.6030   -0.0563 H         1 <0>         0.1285
     32 H11         9.6006    5.8582   -0.0717 H         1 <0>         0.1331
     33 H12         9.5755    8.3189   -0.0486 H         1 <0>         0.1324
     34 H13         5.3078    8.2838   -0.0070 H         1 <0>         0.1322
@<TRIPOS>BOND
     1    1    6 ar
     2    1    2 ar
     3    1   22 1
     4    2    3 ar
     5    2   23 1
     6    3    4 ar
     7    3   10 1
     8    4    5 ar
     9    4   24 1
    10    5    6 ar
    11    5    7 1
    12    6   25 1
    13    7    8 2
    14    7    9 1
    15   10   11 2
    16   10   12 1
    17   12   13 1
    18   12   26 1
    19   12   27 1
    20   13   14 1
    21   13   28 1
    22   13   29 1
    23   14   15 1
    24   14   30 1
    25   15   20 ar
    26   15   16 ar
    27   16   17 ar
    28   16   31 1
    29   17   18 ar
    30   17   32 1
    31   18   19 ar
    32   18   33 1
    33   19   20 ar
    34   19   21 1
    35   20   34 1
@<TRIPOS>MOLECULE
ZINC01495983
   42    43     0     0     0
SMALL
USER_CHARGES
1-(4-methylsulfonylphenyl)-3-(1-piperidyl)propan-1-one
@<TRIPOS>ATOM
      1 C1         -5.6531    4.3572    1.8055 C.3       1 <0>        -0.6468
      2 S1         -5.2540    4.1392    0.0494 S.o2      1 <0>         2.4935
      3 O1         -4.9703    5.3970   -0.5479 O.2       1 <0>        -0.9284
      4 O2         -6.1758    3.2420   -0.5543 O.2       1 <0>        -0.9263
      5 C2         -3.7162    3.2791    0.0380 C.ar      1 <0>        -0.6240
      6 C3         -3.7017    1.8951    0.0304 C.ar      1 <0>        -0.0301
      7 C4         -2.5024    1.2147    0.0205 C.ar      1 <0>        -0.0737
      8 C5         -1.2987    1.9268    0.0187 C.ar      1 <0>        -0.1312
      9 C6         -1.3218    3.3250    0.0322 C.ar      1 <0>        -0.0967
     10 C7         -2.5293    3.9909    0.0362 C.ar      1 <0>        -0.0345
     11 C8         -0.0144    1.2083    0.0087 C.2       1 <0>         0.4055
     12 O3          0.0021   -0.0041    0.0020 O.2       1 <0>        -0.4269
     13 C9          1.2803    1.9795    0.0005 C.3       1 <0>        -0.1882
     14 C10         2.4566    1.0012   -0.0160 C.3       1 <0>         0.0014
     15 C11         3.8712    2.5120   -1.2718 C.3       1 <0>        -0.0086
     16 C12         5.1196    3.3928   -1.1853 C.3       1 <0>        -0.1466
     17 C13         6.3472    2.5082   -0.9508 C.3       1 <0>        -0.1401
     18 C14         6.1419    1.6926    0.3287 C.3       1 <0>        -0.1472
     19 C15         4.8638    0.8611    0.1983 C.3       1 <0>        -0.0016
     20 H1         -4.8647    4.9345    2.2884 H         1 <0>         0.1328
     21 H2         -6.6010    4.8872    1.8995 H         1 <0>         0.1401
     22 H3         -5.7336    3.3811    2.2837 H         1 <0>         0.1338
     23 H4         -4.6321    1.3467    0.0318 H         1 <0>         0.1559
     24 H5         -2.4926    0.1348    0.0139 H         1 <0>         0.1483
     25 H6         -0.3964    3.8819    0.0350 H         1 <0>         0.1394
     26 H7         -2.5489    5.0707    0.0419 H         1 <0>         0.1541
     27 H8          1.3177    2.5595   -0.8133 H         1 <0>         0.1108
     28 H9          1.3381    2.6021    0.8933 H         1 <0>         0.1261
     29 H10         2.4158    0.3691    0.8710 H         1 <0>         0.1386
     30 H11         2.3988    0.3786   -0.9088 H         1 <0>         0.1397
     31 H12         3.9722    1.8199   -2.1079 H         1 <0>         0.1320
     32 H13         2.9934    3.1400   -1.4245 H         1 <0>         0.1274
     33 H14         5.0133    4.0945   -0.3580 H         1 <0>         0.0879
     34 H15         5.2415    3.9448   -2.1173 H         1 <0>         0.1127
     35 H16         7.2329    3.1347   -0.8453 H         1 <0>         0.0948
     36 H17         6.4775    1.8327   -1.7964 H         1 <0>         0.0822
     37 H18         6.0517    2.3675    1.1799 H         1 <0>         0.0877
     38 H19         6.9939    1.0294    0.4782 H         1 <0>         0.1131
     39 H20         4.7071    0.2900    1.1134 H         1 <0>         0.1296
     40 H21         4.9603    0.1769   -0.6447 H         1 <0>         0.1314
     41 N1          3.7169    1.7722   -0.0010 N.4       1 <0>        -0.3940
     42 H22         3.6871    2.4447    0.7743 H         1 <0>         0.4261
@<TRIPOS>BOND
     1    1    2 1
     2    1   20 1
     3    1   21 1
     4    1   22 1
     5    2    3 2
     6    2    4 2
     7    2    5 1
     8    5   10 ar
     9    5    6 ar
    10    6    7 ar
    11    6   23 1
    12    7    8 ar
    13    7   24 1
    14    8    9 ar
    15    8   11 1
    16    9   10 ar
    17    9   25 1
    18   10   26 1
    19   11   12 2
    20   11   13 1
    21   13   14 1
    22   13   27 1
    23   13   28 1
    24   14   29 1
    25   14   30 1
    26   14   41 1
    27   15   16 1
    28   15   31 1
    29   15   32 1
    30   15   41 1
    31   16   17 1
    32   16   33 1
    33   16   34 1
    34   17   18 1
    35   17   35 1
    36   17   36 1
    37   18   19 1
    38   18   37 1
    39   18   38 1
    40   19   39 1
    41   19   40 1
    42   19   41 1
    43   41   42 1
@<TRIPOS>MOLECULE
ZINC01495982
   35    35     0     0     0
SMALL
USER_CHARGES
3-dimethylamino-1-(4-methylsulfonylphenyl)-propan-1-one
@<TRIPOS>ATOM
      1 C1          3.8980    2.4940    1.2316 C.3       1 <0>        -0.0495
      2 C2          4.8597    0.8633   -0.2779 C.3       1 <0>        -0.0423
      3 C3          2.4566    1.0012   -0.0160 C.3       1 <0>         0.0001
      4 C4          1.2803    1.9795    0.0005 C.3       1 <0>        -0.1887
      5 C5         -0.0144    1.2083    0.0087 C.2       1 <0>         0.4053
      6 O1          0.0021   -0.0041    0.0020 O.2       1 <0>        -0.4272
      7 C6         -1.2987    1.9268    0.0187 C.ar      1 <0>        -0.1318
      8 C7         -1.3218    3.3250    0.0322 C.ar      1 <0>        -0.0967
      9 C8         -2.5293    3.9909    0.0352 C.ar      1 <0>        -0.0346
     10 C9         -3.7162    3.2791    0.0369 C.ar      1 <0>        -0.6238
     11 C10        -3.7017    1.8951    0.0299 C.ar      1 <0>        -0.0301
     12 C11        -2.5024    1.2147    0.0205 C.ar      1 <0>        -0.0736
     13 S1         -5.2540    4.1392    0.0477 S.o2      1 <0>         2.4934
     14 O2         -4.9702    5.3968   -0.5500 O.2       1 <0>        -0.9282
     15 O3         -6.1757    3.2418   -0.5559 O.2       1 <0>        -0.9262
     16 C12        -5.6535    4.3579    1.8036 C.3       1 <0>        -0.6468
     17 H1          3.9132    1.7944    2.0674 H         1 <0>         0.1256
     18 H2          4.8399    3.0416    1.1990 H         1 <0>         0.1263
     19 H3          3.0740    3.1958    1.3602 H         1 <0>         0.1209
     20 H4          4.7348    0.3796   -1.2467 H         1 <0>         0.1232
     21 H5          5.7812    1.4455   -0.2785 H         1 <0>         0.1254
     22 H6          4.9097    0.1047    0.5032 H         1 <0>         0.1249
     23 H7          2.4158    0.3691    0.8710 H         1 <0>         0.1406
     24 H8          2.3988    0.3786   -0.9088 H         1 <0>         0.1384
     25 H9          1.3177    2.5594   -0.8133 H         1 <0>         0.1115
     26 H10         1.3381    2.6021    0.8933 H         1 <0>         0.1257
     27 H11        -0.3964    3.8819    0.0353 H         1 <0>         0.1394
     28 H12        -2.5489    5.0707    0.0404 H         1 <0>         0.1542
     29 H13        -4.6321    1.3467    0.0313 H         1 <0>         0.1560
     30 H14        -2.4926    0.1348    0.0143 H         1 <0>         0.1484
     31 H15        -4.8652    4.9353    2.2864 H         1 <0>         0.1328
     32 H16        -6.6014    4.8879    1.8972 H         1 <0>         0.1402
     33 H17        -5.7341    3.3819    2.2821 H         1 <0>         0.1338
     34 N1          3.7174    1.7721   -0.0454 N.4       1 <0>        -0.3985
     35 H18         3.6731    2.4547   -0.8111 H         1 <0>         0.4319
@<TRIPOS>BOND
     1    1   17 1
     2    1   18 1
     3    1   19 1
     4    1   34 1
     5    2   20 1
     6    2   21 1
     7    2   22 1
     8    2   34 1
     9    3    4 1
    10    3   23 1
    11    3   24 1
    12    3   34 1
    13    4    5 1
    14    4   25 1
    15    4   26 1
    16    5    6 2
    17    5    7 1
    18    7   12 ar
    19    7    8 ar
    20    8    9 ar
    21    8   27 1
    22    9   10 ar
    23    9   28 1
    24   10   11 ar
    25   10   13 1
    26   11   12 ar
    27   11   29 1
    28   12   30 1
    29   13   14 2
    30   13   15 2
    31   13   16 1
    32   16   31 1
    33   16   32 1
    34   16   33 1
    35   34   35 1
@<TRIPOS>MOLECULE
ZINC05060480
   29    29     0     0     0
SMALL
USER_CHARGES
1-(3,4-dichlorophenyl)-3-dimethylamino-propan-1-one
@<TRIPOS>ATOM
      1 C1          3.8980    2.4941    1.2316 C.3       1 <0>        -0.0497
      2 C2          4.8597    0.8634   -0.2779 C.3       1 <0>        -0.0423
      3 C3          2.4566    1.0013   -0.0160 C.3       1 <0>        -0.0001
      4 C4          1.2803    1.9796    0.0005 C.3       1 <0>        -0.1876
      5 C5         -0.0144    1.2084    0.0087 C.2       1 <0>         0.4112
      6 O1          0.0021   -0.0041    0.0020 O.2       1 <0>        -0.4308
      7 C6         -1.2981    1.9265    0.0187 C.ar      1 <0>        -0.1703
      8 C7         -1.3207    3.3254    0.0322 C.ar      1 <0>        -0.0593
      9 C8         -2.5268    3.9921    0.0347 C.ar      1 <0>        -0.1085
     10 C9         -3.7158    3.2807    0.0370 C.ar      1 <0>         0.0049
     11 C10        -3.7017    1.8943    0.0299 C.ar      1 <0>        -0.0452
     12 C11        -2.5017    1.2140    0.0205 C.ar      1 <0>        -0.0334
     13 Cl1        -5.1972    1.0127    0.0322 Cl        1 <0>        -0.0226
     14 Cl2        -5.2303    4.1293    0.0481 Cl        1 <0>        -0.0199
     15 H1          3.9132    1.7945    2.0674 H         1 <0>         0.1258
     16 H2          4.8399    3.0417    1.1990 H         1 <0>         0.1260
     17 H3          3.0740    3.1959    1.3602 H         1 <0>         0.1212
     18 H4          4.7348    0.3797   -1.2467 H         1 <0>         0.1232
     19 H5          5.7812    1.4456   -0.2785 H         1 <0>         0.1252
     20 H6          4.9097    0.1048    0.5032 H         1 <0>         0.1249
     21 H7          2.4158    0.3692    0.8710 H         1 <0>         0.1408
     22 H8          2.3988    0.3787   -0.9088 H         1 <0>         0.1386
     23 H9          1.3177    2.5595   -0.8133 H         1 <0>         0.1113
     24 H10         1.3381    2.6022    0.8933 H         1 <0>         0.1255
     25 H11        -0.3950    3.8816    0.0357 H         1 <0>         0.1451
     26 H12        -2.5453    5.0719    0.0403 H         1 <0>         0.1556
     27 H13        -2.4916    0.1340    0.0150 H         1 <0>         0.1572
     28 N1          3.7174    1.7722   -0.0454 N.4       1 <0>        -0.3984
     29 H14         3.6731    2.4548   -0.8111 H         1 <0>         0.4316
@<TRIPOS>BOND
     1    1   15 1
     2    1   16 1
     3    1   17 1
     4    1   28 1
     5    2   18 1
     6    2   19 1
     7    2   20 1
     8    2   28 1
     9    3    4 1
    10    3   21 1
    11    3   22 1
    12    3   28 1
    13    4    5 1
    14    4   23 1
    15    4   24 1
    16    5    6 2
    17    5    7 1
    18    7   12 ar
    19    7    8 ar
    20    8    9 ar
    21    8   25 1
    22    9   10 ar
    23    9   26 1
    24   10   11 ar
    25   10   14 1
    26   11   12 ar
    27   11   13 1
    28   12   27 1
    29   28   29 1
@<TRIPOS>MOLECULE
ZINC00446294
   31    31     0     0     0
SMALL
USER_CHARGES
3-dimethylamino-1-(3-nitrophenyl)propan-1-one
@<TRIPOS>ATOM
      1 C1          2.9117    8.1377   -1.2374 C.3       1 <0>        -0.0498
      2 C2          1.9503    9.7688    0.2717 C.3       1 <0>        -0.0425
      3 C3          0.9247    7.5886    0.0326 C.3       1 <0>        -0.0003
      4 C4          1.2246    6.0883    0.0221 C.3       1 <0>        -0.1866
      5 C5         -0.0701    5.3171    0.0308 C.2       1 <0>         0.4104
      6 O1         -1.1282    5.9090    0.0441 O.2       1 <0>        -0.4243
      7 C6         -0.0501    3.8456    0.0232 C.ar      1 <0>        -0.1800
      8 C7          1.1685    3.1592    0.0079 C.ar      1 <0>        -0.0290
      9 C8          1.1788    1.7806    0.0004 C.ar      1 <0>        -0.1217
     10 C9         -0.0126    1.0758    0.0080 C.ar      1 <0>        -0.0147
     11 C10        -1.2223    1.7477    0.0174 C.ar      1 <0>        -0.0486
     12 C11        -1.2493    3.1265    0.0308 C.ar      1 <0>         0.0055
     13 N1         -2.4904    0.9845    0.0193 N.pl3     1 <0>         0.0191
     14 O2         -2.4684   -0.2332    0.0125 O.2       1 <0>        -0.1385
     15 O3         -3.5561    1.5743    0.0275 O.3       1 <0>        -0.1442
     16 H1          2.2959    8.4792   -2.0693 H         1 <0>         0.1261
     17 H2          3.8421    8.7053   -1.2170 H         1 <0>         0.1267
     18 H3          3.1352    7.0781   -1.3619 H         1 <0>         0.1206
     19 H4          1.4748    9.8951    1.2444 H         1 <0>         0.1236
     20 H5          2.9010   10.3019    0.2601 H         1 <0>         0.1257
     21 H6          1.2996   10.1695   -0.5056 H         1 <0>         0.1254
     22 H7          0.3410    7.8486   -0.8505 H         1 <0>         0.1417
     23 H8          0.3583    7.8396    0.9294 H         1 <0>         0.1395
     24 H9          1.7601    5.8498    0.8322 H         1 <0>         0.1121
     25 H10         1.7910    5.8373   -0.8747 H         1 <0>         0.1265
     26 H11         2.0988    3.7076    0.0016 H         1 <0>         0.1492
     27 H12         2.1189    1.2491   -0.0118 H         1 <0>         0.1612
     28 H13         0.0021   -0.0041    0.0020 H         1 <0>         0.1664
     29 H14        -2.1942    3.6494    0.0430 H         1 <0>         0.1675
     30 N2          2.2032    8.3303    0.0454 N.4       1 <0>        -0.3983
     31 H15         2.7897    7.9708    0.8076 H         1 <0>         0.4316
@<TRIPOS>BOND
     1    1   16 1
     2    1   17 1
     3    1   18 1
     4    1   30 1
     5    2   19 1
     6    2   20 1
     7    2   21 1
     8    2   30 1
     9    3    4 1
    10    3   22 1
    11    3   23 1
    12    3   30 1
    13    4    5 1
    14    4   24 1
    15    4   25 1
    16    5    6 2
    17    5    7 1
    18    7   12 ar
    19    7    8 ar
    20    8    9 ar
    21    8   26 1
    22    9   10 ar
    23    9   27 1
    24   10   11 ar
    25   10   28 1
    26   11   12 ar
    27   11   13 1
    28   12   29 1
    29   13   14 2
    30   13   15 1
    31   30   31 1
@<TRIPOS>MOLECULE
ZINC02990484
   50    50     0     0     0
SMALL
USER_CHARGES
4-(2-hydroxyethylaminomethyl)-2,6-ditert-butyl-phenol
@<TRIPOS>ATOM
      1 C1         -0.0127    1.0858    0.0080 C.3       1 <0>        -0.1480
      2 C2         -0.7288    1.5792    1.2668 C.3       1 <0>        -0.0246
      3 C3         -0.7496    3.1091    1.2752 C.3       1 <0>        -0.1452
      4 C4         -2.1642    1.0497    1.2777 C.3       1 <0>        -0.1464
      5 C5          0.0000    1.0800    2.4877 C.ar      1 <0>        -0.0862
      6 C6          1.1327    0.3018    2.3466 C.ar      1 <0>        -0.0881
      7 C7          1.8021   -0.1561    3.4664 C.ar      1 <0>        -0.1733
      8 C8          1.3401    0.1634    4.7298 C.ar      1 <0>        -0.0866
      9 C9          0.2081    0.9416    4.8762 C.ar      1 <0>        -0.0856
     10 C10        -0.4626    1.4063    3.7543 C.ar      1 <0>         0.1564
     11 O1         -1.5734    2.1764    3.8957 O.3       1 <0>        -0.4823
     12 C11        -0.2946    1.2898    6.2535 C.3       1 <0>        -0.0247
     13 C12         0.6222    0.6617    7.3051 C.3       1 <0>        -0.1486
     14 C13        -0.3007    2.8102    6.4250 C.3       1 <0>        -0.1452
     15 C14        -1.7159    0.7512    6.4289 C.3       1 <0>        -0.1463
     16 C15         3.0377   -1.0045    3.3096 C.3       1 <0>         0.0519
     17 C16         5.4492   -0.9326    3.1042 C.3       1 <0>        -0.0012
     18 C17         6.6594    0.0022    3.0534 C.3       1 <0>         0.0440
     19 O2          6.7969    0.6720    4.3082 O.3       1 <0>        -0.5818
     20 H1          0.0021   -0.0041    0.0020 H         1 <0>         0.0582
     21 H2          1.0099    1.4631    0.0003 H         1 <0>         0.0557
     22 H3         -0.5399    1.4469   -0.8751 H         1 <0>         0.0673
     23 H4         -1.2768    3.4701    0.3922 H         1 <0>         0.0616
     24 H5         -1.2598    3.4606    2.1720 H         1 <0>         0.0771
     25 H6          0.2730    3.4864    1.2675 H         1 <0>         0.0507
     26 H7         -2.1494   -0.0402    1.2717 H         1 <0>         0.0564
     27 H8         -2.6744    1.4012    2.1745 H         1 <0>         0.0593
     28 H9         -2.6914    1.4107    0.3946 H         1 <0>         0.0682
     29 H10         1.4958    0.0512    1.3608 H         1 <0>         0.1374
     30 H11         1.8647   -0.1955    5.6029 H         1 <0>         0.1379
     31 H12        -2.3979    1.6731    3.9399 H         1 <0>         0.3948
     32 H13         1.6348    1.0455    7.1801 H         1 <0>         0.0566
     33 H14         0.2586    0.9136    8.3013 H         1 <0>         0.0674
     34 H15         0.6266   -0.4214    7.1829 H         1 <0>         0.0582
     35 H16        -0.9539    3.2577    5.6758 H         1 <0>         0.0768
     36 H17        -0.6643    3.0621    7.4212 H         1 <0>         0.0618
     37 H18         0.7118    3.1940    6.3000 H         1 <0>         0.0510
     38 H19        -1.7116   -0.3320    6.3068 H         1 <0>         0.0564
     39 H20        -2.0795    1.0030    7.4251 H         1 <0>         0.0683
     40 H21        -2.3691    1.1987    5.6798 H         1 <0>         0.0591
     41 H22         3.1218   -1.6842    4.1575 H         1 <0>         0.1363
     42 H23         2.9679   -1.5811    2.3872 H         1 <0>         0.1362
     43 H24         5.5500   -1.6118    3.9507 H         1 <0>         0.1380
     44 H25         5.3961   -1.5087    2.1804 H         1 <0>         0.1437
     45 H26         7.5592   -0.5790    2.8513 H         1 <0>         0.0957
     46 H27         6.5170    0.7383    2.2623 H         1 <0>         0.0718
     47 H28         7.5458    1.2824    4.3483 H         1 <0>         0.4098
     48 N1          4.2227   -0.1275    3.2576 N.4       1 <0>        -0.5174
     49 H29         4.2806    0.4155    4.1271 H         1 <0>         0.4385
     50 H30         4.1357    0.5125    2.4595 H         1 <0>         0.4291
@<TRIPOS>BOND
     1    1    2 1
     2    1   20 1
     3    1   21 1
     4    1   22 1
     5    2    3 1
     6    2    4 1
     7    2    5 1
     8    3   23 1
     9    3   24 1
    10    3   25 1
    11    4   26 1
    12    4   27 1
    13    4   28 1
    14    5   10 ar
    15    5    6 ar
    16    6    7 ar
    17    6   29 1
    18    7    8 ar
    19    7   16 1
    20    8    9 ar
    21    8   30 1
    22    9   10 ar
    23    9   12 1
    24   10   11 1
    25   11   31 1
    26   12   13 1
    27   12   14 1
    28   12   15 1
    29   13   32 1
    30   13   33 1
    31   13   34 1
    32   14   35 1
    33   14   36 1
    34   14   37 1
    35   15   38 1
    36   15   39 1
    37   15   40 1
    38   16   41 1
    39   16   42 1
    40   16   48 1
    41   17   18 1
    42   17   43 1
    43   17   44 1
    44   17   48 1
    45   18   19 1
    46   18   45 1
    47   18   46 1
    48   19   47 1
    49   48   49 1
    50   48   50 1
