@<TRIPOS>MOLECULE
ZINC28645580
   42    44     0     0     0
SMALL
USER_CHARGES

@<TRIPOS>ATOM
      1 C1          0.1518    1.5425    0.0234 C.3       1 <0>        -0.1539
      2 C2          0.1172    0.0165    0.0089 C.3       1 <0>        -0.0531
      3 C3         -1.3845   -0.3955    0.1088 C.3       1 <0>        -0.0959
      4 C4         -1.4698   -1.8146   -0.2127 C.3       1 <0>        -0.1240
      5 C5         -0.8158   -2.8261    0.6970 C.3       1 <0>        -0.0953
      6 C6          0.5972   -3.0872    0.2772 C.3       1 <0>        -0.0510
      7 C7          1.4968   -1.9150    0.7570 C.3       1 <0>        -0.0811
      8 H1          2.2566   -2.2754    1.4889 H         1 <0>         0.0858
      9 C8          0.8173   -0.5981    1.2405 C.3       1 <0>        -0.0752
     10 H2          0.2020   -0.6917    2.1402 H         1 <0>         0.0913
     11 C9          2.1359    0.2330    1.4227 C.3       1 <0>        -0.1306
     12 C10         2.9887   -0.1775    0.1961 C.3       1 <0>        -0.1334
     13 C11         2.1223   -1.2587   -0.5370 C.3       1 <0>        -0.0815
     14 H3          2.7100   -1.8907   -1.2037 H         1 <0>         0.0984
     15 C12         0.9188   -0.4949   -1.1684 C.3       1 <0>        -0.0709
     16 H4          0.2964   -1.1455   -1.7877 H         1 <0>         0.0885
     17 C13         1.3781    0.6700   -2.0530 C.3       1 <0>         0.0733
     18 O1          2.0307    0.1565   -3.2160 O.3       1 <0>        -0.5742
     19 C14         0.7533   -3.4737   -1.1703 C.3       1 <0>        -0.1421
     20 C15         1.0516   -4.3206    1.1097 C.3       1 <0>        -0.1534
     21 H5          1.1875    1.8824    0.0270 H         1 <0>         0.0616
     22 H6         -0.3532    1.9258   -0.8632 H         1 <0>         0.0568
     23 H7         -0.3540    1.9090    0.9166 H         1 <0>         0.0547
     24 H8         -1.7268   -0.1893    1.1237 H         1 <0>         0.0676
     25 H9         -1.9518    0.2139   -0.5957 H         1 <0>         0.0640
     26 H10        -2.5580   -2.0747   -0.2092 H         1 <0>         0.0378
     27 H11        -1.1918   -1.9784   -1.2541 H         1 <0>         0.0666
     28 H12        -0.8253   -2.4628    1.7297 H         1 <0>         0.0642
     29 H13        -1.3765   -3.7685    0.6647 H         1 <0>         0.0583
     30 H14         2.0084    1.2914    1.5158 H         1 <0>         0.0718
     31 H15         2.6485   -0.1266    2.3369 H         1 <0>         0.0500
     32 H16         3.2342    0.6623   -0.4257 H         1 <0>         0.0653
     33 H17         3.9128   -0.6571    0.5465 H         1 <0>         0.0548
     34 H18         0.5130    1.2613   -2.3532 H         1 <0>         0.0457
     35 H19         2.0718    1.2986   -1.4948 H         1 <0>         0.0514
     36 H20         2.3484    0.8393   -3.8225 H         1 <0>         0.3770
     37 H21         0.2628   -2.7311   -1.7996 H         1 <0>         0.0655
     38 H22         1.8128   -3.5202   -1.4217 H         1 <0>         0.0599
     39 H23         0.2971   -4.4495   -1.3370 H         1 <0>         0.0528
     40 H24         0.4048   -5.1688    0.8853 H         1 <0>         0.0505
     41 H25         2.0813   -4.5715    0.8549 H         1 <0>         0.0513
     42 H26         0.9872   -4.0857    2.1722 H         1 <0>         0.0509
@<TRIPOS>BOND
     1    1    2 1
     2    1   21 1
     3    1   22 1
     4    1   23 1
     5    2    9 1
     6    2   15 1
     7    2    3 1
     8    3    4 1
     9    3   24 1
    10    3   25 1
    11    4    5 1
    12    4   26 1
    13    4   27 1
    14    5    6 1
    15    5   28 1
    16    5   29 1
    17    6    7 1
    18    6   19 1
    19    6   20 1
    20    7    8 1
    21    7   13 1
    22    7    9 1
    23    9   10 1
    24    9   11 1
    25   11   12 1
    26   11   30 1
    27   11   31 1
    28   12   13 1
    29   12   32 1
    30   12   33 1
    31   13   14 1
    32   13   15 1
    33   15   16 1
    34   15   17 1
    35   17   18 1
    36   17   34 1
    37   17   35 1
    38   18   36 1
    39   19   37 1
    40   19   38 1
    41   19   39 1
    42   20   40 1
    43   20   41 1
    44   20   42 1
