@<TRIPOS>MOLECULE
ZINC01662183
   35    36     0     0     0
SMALL
USER_CHARGES
2-(4-phenyl-1-piperidyl)ethanol
@<TRIPOS>ATOM
      1 C1         -1.6196    3.4865    3.5091 C.ar      1 <0>        -0.1099
      2 C2         -1.3990    2.1219    3.5093 C.ar      1 <0>        -0.1129
      3 C3         -0.7933    1.5195    2.4226 C.ar      1 <0>        -0.1101
      4 C4         -0.4089    2.2816    1.3352 C.ar      1 <0>        -0.0977
      5 C5         -0.6251    3.6470    1.3371 C.ar      1 <0>        -0.1164
      6 C6         -1.2348    4.2487    2.4220 C.ar      1 <0>        -0.1145
      7 C7          0.2515    1.6249    0.1504 C.3       1 <0>        -0.0533
      8 C8         -0.5925    1.8636   -1.1047 C.3       1 <0>        -0.1392
      9 C9          0.1141    1.2459   -2.3136 C.3       1 <0>        -0.0072
     10 C10         2.2855    1.5988   -1.2973 C.3       1 <0>        -0.0014
     11 C11         1.6438    2.2270   -0.0582 C.3       1 <0>        -0.1414
     12 C12         2.0927    1.3871   -3.7012 C.3       1 <0>        -0.0002
     13 C13         1.1474    1.5879   -4.8874 C.3       1 <0>         0.0422
     14 O1          0.8730    2.9811   -5.0473 O.3       1 <0>        -0.5812
     15 H1         -2.0929    3.9572    4.3582 H         1 <0>         0.1277
     16 H2         -1.6996    1.5264    4.3587 H         1 <0>         0.1279
     17 H3         -0.6206    0.4534    2.4229 H         1 <0>         0.1235
     18 H4         -0.3209    4.2430    0.4894 H         1 <0>         0.1179
     19 H5         -1.4075    5.3148    2.4217 H         1 <0>         0.1266
     20 H6          0.3411    0.5537    0.3308 H         1 <0>         0.0951
     21 H7         -1.5709    1.3999   -0.9790 H         1 <0>         0.1129
     22 H8         -0.7145    2.9351   -1.2629 H         1 <0>         0.0900
     23 H9         -0.4773    1.4265   -3.2112 H         1 <0>         0.1302
     24 H10         0.2234    0.1722   -2.1608 H         1 <0>         0.1299
     25 H11         3.2712    2.0357   -1.4569 H         1 <0>         0.1299
     26 H12         2.3846    0.5235   -1.1493 H         1 <0>         0.1306
     27 H13         1.5569    3.3043   -0.1998 H         1 <0>         0.0899
     28 H14         2.2628    2.0237    0.8156 H         1 <0>         0.1142
     29 H15         3.0083    1.9552   -3.8661 H         1 <0>         0.1351
     30 H16         2.3343    0.3287   -3.6042 H         1 <0>         0.1426
     31 H17         1.6150    1.2033   -5.7938 H         1 <0>         0.0938
     32 H18         0.2157    1.0527   -4.7041 H         1 <0>         0.0737
     33 H19         0.2785    3.1830   -5.7828 H         1 <0>         0.4092
     34 N1          1.4376    1.8850   -2.4741 N.4       1 <0>        -0.3917
     35 H20         1.3096    2.9007   -2.5531 H         1 <0>         0.4341
@<TRIPOS>BOND
     1    1    6 ar
     2    1    2 ar
     3    1   15 1
     4    2    3 ar
     5    2   16 1
     6    3    4 ar
     7    3   17 1
     8    4    5 ar
     9    4    7 1
    10    5    6 ar
    11    5   18 1
    12    6   19 1
    13    7   11 1
    14    7    8 1
    15    7   20 1
    16    8    9 1
    17    8   21 1
    18    8   22 1
    19    9   23 1
    20    9   24 1
    21    9   34 1
    22   10   11 1
    23   10   25 1
    24   10   26 1
    25   10   34 1
    26   11   27 1
    27   11   28 1
    28   12   13 1
    29   12   29 1
    30   12   30 1
    31   12   34 1
    32   13   14 1
    33   13   31 1
    34   13   32 1
    35   14   33 1
    36   34   35 1
@<TRIPOS>MOLECULE
ZINC05682236
   57    60     0     0     0
SMALL
USER_CHARGES
[2-(4-phenyl-1-piperidyl)cyclohexyl] benzoate
@<TRIPOS>ATOM
      1 C1          3.1840   -0.5402   -8.3109 C.ar      1 <0>        -0.1098
      2 C2          2.9917    0.8287   -8.3109 C.ar      1 <0>        -0.1126
      3 C3          2.3572    1.4375   -7.2443 C.ar      1 <0>        -0.1094
      4 C4          1.9150    0.6773   -6.1777 C.ar      1 <0>        -0.0967
      5 C5          2.1120   -0.6909   -6.1753 C.ar      1 <0>        -0.1162
      6 C6          2.7418   -1.3004   -7.2444 C.ar      1 <0>        -0.1144
      7 C7          1.2237    1.3411   -5.0147 C.3       1 <0>        -0.0526
      8 C8          2.0163    1.0793   -3.7311 C.3       1 <0>        -0.1397
      9 C9          1.2778    1.7037   -2.5450 C.3       1 <0>        -0.0046
     10 C10        -0.8612    1.3981   -3.6421 C.3       1 <0>        -0.0107
     11 C11        -0.1865    0.7646   -4.8609 C.3       1 <0>        -0.1378
     12 C12        -0.7527    1.5927   -1.2315 C.3       1 <0>         0.0383
     13 H1         -0.7675    2.6825   -1.2255 H         1 <0>         0.1562
     14 C13        -0.0127    1.0858    0.0080 C.3       1 <0>        -0.1396
     15 C14        -0.7288    1.5792    1.2668 C.3       1 <0>        -0.1158
     16 C15        -2.1642    1.0497    1.2777 C.3       1 <0>        -0.1277
     17 C16        -2.9042    1.5565    0.0381 C.3       1 <0>        -0.1343
     18 C17        -2.1881    1.0631   -1.2207 C.3       1 <0>         0.0691
     19 H2         -2.7153    1.4241   -2.1037 H         1 <0>         0.1103
     20 O1         -2.1684   -0.3888   -1.2286 O.3       1 <0>        -0.3561
     21 C18        -3.2052   -1.0112   -1.8223 C.2       1 <0>         0.5136
     22 O2         -4.1011   -0.3590   -2.3196 O.2       1 <0>        -0.4888
     23 C19        -3.2525   -2.4870   -1.8684 C.ar      1 <0>        -0.1405
     24 C20        -2.2214   -3.2397   -1.3028 C.ar      1 <0>        -0.0654
     25 C21        -2.2741   -4.6175   -1.3456 C.ar      1 <0>        -0.1310
     26 C22        -3.3405   -5.2536   -1.9561 C.ar      1 <0>        -0.0712
     27 C23        -4.3632   -4.5137   -2.5228 C.ar      1 <0>        -0.1257
     28 C24        -4.3256   -3.1354   -2.4829 C.ar      1 <0>        -0.0499
     29 H3          3.6801   -1.0158   -9.1441 H         1 <0>         0.1276
     30 H4          3.3375    1.4226   -9.1440 H         1 <0>         0.1279
     31 H5          2.2073    2.5070   -7.2441 H         1 <0>         0.1237
     32 H6          1.7704   -1.2842   -5.3400 H         1 <0>         0.1172
     33 H7          2.8924   -2.3698   -7.2442 H         1 <0>         0.1262
     34 H8          1.1610    2.4148   -5.1916 H         1 <0>         0.0965
     35 H9          3.0073    1.5249   -3.8181 H         1 <0>         0.1156
     36 H10         2.1128    0.0049   -3.5750 H         1 <0>         0.0897
     37 H11         1.1945    2.7801   -2.6949 H         1 <0>         0.1327
     38 H12         1.8323    1.5068   -1.6275 H         1 <0>         0.1328
     39 H13        -1.8602    0.9793   -3.5214 H         1 <0>         0.1245
     40 H14        -0.9345    2.4760   -3.7869 H         1 <0>         0.1351
     41 H15        -0.7694    0.9853   -5.7552 H         1 <0>         0.1148
     42 H16        -0.1253   -0.3149   -4.7229 H         1 <0>         0.0889
     43 H17         0.0021   -0.0041    0.0020 H         1 <0>         0.0946
     44 H18         1.0099    1.4631    0.0003 H         1 <0>         0.0907
     45 H19        -0.2017    1.2182    2.1499 H         1 <0>         0.0881
     46 H20        -0.7436    2.6691    1.2728 H         1 <0>         0.0753
     47 H21        -2.6744    1.4012    2.1745 H         1 <0>         0.0821
     48 H22        -2.1494   -0.0402    1.2717 H         1 <0>         0.0760
     49 H23        -2.9190    2.6464    0.0441 H         1 <0>         0.0931
     50 H24        -3.9268    1.1792    0.0459 H         1 <0>         0.0899
     51 H25        -1.3862   -2.7444   -0.8299 H         1 <0>         0.1339
     52 H26        -1.4791   -5.2010   -0.9052 H         1 <0>         0.1361
     53 H27        -3.3745   -6.3325   -1.9908 H         1 <0>         0.1364
     54 H28        -5.1927   -5.0165   -2.9978 H         1 <0>         0.1395
     55 H29        -5.1242   -2.5591   -2.9262 H         1 <0>         0.1399
     56 N1         -0.0624    1.0892   -2.4369 N.4       1 <0>        -0.3935
     57 H30         0.0435    0.0709   -2.3595 H         1 <0>         0.4281
@<TRIPOS>BOND
     1    1    6 ar
     2    1    2 ar
     3    1   29 1
     4    2    3 ar
     5    2   30 1
     6    3    4 ar
     7    3   31 1
     8    4    5 ar
     9    4    7 1
    10    5    6 ar
    11    5   32 1
    12    6   33 1
    13    7   11 1
    14    7    8 1
    15    7   34 1
    16    8    9 1
    17    8   35 1
    18    8   36 1
    19    9   37 1
    20    9   38 1
    21    9   56 1
    22   10   11 1
    23   10   39 1
    24   10   40 1
    25   10   56 1
    26   11   41 1
    27   11   42 1
    28   12   13 1
    29   12   18 1
    30   12   14 1
    31   12   56 1
    32   14   15 1
    33   14   43 1
    34   14   44 1
    35   15   16 1
    36   15   45 1
    37   15   46 1
    38   16   17 1
    39   16   47 1
    40   16   48 1
    41   17   18 1
    42   17   49 1
    43   17   50 1
    44   18   19 1
    45   18   20 1
    46   20   21 1
    47   21   22 2
    48   21   23 1
    49   23   28 ar
    50   23   24 ar
    51   24   25 ar
    52   24   51 1
    53   25   26 ar
    54   25   52 1
    55   26   27 ar
    56   26   53 1
    57   27   28 ar
    58   27   54 1
    59   28   55 1
    60   56   57 1
@<TRIPOS>MOLECULE
ZINC05682238
   57    60     0     0     0
SMALL
USER_CHARGES
[2-(4-phenyl-1-piperidyl)cyclohexyl] benzoate
@<TRIPOS>ATOM
      1 C1          2.8287   -1.5031    8.1956 C.ar      1 <0>        -0.1098
      2 C2          1.5413   -1.9983    8.1057 C.ar      1 <0>        -0.1127
      3 C3          0.7346   -1.6374    7.0426 C.ar      1 <0>        -0.1094
      4 C4          1.2151   -0.7806    6.0700 C.ar      1 <0>        -0.0967
      5 C5          2.5042   -0.2892    6.1575 C.ar      1 <0>        -0.1162
      6 C6          3.3094   -0.6467    7.2227 C.ar      1 <0>        -0.1143
      7 C7          0.3357   -0.3872    4.9112 C.3       1 <0>        -0.0524
      8 C8          0.9926   -0.8242    3.5989 C.3       1 <0>        -0.1380
      9 C9          0.1252   -0.3684    2.4234 C.3       1 <0>        -0.0130
     10 C10        -0.6895    1.5321    3.6869 C.3       1 <0>        -0.0032
     11 C11         0.1536    1.1331    4.9001 C.3       1 <0>        -0.1400
     12 C12        -0.7288    1.5792    1.2668 C.3       1 <0>         0.0384
     13 H1         -0.8303    2.6631    1.3221 H         1 <0>         0.1480
     14 C13        -2.1173    0.9395    1.2046 C.3       1 <0>        -0.1361
     15 C14        -2.8573    1.4464   -0.0349 C.3       1 <0>        -0.1204
     16 C15        -2.0664    1.0715   -1.2898 C.3       1 <0>        -0.1264
     17 C16        -0.6779    1.7112   -1.2277 C.3       1 <0>        -0.1333
     18 C17         0.0620    1.2044    0.0119 C.3       1 <0>         0.0690
     19 H2          0.1635    0.1205   -0.0434 H         1 <0>         0.1094
     20 O1          1.3797    1.8115    0.0709 O.3       1 <0>        -0.3625
     21 C18         2.3831    1.1562   -0.5444 C.2       1 <0>         0.5147
     22 O2          2.1633    0.1064   -1.1146 O.2       1 <0>        -0.4873
     23 C19         3.7507    1.7143   -0.5257 C.ar      1 <0>        -0.1414
     24 C20         4.0058    2.9237    0.1239 C.ar      1 <0>        -0.0654
     25 C21         5.2863    3.4366    0.1420 C.ar      1 <0>        -0.1310
     26 C22         6.3145    2.7609   -0.4910 C.ar      1 <0>        -0.0709
     27 C23         6.0676    1.5648   -1.1415 C.ar      1 <0>        -0.1259
     28 C24         4.7930    1.0378   -1.1625 C.ar      1 <0>        -0.0495
     29 H3          3.4589   -1.7850    9.0261 H         1 <0>         0.1276
     30 H4          1.1657   -2.6674    8.8657 H         1 <0>         0.1279
     31 H5         -0.2711   -2.0246    6.9722 H         1 <0>         0.1237
     32 H6          2.8811    0.3766    5.3953 H         1 <0>         0.1171
     33 H7          4.3152   -0.2595    7.2932 H         1 <0>         0.1262
     34 H8         -0.6366   -0.8698    5.0103 H         1 <0>         0.0964
     35 H9          1.0860   -1.9101    3.5827 H         1 <0>         0.1149
     36 H10         1.9811   -0.3721    3.5186 H         1 <0>         0.0886
     37 H11        -0.8587   -0.8318    2.4969 H         1 <0>         0.1362
     38 H12         0.5973   -0.6656    1.4870 H         1 <0>         0.1249
     39 H13        -0.8090    2.6154    3.6681 H         1 <0>         0.1316
     40 H14        -1.6695    1.0599    3.7545 H         1 <0>         0.1333
     41 H15        -0.3524    1.4456    5.8136 H         1 <0>         0.1158
     42 H16         1.1290    1.6160    4.8402 H         1 <0>         0.0898
     43 H17        -2.0158   -0.1443    1.1494 H         1 <0>         0.0904
     44 H18        -2.6807    1.2066    2.0987 H         1 <0>         0.0982
     45 H19        -3.8465    0.9906   -0.0792 H         1 <0>         0.0913
     46 H20        -2.9588    2.5302    0.0204 H         1 <0>         0.0791
     47 H21        -1.9649   -0.0123   -1.3451 H         1 <0>         0.0742
     48 H22        -2.5936    1.4326   -2.1729 H         1 <0>         0.0886
     49 H23        -0.7794    2.7951   -1.1724 H         1 <0>         0.0869
     50 H24        -0.1145    1.4442   -2.1217 H         1 <0>         0.0899
     51 H25         3.2032    3.4544    0.6145 H         1 <0>         0.1345
     52 H26         5.4858    4.3697    0.6479 H         1 <0>         0.1365
     53 H27         7.3144    3.1688   -0.4771 H         1 <0>         0.1366
     54 H28         6.8748    1.0426   -1.6336 H         1 <0>         0.1397
     55 H29         4.6017    0.1041   -1.6705 H         1 <0>         0.1401
     56 N1          0.0090    1.1049    2.4558 N.4       1 <0>        -0.3935
     57 H30         0.9509    1.5135    2.4485 H         1 <0>         0.4297
@<TRIPOS>BOND
     1    1    6 ar
     2    1    2 ar
     3    1   29 1
     4    2    3 ar
     5    2   30 1
     6    3    4 ar
     7    3   31 1
     8    4    5 ar
     9    4    7 1
    10    5    6 ar
    11    5   32 1
    12    6   33 1
    13    7   11 1
    14    7    8 1
    15    7   34 1
    16    8    9 1
    17    8   35 1
    18    8   36 1
    19    9   37 1
    20    9   38 1
    21    9   56 1
    22   10   11 1
    23   10   39 1
    24   10   40 1
    25   10   56 1
    26   11   41 1
    27   11   42 1
    28   12   13 1
    29   12   18 1
    30   12   14 1
    31   12   56 1
    32   14   15 1
    33   14   43 1
    34   14   44 1
    35   15   16 1
    36   15   45 1
    37   15   46 1
    38   16   17 1
    39   16   47 1
    40   16   48 1
    41   17   18 1
    42   17   49 1
    43   17   50 1
    44   18   19 1
    45   18   20 1
    46   20   21 1
    47   21   22 2
    48   21   23 1
    49   23   28 ar
    50   23   24 ar
    51   24   25 ar
    52   24   51 1
    53   25   26 ar
    54   25   52 1
    55   26   27 ar
    56   26   53 1
    57   27   28 ar
    58   27   54 1
    59   28   55 1
    60   56   57 1
@<TRIPOS>MOLECULE
ZINC05682240
   57    60     0     0     0
SMALL
USER_CHARGES
[2-(4-phenyl-1-piperidyl)cyclohexyl] benzoate
@<TRIPOS>ATOM
      1 C1          1.7123    3.1092    8.8012 C.ar      1 <0>        -0.1098
      2 C2          2.9543    2.5100    8.7059 C.ar      1 <0>        -0.1127
      3 C3          3.4806    2.2037    7.4649 C.ar      1 <0>        -0.1094
      4 C4          2.7650    2.4970    6.3191 C.ar      1 <0>        -0.0968
      5 C5          1.5255    3.1015    6.4142 C.ar      1 <0>        -0.1162
      6 C6          0.9969    3.4030    7.6554 C.ar      1 <0>        -0.1143
      7 C7          3.3390    2.1635    4.9662 C.3       1 <0>        -0.0525
      8 C8          2.4042    1.1930    4.2390 C.3       1 <0>        -0.1386
      9 C9          2.9619    0.9045    2.8433 C.3       1 <0>        -0.0120
     10 C10         4.0040    3.0901    2.7452 C.3       1 <0>        -0.0023
     11 C11         3.4774    3.4438    4.1379 C.3       1 <0>        -0.1402
     12 C12         3.4756    1.9068    0.7004 C.3       1 <0>         0.0382
     13 H1          3.6966    2.8535    0.2075 H         1 <0>         0.1482
     14 C13         4.7220    1.0196    0.6829 C.3       1 <0>        -0.1361
     15 C14         5.1397    0.7554   -0.7651 C.3       1 <0>        -0.1205
     16 C15         4.0008    0.0495   -1.5037 C.3       1 <0>        -0.1263
     17 C16         2.7544    0.9367   -1.4862 C.3       1 <0>        -0.1331
     18 C17         2.3368    1.2009   -0.0382 C.3       1 <0>         0.0694
     19 H2          2.1158    0.2541    0.4547 H         1 <0>         0.1085
     20 O1          1.1539    2.0428   -0.0216 O.3       1 <0>        -0.3629
     21 C18        -0.0404    1.4199   -0.0370 C.2       1 <0>         0.5145
     22 O2         -0.0923    0.2066   -0.0637 O.2       1 <0>        -0.4868
     23 C19        -1.2870    2.2125   -0.0277 C.ar      1 <0>        -0.1412
     24 C20        -1.2311    3.6072    0.0086 C.ar      1 <0>        -0.0656
     25 C21        -2.3990    4.3413    0.0113 C.ar      1 <0>        -0.1309
     26 C22        -3.6240    3.6984   -0.0104 C.ar      1 <0>        -0.0710
     27 C23        -3.6868    2.3165   -0.0407 C.ar      1 <0>        -0.1258
     28 C24        -2.5266    1.5702   -0.0495 C.ar      1 <0>        -0.0495
     29 H3          1.3010    3.3482    9.7708 H         1 <0>         0.1276
     30 H4          3.5134    2.2808    9.6011 H         1 <0>         0.1279
     31 H5          4.4510    1.7355    7.3905 H         1 <0>         0.1237
     32 H6          0.9683    3.3346    5.5188 H         1 <0>         0.1171
     33 H7          0.0267    3.8715    7.7298 H         1 <0>         0.1262
     34 H8          4.3186    1.7019    5.0899 H         1 <0>         0.0965
     35 H9          1.4138    1.6395    4.1500 H         1 <0>         0.0883
     36 H10         2.3353    0.2627    4.8027 H         1 <0>         0.1152
     37 H11         2.2911    0.2250    2.3175 H         1 <0>         0.1252
     38 H12         3.9463    0.4454    2.9334 H         1 <0>         0.1371
     39 H13         4.9836    2.6207    2.8357 H         1 <0>         0.1328
     40 H14         4.0902    3.9979    2.1481 H         1 <0>         0.1313
     41 H15         2.5040    3.9257    4.0473 H         1 <0>         0.0897
     42 H16         4.1753    4.1216    4.6295 H         1 <0>         0.1159
     43 H17         5.5334    1.5225    1.2091 H         1 <0>         0.0976
     44 H18         4.5011    0.0728    1.1758 H         1 <0>         0.0914
     45 H19         5.3607    1.7022   -1.2580 H         1 <0>         0.0790
     46 H20         6.0276    0.1234   -0.7776 H         1 <0>         0.0913
     47 H21         4.2983   -0.1387   -2.5353 H         1 <0>         0.0887
     48 H22         3.7798   -0.8972   -1.0108 H         1 <0>         0.0743
     49 H23         1.9430    0.4338   -2.0124 H         1 <0>         0.0900
     50 H24         2.9754    1.8835   -1.9791 H         1 <0>         0.0869
     51 H25        -0.2756    4.1102    0.0301 H         1 <0>         0.1344
     52 H26        -2.3571    5.4203    0.0353 H         1 <0>         0.1365
     53 H27        -4.5354    4.2779   -0.0040 H         1 <0>         0.1367
     54 H28        -4.6462    1.8210   -0.0571 H         1 <0>         0.1398
     55 H29        -2.5770    0.4917   -0.0735 H         1 <0>         0.1401
     56 N1          3.0476    2.1734    2.0892 N.4       1 <0>        -0.3942
     57 H30         2.1207    2.6147    2.0735 H         1 <0>         0.4289
@<TRIPOS>BOND
     1    1    6 ar
     2    1    2 ar
     3    1   29 1
     4    2    3 ar
     5    2   30 1
     6    3    4 ar
     7    3   31 1
     8    4    5 ar
     9    4    7 1
    10    5    6 ar
    11    5   32 1
    12    6   33 1
    13    7   11 1
    14    7    8 1
    15    7   34 1
    16    8    9 1
    17    8   35 1
    18    8   36 1
    19    9   37 1
    20    9   38 1
    21    9   56 1
    22   10   11 1
    23   10   39 1
    24   10   40 1
    25   10   56 1
    26   11   41 1
    27   11   42 1
    28   12   13 1
    29   12   18 1
    30   12   14 1
    31   12   56 1
    32   14   15 1
    33   14   43 1
    34   14   44 1
    35   15   16 1
    36   15   45 1
    37   15   46 1
    38   16   17 1
    39   16   47 1
    40   16   48 1
    41   17   18 1
    42   17   49 1
    43   17   50 1
    44   18   19 1
    45   18   20 1
    46   20   21 1
    47   21   22 2
    48   21   23 1
    49   23   28 ar
    50   23   24 ar
    51   24   25 ar
    52   24   51 1
    53   25   26 ar
    54   25   52 1
    55   26   27 ar
    56   26   53 1
    57   27   28 ar
    58   27   54 1
    59   28   55 1
    60   56   57 1
@<TRIPOS>MOLECULE
ZINC05682242
   57    60     0     0     0
SMALL
USER_CHARGES
[2-(4-phenyl-1-piperidyl)cyclohexyl] benzoate
@<TRIPOS>ATOM
      1 C1          3.7260   -2.5415   -8.8412 C.ar      1 <0>        -0.1098
      2 C2          3.9460   -3.9041   -8.7652 C.ar      1 <0>        -0.1127
      3 C3          3.9745   -4.5320   -7.5340 C.ar      1 <0>        -0.1094
      4 C4          3.7834   -3.7972   -6.3788 C.ar      1 <0>        -0.0968
      5 C5          3.5581   -2.4355   -6.4552 C.ar      1 <0>        -0.1162
      6 C6          3.5340   -1.8068   -7.6861 C.ar      1 <0>        -0.1143
      7 C7          3.8144   -4.4818   -5.0366 C.3       1 <0>        -0.0527
      8 C8          2.4702   -4.2847   -4.3305 C.3       1 <0>        -0.1386
      9 C9          2.5286   -4.9294   -2.9438 C.3       1 <0>        -0.0089
     10 C10         4.9143   -4.5307   -2.7957 C.3       1 <0>        -0.0069
     11 C11         4.9271   -3.8741   -4.1780 C.3       1 <0>        -0.1397
     12 C12         3.6050   -4.8099   -0.7787 C.3       1 <0>         0.0384
     13 H1          3.6975   -5.8959   -0.7824 H         1 <0>         0.1561
     14 C13         4.7826   -4.2002   -0.0155 C.3       1 <0>        -0.1408
     15 C14         4.7796   -4.7172    1.4245 C.3       1 <0>        -0.1160
     16 C15         3.4690   -4.3193    2.1065 C.3       1 <0>        -0.1277
     17 C16         2.2914   -4.9290    1.3433 C.3       1 <0>        -0.1340
     18 C17         2.2944   -4.4120   -0.0967 C.3       1 <0>         0.0700
     19 H2          1.4555   -4.8464   -0.6404 H         1 <0>         0.1086
     20 O1          2.1711   -2.9653   -0.0918 O.3       1 <0>        -0.3569
     21 C18         0.9238   -2.4577   -0.1288 C.2       1 <0>         0.5139
     22 O2         -0.0345   -3.2032   -0.1641 O.2       1 <0>        -0.4881
     23 C19         0.7215   -0.9943   -0.1263 C.ar      1 <0>        -0.1405
     24 C20        -0.5699   -0.4648   -0.1646 C.ar      1 <0>        -0.0499
     25 C21        -0.7516    0.9026   -0.1616 C.ar      1 <0>        -0.1257
     26 C22         0.3422    1.7489   -0.1208 C.ar      1 <0>        -0.0712
     27 C23         1.6247    1.2310   -0.0828 C.ar      1 <0>        -0.1310
     28 C24         1.8209   -0.1345   -0.0853 C.ar      1 <0>        -0.0655
     29 H3          3.7045   -2.0508   -9.8031 H         1 <0>         0.1276
     30 H4          4.0961   -4.4780   -9.6677 H         1 <0>         0.1279
     31 H5          4.1464   -5.5966   -7.4747 H         1 <0>         0.1237
     32 H6          3.4044   -1.8622   -5.5529 H         1 <0>         0.1170
     33 H7          3.3624   -0.7422   -7.7455 H         1 <0>         0.1262
     34 H8          4.0004   -5.5468   -5.1752 H         1 <0>         0.0966
     35 H9          1.6792   -4.7528   -4.9164 H         1 <0>         0.1152
     36 H10         2.2658   -3.2189   -4.2280 H         1 <0>         0.0885
     37 H11         2.7193   -5.9975   -3.0476 H         1 <0>         0.1352
     38 H12         1.5777   -4.7784   -2.4327 H         1 <0>         0.1253
     39 H13         5.6961   -4.0902   -2.1771 H         1 <0>         0.1346
     40 H14         5.0938   -5.6007   -2.9002 H         1 <0>         0.1330
     41 H15         5.8915   -4.0489   -4.6550 H         1 <0>         0.1156
     42 H16         4.7617   -2.8018   -4.0736 H         1 <0>         0.0894
     43 H17         4.6900   -3.1141   -0.0118 H         1 <0>         0.0947
     44 H18         5.7162   -4.4836   -0.5013 H         1 <0>         0.0924
     45 H19         5.6185   -4.2828    1.9682 H         1 <0>         0.0881
     46 H20         4.8721   -5.8032    1.4208 H         1 <0>         0.0753
     47 H21         3.3764   -3.2333    2.1102 H         1 <0>         0.0760
     48 H22         3.4669   -4.6876    3.1324 H         1 <0>         0.0821
     49 H23         1.3577   -4.6456    1.8291 H         1 <0>         0.0899
     50 H24         2.3840   -6.0150    1.3396 H         1 <0>         0.0932
     51 H25        -1.4246   -1.1244   -0.1961 H         1 <0>         0.1399
     52 H26        -1.7498    1.3135   -0.1957 H         1 <0>         0.1395
     53 H27         0.1943    2.8188   -0.1186 H         1 <0>         0.1364
     54 H28         2.4742    1.8972   -0.0514 H         1 <0>         0.1361
     55 H29         2.8224   -0.5375   -0.0552 H         1 <0>         0.1340
     56 N1          3.6027   -4.2840   -2.1594 N.4       1 <0>        -0.3944
     57 H30         3.4317   -3.2720   -2.1304 H         1 <0>         0.4277
@<TRIPOS>BOND
     1    1    6 ar
     2    1    2 ar
     3    1   29 1
     4    2    3 ar
     5    2   30 1
     6    3    4 ar
     7    3   31 1
     8    4    5 ar
     9    4    7 1
    10    5    6 ar
    11    5   32 1
    12    6   33 1
    13    7   11 1
    14    7    8 1
    15    7   34 1
    16    8    9 1
    17    8   35 1
    18    8   36 1
    19    9   37 1
    20    9   38 1
    21    9   56 1
    22   10   11 1
    23   10   39 1
    24   10   40 1
    25   10   56 1
    26   11   41 1
    27   11   42 1
    28   12   13 1
    29   12   18 1
    30   12   14 1
    31   12   56 1
    32   14   15 1
    33   14   43 1
    34   14   44 1
    35   15   16 1
    36   15   45 1
    37   15   46 1
    38   16   17 1
    39   16   47 1
    40   16   48 1
    41   17   18 1
    42   17   49 1
    43   17   50 1
    44   18   19 1
    45   18   20 1
    46   20   21 1
    47   21   22 2
    48   21   23 1
    49   23   28 ar
    50   23   24 ar
    51   24   25 ar
    52   24   51 1
    53   25   26 ar
    54   25   52 1
    55   26   27 ar
    56   26   53 1
    57   27   28 ar
    58   27   54 1
    59   28   55 1
    60   56   57 1
@<TRIPOS>MOLECULE
ZINC28234701
   39    41     0     0     0
SMALL
USER_CHARGES
(1S,2S)-2-[[(1R)-indan-1-yl]amino]cyclohexan-1-ol
@<TRIPOS>ATOM
      1 C1         -1.2368    2.2038    3.4902 C.ar      1 <0>        -0.0784
      2 C2         -2.5087    2.5990    3.1193 C.ar      1 <0>        -0.1169
      3 C3         -2.9068    2.4918    1.8012 C.ar      1 <0>        -0.0703
      4 C4         -2.0358    1.9893    0.8487 C.ar      1 <0>        -0.1656
      5 C5         -0.7621    1.5943    1.2209 C.ar      1 <0>        -0.0684
      6 C6         -0.3669    1.7025    2.5419 C.ar      1 <0>        -0.1074
      7 C7         -0.0127    1.0858    0.0080 C.3       1 <0>        -0.1043
      8 C8         -0.8003    1.6174   -1.2083 C.3       1 <0>        -0.1320
      9 C9         -2.2257    1.7735   -0.6374 C.3       1 <0>         0.0955
     10 H1         -2.8060    2.5817   -1.1065 H         1 <0>         0.1336
     11 N1         -3.0081    0.5539   -0.8794 N.4       1 <0>        -0.5392
     12 C10        -4.4470    0.8484   -0.9073 C.3       1 <0>         0.0441
     13 H2         -4.6314    1.6477   -0.1744 H         1 <0>         0.1352
     14 C11        -4.8470    1.3049   -2.3117 C.3       1 <0>        -0.1393
     15 C12        -6.3457    1.6116   -2.3408 C.3       1 <0>        -0.1211
     16 C13        -7.1313    0.3519   -1.9709 C.3       1 <0>        -0.1299
     17 C14        -6.7313   -0.1047   -0.5665 C.3       1 <0>        -0.1485
     18 C15        -5.2326   -0.4114   -0.5375 C.3       1 <0>         0.1025
     19 H3         -4.9835   -1.2478   -1.2072 H         1 <0>         0.0749
     20 O1         -4.8590   -0.8378    0.7742 O.3       1 <0>        -0.6130
     21 H4         -0.9238    2.2873    4.5204 H         1 <0>         0.1376
     22 H5         -3.1902    2.9915    3.8595 H         1 <0>         0.1364
     23 H6         -3.9006    2.8004    1.5123 H         1 <0>         0.1232
     24 H7          0.6264    1.3940    2.8324 H         1 <0>         0.1327
     25 H8          1.0165    1.4738    0.0236 H         1 <0>         0.0998
     26 H9          0.0098   -0.0138    0.0253 H         1 <0>         0.0920
     27 H10        -0.3648    2.5721   -1.5384 H         1 <0>         0.1185
     28 H11        -0.7457    0.8864   -2.0285 H         1 <0>         0.1020
     29 H12        -2.7184    0.1184   -1.8471 H         1 <0>         0.4395
     30 H13        -4.2822    2.2106   -2.5776 H         1 <0>         0.0927
     31 H14        -4.6219    0.5070   -3.0346 H         1 <0>         0.0913
     32 H15        -6.5707    2.4096   -1.6179 H         1 <0>         0.0757
     33 H16        -6.6333    1.9398   -3.3505 H         1 <0>         0.0887
     34 H17        -8.2088    0.5724   -1.9917 H         1 <0>         0.0829
     35 H18        -6.9063   -0.4461   -2.6938 H         1 <0>         0.0723
     36 H19        -6.9564    0.6932    0.1565 H         1 <0>         0.0815
     37 H20        -7.2961   -1.0104   -0.3006 H         1 <0>         0.0858
     38 H21        -5.3220   -1.7334    1.2141 H         1 <0>         0.4417
     39 H22        -2.8123   -0.1726   -0.0770 H         1 <0>         0.4542
@<TRIPOS>BOND
     1    1    6 ar
     2    1    2 ar
     3    1   21 1
     4    2    3 ar
     5    2   22 1
     6    3    4 ar
     7    3   23 1
     8    4    9 1
     9    4    5 ar
    10    5    6 ar
    11    5    7 1
    12    6   24 1
    13    7    8 1
    14    7   25 1
    15    7   26 1
    16    8    9 1
    17    8   27 1
    18    8   28 1
    19    9   10 1
    20    9   11 1
    21   11   12 1
    22   11   29 1
    23   11   39 1
    24   12   13 1
    25   12   18 1
    26   12   14 1
    27   14   15 1
    28   14   30 1
    29   14   31 1
    30   15   16 1
    31   15   32 1
    32   15   33 1
    33   16   17 1
    34   16   34 1
    35   16   35 1
    36   17   18 1
    37   17   36 1
    38   17   37 1
    39   18   19 1
    40   18   20 1
    41   20   38 1
@<TRIPOS>MOLECULE
ZINC28234710
   39    41     0     0     0
SMALL
USER_CHARGES
(1S,2R)-2-[[(1R)-indan-1-yl]amino]cyclohexan-1-ol
@<TRIPOS>ATOM
      1 C1         -2.5617    1.7151    1.5935 C.ar      1 <0>        -0.0840
      2 C2         -1.3387    1.3995    2.1556 C.ar      1 <0>        -0.1114
      3 C3         -0.1883    2.0022    1.6860 C.ar      1 <0>        -0.0947
      4 C4         -0.2553    2.9224    0.6531 C.ar      1 <0>        -0.1644
      5 C5         -1.4780    3.2377    0.0910 C.ar      1 <0>        -0.0661
      6 C6         -2.6306    2.6323    0.5633 C.ar      1 <0>        -0.1023
      7 C7         -1.2862    4.2544   -1.0140 C.3       1 <0>        -0.0922
      8 C8          0.1156    4.8559   -0.7682 C.3       1 <0>        -0.1354
      9 C9          0.8411    3.7100   -0.0316 C.3       1 <0>         0.0983
     10 H1          1.4598    3.0811   -0.6886 H         1 <0>         0.1410
     11 N1          1.7751    4.2542    0.9631 N.4       1 <0>        -0.5390
     12 C10         3.0940    4.5030    0.3661 C.3       1 <0>         0.0438
     13 H2          2.9280    4.8080   -0.6777 H         1 <0>         0.1414
     14 C11         3.9303    3.2231    0.4253 C.3       1 <0>        -0.1366
     15 C12         5.3040    3.4823   -0.1966 C.3       1 <0>        -0.1179
     16 C13         6.0145    4.5922    0.5807 C.3       1 <0>        -0.1258
     17 C14         5.1782    5.8721    0.5215 C.3       1 <0>        -0.1499
     18 C15         3.8045    5.6129    1.1433 C.3       1 <0>         0.1031
     19 H3          3.1993    6.5310    1.1704 H         1 <0>         0.0740
     20 O1          3.9662    5.2122    2.5054 O.3       1 <0>        -0.6087
     21 H4         -3.4624    1.2450    1.9598 H         1 <0>         0.1383
     22 H5         -1.2830    0.6826    2.9615 H         1 <0>         0.1378
     23 H6          0.7667    1.7552    2.1257 H         1 <0>         0.1238
     24 H7         -3.5864    2.8786    0.1249 H         1 <0>         0.1341
     25 H8         -1.3456    3.7507   -1.9901 H         1 <0>         0.1000
     26 H9         -2.0730    5.0203   -0.9482 H         1 <0>         0.0971
     27 H10         0.5809    5.1075   -1.7327 H         1 <0>         0.1083
     28 H11         0.0221    5.7661   -0.1577 H         1 <0>         0.0992
     29 H12         1.3809    5.2032    1.3555 H         1 <0>         0.4428
     30 H13         4.0548    2.9146    1.4738 H         1 <0>         0.0966
     31 H14         3.4195    2.4251   -0.1335 H         1 <0>         0.0826
     32 H15         5.9053    2.5621   -0.1541 H         1 <0>         0.0851
     33 H16         5.1795    3.7908   -1.2451 H         1 <0>         0.0723
     34 H17         6.1389    4.2837    1.6292 H         1 <0>         0.0772
     35 H18         7.0021    4.7785    0.1337 H         1 <0>         0.0775
     36 H19         5.6890    6.6700    1.0804 H         1 <0>         0.0858
     37 H20         5.0538    6.1807   -0.5270 H         1 <0>         0.0808
     38 H21         4.4596    5.8854    3.2219 H         1 <0>         0.4395
     39 H22         1.8913    3.5362    1.7883 H         1 <0>         0.4480
@<TRIPOS>BOND
     1    1    6 ar
     2    1    2 ar
     3    1   21 1
     4    2    3 ar
     5    2   22 1
     6    3    4 ar
     7    3   23 1
     8    4    9 1
     9    4    5 ar
    10    5    6 ar
    11    5    7 1
    12    6   24 1
    13    7    8 1
    14    7   25 1
    15    7   26 1
    16    8    9 1
    17    8   27 1
    18    8   28 1
    19    9   10 1
    20    9   11 1
    21   11   12 1
    22   11   29 1
    23   11   39 1
    24   12   13 1
    25   12   18 1
    26   12   14 1
    27   14   15 1
    28   14   30 1
    29   14   31 1
    30   15   16 1
    31   15   32 1
    32   15   33 1
    33   16   17 1
    34   16   34 1
    35   16   35 1
    36   17   18 1
    37   17   36 1
    38   17   37 1
    39   18   19 1
    40   18   20 1
    41   20   38 1
@<TRIPOS>MOLECULE
ZINC37491161
   39    41     0     0     0
SMALL
USER_CHARGES

@<TRIPOS>ATOM
      1 C1         -0.0167    1.3768    0.0096 C.ar      1 <0>        -0.0790
      2 C2          1.1719    2.0830    0.0021 C.ar      1 <0>        -0.1149
      3 C3          2.3755    1.4061   -0.0130 C.ar      1 <0>        -0.0850
      4 C4          2.3964    0.0213   -0.0206 C.ar      1 <0>        -0.1672
      5 C5          1.2082   -0.6847   -0.0132 C.ar      1 <0>        -0.0667
      6 C6          0.0021   -0.0041    0.0020 C.ar      1 <0>        -0.1035
      7 C7          1.4958   -2.1708   -0.0245 C.3       1 <0>        -0.1010
      8 C8          2.9655   -2.2943   -0.4796 C.3       1 <0>        -0.1324
      9 C9          3.5639   -0.9420   -0.0373 C.3       1 <0>         0.0706
     10 H1          4.3177   -0.6104   -0.7514 H         1 <0>         0.1477
     11 N1          4.1483   -1.0580    1.3054 N.4       1 <0>        -0.4971
     12 C10         4.7582    0.2230    1.6863 C.3       1 <0>         0.0306
     13 H2          4.0169    1.0176    1.6021 H         1 <0>         0.1476
     14 C11         5.9358    0.5235    0.7570 C.3       1 <0>        -0.1370
     15 C12         6.5710    1.8577    1.1537 C.3       1 <0>        -0.1168
     16 C13         7.0691    1.7759    2.5980 C.3       1 <0>        -0.1262
     17 C14         5.8915    1.4753    3.5274 C.3       1 <0>        -0.1511
     18 C15         5.2563    0.1412    3.1307 C.3       1 <0>         0.0904
     19 H3          4.4173   -0.0729    3.7928 H         1 <0>         0.0784
     20 O1          6.2282   -0.9006    3.2411 O.3       1 <0>        -0.5707
     21 H4         -0.9588    1.9046    0.0259 H         1 <0>         0.1391
     22 H5          1.1591    3.1629    0.0076 H         1 <0>         0.1385
     23 H6          3.3036    1.9584   -0.0192 H         1 <0>         0.1285
     24 H7         -0.9268   -0.5550    0.0083 H         1 <0>         0.1347
     25 H8          1.3732   -2.5874    0.9752 H         1 <0>         0.0925
     26 H9          0.8376   -2.6780   -0.7299 H         1 <0>         0.1018
     27 H10         3.4603   -3.1218    0.0288 H         1 <0>         0.1006
     28 H11         3.0276   -2.4101   -1.5616 H         1 <0>         0.1185
     29 H12         3.4251   -1.2963    1.9675 H         1 <0>         0.4237
     30 H13         6.6771   -0.2712    0.8412 H         1 <0>         0.0971
     31 H14         5.5809    0.5818   -0.2720 H         1 <0>         0.0844
     32 H15         7.4100    2.0718    0.4916 H         1 <0>         0.0864
     33 H16         5.8297    2.6523    1.0695 H         1 <0>         0.0718
     34 H17         7.8104    0.9812    2.6822 H         1 <0>         0.0776
     35 H18         7.5217    2.7264    2.8807 H         1 <0>         0.0786
     36 H19         6.2464    1.4171    4.5564 H         1 <0>         0.0877
     37 H20         5.1502    2.2700    3.4432 H         1 <0>         0.0829
     38 H21         6.5883   -1.0098    4.1319 H         1 <0>         0.4057
     39 H22         4.8539   -1.7792    1.3040 H         1 <0>         0.4329
@<TRIPOS>BOND
     1    1    6 ar
     2    1    2 ar
     3    1   21 1
     4    2    3 ar
     5    2   22 1
     6    3    4 ar
     7    3   23 1
     8    4    9 1
     9    4    5 ar
    10    5    6 ar
    11    5    7 1
    12    6   24 1
    13    7    8 1
    14    7   25 1
    15    7   26 1
    16    8    9 1
    17    8   27 1
    18    8   28 1
    19    9   10 1
    20    9   11 1
    21   11   12 1
    22   11   29 1
    23   11   39 1
    24   12   13 1
    25   12   18 1
    26   12   14 1
    27   14   15 1
    28   14   30 1
    29   14   31 1
    30   15   16 1
    31   15   32 1
    32   15   33 1
    33   16   17 1
    34   16   34 1
    35   16   35 1
    36   17   18 1
    37   17   36 1
    38   17   37 1
    39   18   19 1
    40   18   20 1
    41   20   38 1
@<TRIPOS>MOLECULE
ZINC37491162
   39    41     0     0     0
SMALL
USER_CHARGES

@<TRIPOS>ATOM
      1 C1          1.4289   -4.4709   -1.1260 C.ar      1 <0>        -0.0780
      2 C2          0.7748   -3.6408   -0.2347 C.ar      1 <0>        -0.1166
      3 C3          1.3732   -2.4677    0.1809 C.ar      1 <0>        -0.0787
      4 C4          2.6273   -2.1193   -0.2923 C.ar      1 <0>        -0.1723
      5 C5          3.2813   -2.9490   -1.1835 C.ar      1 <0>        -0.0652
      6 C6          2.6795   -4.1252   -1.5991 C.ar      1 <0>        -0.1055
      7 C7          4.6236   -2.3519   -1.5481 C.3       1 <0>        -0.1003
      8 C8          4.5331   -0.8690   -1.1297 C.3       1 <0>        -0.1338
      9 C9          3.4855   -0.9078    0.0031 C.3       1 <0>         0.0730
     10 H1          2.8791   -0.0022   -0.0113 H         1 <0>         0.1470
     11 N1          4.1483   -1.0580    1.3054 N.4       1 <0>        -0.4993
     12 C10         4.8613    0.1826    1.6380 C.3       1 <0>         0.0323
     13 H2          5.5317    0.4467    0.8202 H         1 <0>         0.1460
     14 C11         3.8497    1.3102    1.8527 C.3       1 <0>        -0.1403
     15 C12         4.5923    2.6023    2.1991 C.3       1 <0>        -0.1199
     16 C13         5.4053    2.3960    3.4787 C.3       1 <0>        -0.1293
     17 C14         6.4168    1.2683    3.2639 C.3       1 <0>        -0.1502
     18 C15         5.6743   -0.0238    2.9176 C.3       1 <0>         0.0889
     19 H3          5.0038   -0.2879    3.7354 H         1 <0>         0.0801
     20 O1          6.6190   -1.0770    2.7170 O.3       1 <0>        -0.5761
     21 H4          0.9643   -5.3909   -1.4486 H         1 <0>         0.1388
     22 H5         -0.2035   -3.9094    0.1359 H         1 <0>         0.1385
     23 H6          0.8615   -1.8196    0.8770 H         1 <0>         0.1293
     24 H7          3.1901   -4.7743   -2.2951 H         1 <0>         0.1344
     25 H8          5.4216   -2.8517   -0.9990 H         1 <0>         0.0933
     26 H9          4.7943   -2.4322   -2.6216 H         1 <0>         0.1014
     27 H10         5.4934   -0.5121   -0.7573 H         1 <0>         0.0991
     28 H11         4.1847   -0.2530   -1.9588 H         1 <0>         0.1174
     29 H12         3.4566   -1.2489    2.0148 H         1 <0>         0.4236
     30 H13         3.2705    1.4572    0.9411 H         1 <0>         0.0947
     31 H14         3.1793    1.0461    2.6705 H         1 <0>         0.0902
     32 H15         5.2628    2.8665    1.3813 H         1 <0>         0.0775
     33 H16         3.8717    3.4057    2.3521 H         1 <0>         0.0893
     34 H17         5.9344    3.3165    3.7254 H         1 <0>         0.0844
     35 H18         4.7349    2.1318    4.2965 H         1 <0>         0.0726
     36 H19         7.0873    1.5324    2.4461 H         1 <0>         0.0838
     37 H20         6.9960    1.1213    4.1755 H         1 <0>         0.0880
     38 H21         7.1704   -1.2631    3.4893 H         1 <0>         0.4084
     39 H22         4.8055   -1.8224    1.2622 H         1 <0>         0.4334
@<TRIPOS>BOND
     1    1    6 ar
     2    1    2 ar
     3    1   21 1
     4    2    3 ar
     5    2   22 1
     6    3    4 ar
     7    3   23 1
     8    4    9 1
     9    4    5 ar
    10    5    6 ar
    11    5    7 1
    12    6   24 1
    13    7    8 1
    14    7   25 1
    15    7   26 1
    16    8    9 1
    17    8   27 1
    18    8   28 1
    19    9   10 1
    20    9   11 1
    21   11   12 1
    22   11   29 1
    23   11   39 1
    24   12   13 1
    25   12   18 1
    26   12   14 1
    27   14   15 1
    28   14   30 1
    29   14   31 1
    30   15   16 1
    31   15   32 1
    32   15   33 1
    33   16   17 1
    34   16   34 1
    35   16   35 1
    36   17   18 1
    37   17   36 1
    38   17   37 1
    39   18   19 1
    40   18   20 1
    41   20   38 1
@<TRIPOS>MOLECULE
ZINC28232207
   39    41     0     0     0
SMALL
USER_CHARGES
(1S,2S)-2-(3,4-dihydro-1H-isoquinolin-2-yl)cyclohexan-1-ol
@<TRIPOS>ATOM
      1 C1         -3.0893    4.4164    4.5635 C.ar      1 <0>        -0.0938
      2 C2         -2.3181    5.2888    3.8180 C.ar      1 <0>        -0.1052
      3 C3         -1.6059    4.8208    2.7324 C.ar      1 <0>        -0.0954
      4 C4         -1.6581    3.4788    2.3848 C.ar      1 <0>        -0.1283
      5 C5         -2.4250    2.6091    3.1300 C.ar      1 <0>        -0.0901
      6 C6         -3.1420    3.0807    4.2193 C.ar      1 <0>        -0.1051
      7 C7         -2.5049    1.1412    2.7978 C.3       1 <0>        -0.1061
      8 C8         -2.0069    0.9008    1.3725 C.3       1 <0>        -0.0031
      9 N1         -0.7003    1.5596    1.2166 N.4       1 <0>        -0.3965
     10 C9         -0.8661    3.0162    1.1900 C.3       1 <0>         0.0416
     11 C10        -0.0127    1.0858    0.0080 C.3       1 <0>         0.0463
     12 H1         -0.0184   -0.0138    0.0384 H         1 <0>         0.1420
     13 C11        -0.7527    1.5927   -1.2315 C.3       1 <0>        -0.1427
     14 C12        -0.0366    1.0992   -2.4903 C.3       1 <0>        -0.1209
     15 C13         1.3988    1.6288   -2.5012 C.3       1 <0>        -0.1301
     16 C14         2.1388    1.1220   -1.2617 C.3       1 <0>        -0.1487
     17 C15         1.4227    1.6154   -0.0028 C.3       1 <0>         0.1016
     18 H2          1.4434    2.7132    0.0635 H         1 <0>         0.0740
     19 O1          2.1138    1.1420    1.1549 O.3       1 <0>        -0.6151
     20 H3         -3.6489    4.7791    5.4131 H         1 <0>         0.1363
     21 H4         -2.2734    6.3345    4.0844 H         1 <0>         0.1367
     22 H5         -1.0041    5.5032    2.1505 H         1 <0>         0.1325
     23 H6         -3.7449    2.3994    4.8013 H         1 <0>         0.1345
     24 H7         -1.8795    0.5716    3.5009 H         1 <0>         0.1043
     25 H8         -3.5486    0.8032    2.8787 H         1 <0>         0.1233
     26 H9         -1.9053   -0.1804    1.1971 H         1 <0>         0.1364
     27 H10        -2.7275    1.3224    0.6563 H         1 <0>         0.1294
     28 H11        -1.3949    3.2989    0.2678 H         1 <0>         0.1360
     29 H12         0.1269    3.4892    1.2029 H         1 <0>         0.1349
     30 H13        -1.7847    1.2120   -1.2236 H         1 <0>         0.0936
     31 H14        -0.7676    2.6926   -1.2255 H         1 <0>         0.0899
     32 H15        -0.0217   -0.0007   -2.4963 H         1 <0>         0.0772
     33 H16        -0.5686    1.4635   -3.3815 H         1 <0>         0.0884
     34 H17         1.9136    1.2740   -3.4062 H         1 <0>         0.0838
     35 H18         1.3839    2.7287   -2.4952 H         1 <0>         0.0715
     36 H19         2.1537    0.0221   -1.2678 H         1 <0>         0.0833
     37 H20         3.1708    1.5027   -1.2695 H         1 <0>         0.0865
     38 H21         3.1648    1.4211    1.3205 H         1 <0>         0.4433
     39 H22        -0.0717    1.3001    2.0812 H         1 <0>         0.4537
@<TRIPOS>BOND
     1    1    6 ar
     2    1    2 ar
     3    1   20 1
     4    2    3 ar
     5    2   21 1
     6    3    4 ar
     7    3   22 1
     8    4   10 1
     9    4    5 ar
    10    5    6 ar
    11    5    7 1
    12    6   23 1
    13    7    8 1
    14    7   24 1
    15    7   25 1
    16    8    9 1
    17    8   26 1
    18    8   27 1
    19    9   10 1
    20    9   11 1
    21    9   39 1
    22   10   28 1
    23   10   29 1
    24   11   12 1
    25   11   17 1
    26   11   13 1
    27   13   14 1
    28   13   30 1
    29   13   31 1
    30   14   15 1
    31   14   32 1
    32   14   33 1
    33   15   16 1
    34   15   34 1
    35   15   35 1
    36   16   17 1
    37   16   36 1
    38   16   37 1
    39   17   18 1
    40   17   19 1
    41   19   38 1
@<TRIPOS>MOLECULE
ZINC28232207
   38    40     0     0     0
SMALL
USER_CHARGES
(1S,2S)-2-(3,4-dihydro-1H-isoquinolin-2-yl)cyclohexan-1-ol
@<TRIPOS>ATOM
      1 C1         -3.0893    4.4164    4.5635 C.ar      1 <0>        -0.1204
      2 C2         -2.3181    5.2888    3.8180 C.ar      1 <0>        -0.1227
      3 C3         -1.6059    4.8208    2.7324 C.ar      1 <0>        -0.1171
      4 C4         -1.6581    3.4788    2.3848 C.ar      1 <0>        -0.0764
      5 C5         -2.4250    2.6091    3.1300 C.ar      1 <0>        -0.0675
      6 C6         -3.1420    3.0807    4.2193 C.ar      1 <0>        -0.1209
      7 C7         -2.5049    1.1412    2.7978 C.3       1 <0>        -0.0779
      8 C8         -2.0069    0.9008    1.3725 C.3       1 <0>         0.0488
      9 N1         -0.7003    1.5596    1.2166 N.3       1 <0>        -0.5144
     10 C9         -0.8661    3.0162    1.1900 C.3       1 <0>         0.0855
     11 C10        -0.0127    1.0858    0.0080 C.3       1 <0>         0.0950
     12 H1         -0.0184   -0.0138    0.0384 H         1 <0>         0.0911
     13 C11        -0.7527    1.5927   -1.2315 C.3       1 <0>        -0.1539
     14 C12        -0.0366    1.0992   -2.4903 C.3       1 <0>        -0.1181
     15 C13         1.3988    1.6288   -2.5012 C.3       1 <0>        -0.1203
     16 C14         2.1388    1.1220   -1.2617 C.3       1 <0>        -0.1513
     17 C15         1.4227    1.6154   -0.0028 C.3       1 <0>         0.1272
     18 H2          1.4434    2.7132    0.0635 H         1 <0>         0.0485
     19 O1          2.1138    1.1420    1.1549 O.3       1 <0>        -0.5832
     20 H3         -3.6489    4.7791    5.4131 H         1 <0>         0.1215
     21 H4         -2.2734    6.3345    4.0844 H         1 <0>         0.1217
     22 H5         -1.0041    5.5032    2.1505 H         1 <0>         0.1196
     23 H6         -3.7449    2.3994    4.8013 H         1 <0>         0.1211
     24 H7         -1.8795    0.5716    3.5009 H         1 <0>         0.0859
     25 H8         -3.5486    0.8032    2.8787 H         1 <0>         0.0785
     26 H9         -1.9053   -0.1804    1.1971 H         1 <0>         0.0803
     27 H10        -2.7275    1.3224    0.6563 H         1 <0>         0.0390
     28 H11        -1.3949    3.2989    0.2678 H         1 <0>         0.0520
     29 H12         0.1269    3.4892    1.2029 H         1 <0>         0.0870
     30 H13        -1.7847    1.2120   -1.2236 H         1 <0>         0.0703
     31 H14        -0.7676    2.6926   -1.2255 H         1 <0>         0.0705
     32 H15        -0.0217   -0.0007   -2.4963 H         1 <0>         0.0656
     33 H16        -0.5686    1.4635   -3.3815 H         1 <0>         0.0661
     34 H17         1.9136    1.2740   -3.4062 H         1 <0>         0.0672
     35 H18         1.3839    2.7287   -2.4952 H         1 <0>         0.0628
     36 H19         2.1537    0.0221   -1.2678 H         1 <0>         0.0721
     37 H20         3.1708    1.5027   -1.2695 H         1 <0>         0.0670
     38 H21         3.1648    1.4211    1.3205 H         1 <0>         0.3996
@<TRIPOS>BOND
     1    1    6 ar
     2    1    2 ar
     3    1   20 1
     4    2    3 ar
     5    2   21 1
     6    3    4 ar
     7    3   22 1
     8    4   10 1
     9    4    5 ar
    10    5    6 ar
    11    5    7 1
    12    6   23 1
    13    7    8 1
    14    7   24 1
    15    7   25 1
    16    8    9 1
    17    8   26 1
    18    8   27 1
    19    9   10 1
    20    9   11 1
    21   10   28 1
    22   10   29 1
    23   11   12 1
    24   11   17 1
    25   11   13 1
    26   13   14 1
    27   13   30 1
    28   13   31 1
    29   14   15 1
    30   14   32 1
    31   14   33 1
    32   15   16 1
    33   15   34 1
    34   15   35 1
    35   16   17 1
    36   16   36 1
    37   16   37 1
    38   17   18 1
    39   17   19 1
    40   19   38 1
@<TRIPOS>MOLECULE
ZINC28232218
   39    41     0     0     0
SMALL
USER_CHARGES
(1S,2R)-2-(3,4-dihydro-1H-isoquinolin-2-yl)cyclohexan-1-ol
@<TRIPOS>ATOM
      1 C1          1.2942    0.1164    7.1899 C.ar      1 <0>        -0.0938
      2 C2          0.5920    1.3064    7.2402 C.ar      1 <0>        -0.1054
      3 C3          0.0015    1.8049    6.0968 C.ar      1 <0>        -0.0948
      4 C4          0.1075    1.1182    4.8960 C.ar      1 <0>        -0.1286
      5 C5          0.8105   -0.0664    4.8457 C.ar      1 <0>        -0.0903
      6 C6          1.4026   -0.5669    5.9955 C.ar      1 <0>        -0.1053
      7 C7          0.9583   -0.8447    3.5636 C.3       1 <0>        -0.1055
      8 C8         -0.0807   -0.3750    2.5450 C.3       1 <0>        -0.0071
      9 N1         -0.0184    1.0926    2.4569 N.4       1 <0>        -0.3966
     10 C9         -0.5614    1.6978    3.6772 C.3       1 <0>         0.0488
     11 C10        -0.7288    1.5792    1.2668 C.3       1 <0>         0.0450
     12 H1         -1.7524    1.1788    1.3107 H         1 <0>         0.1396
     13 C11        -0.0127    1.0858    0.0080 C.3       1 <0>        -0.1358
     14 C12        -0.7527    1.5927   -1.2315 C.3       1 <0>        -0.1176
     15 C13        -0.7734    3.1225   -1.2231 C.3       1 <0>        -0.1258
     16 C14        -1.4896    3.6159    0.0357 C.3       1 <0>        -0.1500
     17 C15        -0.7496    3.1091    1.2752 C.3       1 <0>         0.1009
     18 H2         -1.2055    3.4968    2.1981 H         1 <0>         0.0744
     19 O1          0.5910    3.6037    1.2651 O.3       1 <0>        -0.6080
     20 H3          1.7570   -0.2773    8.0828 H         1 <0>         0.1363
     21 H4          0.5055    1.8446    8.1726 H         1 <0>         0.1367
     22 H5         -0.5462    2.7348    6.1369 H         1 <0>         0.1325
     23 H6          1.9518   -1.4960    5.9561 H         1 <0>         0.1344
     24 H7          1.9661   -0.6860    3.1524 H         1 <0>         0.1038
     25 H8          0.8092   -1.9157    3.7655 H         1 <0>         0.1231
     26 H9          0.1409   -0.8196    1.5636 H         1 <0>         0.1382
     27 H10        -1.0829   -0.6892    2.8720 H         1 <0>         0.1294
     28 H11        -1.6425    1.5003    3.7235 H         1 <0>         0.1309
     29 H12        -0.3881    2.7836    3.6453 H         1 <0>         0.1385
     30 H13         1.0193    1.4665    0.0002 H         1 <0>         0.0970
     31 H14         0.0022   -0.0141    0.0019 H         1 <0>         0.0853
     32 H15        -0.2379    1.2379   -2.1365 H         1 <0>         0.0860
     33 H16        -1.7847    1.2120   -1.2237 H         1 <0>         0.0724
     34 H17         0.2586    3.5032   -1.2309 H         1 <0>         0.0776
     35 H18        -1.3053    3.4869   -2.1143 H         1 <0>         0.0776
     36 H19        -1.5046    4.7158    0.0417 H         1 <0>         0.0861
     37 H20        -2.5216    3.2351    0.0435 H         1 <0>         0.0806
     38 H21         0.7773    4.6878    1.2691 H         1 <0>         0.4400
     39 H22         1.0354    1.3936    2.3622 H         1 <0>         0.4496
@<TRIPOS>BOND
     1    1    6 ar
     2    1    2 ar
     3    1   20 1
     4    2    3 ar
     5    2   21 1
     6    3    4 ar
     7    3   22 1
     8    4   10 1
     9    4    5 ar
    10    5    6 ar
    11    5    7 1
    12    6   23 1
    13    7    8 1
    14    7   24 1
    15    7   25 1
    16    8    9 1
    17    8   26 1
    18    8   27 1
    19    9   10 1
    20    9   11 1
    21    9   39 1
    22   10   28 1
    23   10   29 1
    24   11   12 1
    25   11   17 1
    26   11   13 1
    27   13   14 1
    28   13   30 1
    29   13   31 1
    30   14   15 1
    31   14   32 1
    32   14   33 1
    33   15   16 1
    34   15   34 1
    35   15   35 1
    36   16   17 1
    37   16   36 1
    38   16   37 1
    39   17   18 1
    40   17   19 1
    41   19   38 1
@<TRIPOS>MOLECULE
ZINC28232218
   38    40     0     0     0
SMALL
USER_CHARGES
(1S,2R)-2-(3,4-dihydro-1H-isoquinolin-2-yl)cyclohexan-1-ol
@<TRIPOS>ATOM
      1 C1          1.2942    0.1164    7.1899 C.ar      1 <0>        -0.1202
      2 C2          0.5920    1.3064    7.2402 C.ar      1 <0>        -0.1229
      3 C3          0.0015    1.8049    6.0968 C.ar      1 <0>        -0.1164
      4 C4          0.1075    1.1182    4.8960 C.ar      1 <0>        -0.0759
      5 C5          0.8105   -0.0664    4.8457 C.ar      1 <0>        -0.0674
      6 C6          1.4026   -0.5669    5.9955 C.ar      1 <0>        -0.1211
      7 C7          0.9583   -0.8447    3.5636 C.3       1 <0>        -0.0769
      8 C8         -0.0807   -0.3750    2.5450 C.3       1 <0>         0.0450
      9 N1         -0.0184    1.0926    2.4569 N.3       1 <0>        -0.5192
     10 C9         -0.5614    1.6978    3.6772 C.3       1 <0>         0.0928
     11 C10        -0.7288    1.5792    1.2668 C.3       1 <0>         0.0964
     12 H1         -1.7524    1.1788    1.3107 H         1 <0>         0.0500
     13 C11        -0.0127    1.0858    0.0080 C.3       1 <0>        -0.1071
     14 C12        -0.7527    1.5927   -1.2315 C.3       1 <0>        -0.1195
     15 C13        -0.7734    3.1225   -1.2231 C.3       1 <0>        -0.1156
     16 C14        -1.4896    3.6159    0.0357 C.3       1 <0>        -0.1516
     17 C15        -0.7496    3.1091    1.2752 C.3       1 <0>         0.1211
     18 H2         -1.2055    3.4968    2.1981 H         1 <0>         0.0489
     19 O1          0.5910    3.6037    1.2651 O.3       1 <0>        -0.5765
     20 H3          1.7570   -0.2773    8.0828 H         1 <0>         0.1216
     21 H4          0.5055    1.8446    8.1726 H         1 <0>         0.1218
     22 H5         -0.5462    2.7348    6.1369 H         1 <0>         0.1197
     23 H6          1.9518   -1.4960    5.9561 H         1 <0>         0.1210
     24 H7          1.9661   -0.6860    3.1524 H         1 <0>         0.0856
     25 H8          0.8092   -1.9157    3.7655 H         1 <0>         0.0782
     26 H9          0.1409   -0.8196    1.5636 H         1 <0>         0.0849
     27 H10        -1.0829   -0.6892    2.8720 H         1 <0>         0.0363
     28 H11        -1.6425    1.5003    3.7235 H         1 <0>         0.0419
     29 H12        -0.3881    2.7836    3.6453 H         1 <0>         0.0919
     30 H13         1.0193    1.4665    0.0002 H         1 <0>         0.0832
     31 H14         0.0022   -0.0141    0.0019 H         1 <0>         0.0610
     32 H15        -0.2379    1.2379   -2.1365 H         1 <0>         0.0662
     33 H16        -1.7847    1.2120   -1.2237 H         1 <0>         0.0582
     34 H17         0.2586    3.5032   -1.2309 H         1 <0>         0.0713
     35 H18        -1.3053    3.4869   -2.1143 H         1 <0>         0.0602
     36 H19        -1.5046    4.7158    0.0417 H         1 <0>         0.0670
     37 H20        -2.5216    3.2351    0.0435 H         1 <0>         0.0677
     38 H21         0.7773    4.6878    1.2691 H         1 <0>         0.3983
@<TRIPOS>BOND
     1    1    6 ar
     2    1    2 ar
     3    1   20 1
     4    2    3 ar
     5    2   21 1
     6    3    4 ar
     7    3   22 1
     8    4   10 1
     9    4    5 ar
    10    5    6 ar
    11    5    7 1
    12    6   23 1
    13    7    8 1
    14    7   24 1
    15    7   25 1
    16    8    9 1
    17    8   26 1
    18    8   27 1
    19    9   10 1
    20    9   11 1
    21   10   28 1
    22   10   29 1
    23   11   12 1
    24   11   17 1
    25   11   13 1
    26   13   14 1
    27   13   30 1
    28   13   31 1
    29   14   15 1
    30   14   32 1
    31   14   33 1
    32   15   16 1
    33   15   34 1
    34   15   35 1
    35   16   17 1
    36   16   36 1
    37   16   37 1
    38   17   18 1
    39   17   19 1
    40   19   38 1
@<TRIPOS>MOLECULE
ZINC28238008
   43    45     0     0     0
SMALL
USER_CHARGES
(1R,2S)-2-(4-phenylpiperazin-1-yl)cyclohexan-1-ol
@<TRIPOS>ATOM
      1 C1         -4.2080    2.6742   -6.9766 C.ar      1 <0>        -0.1474
      2 C2         -4.8831    1.9305   -6.0262 C.ar      1 <0>        -0.0953
      3 C3         -4.2181    1.4711   -4.9064 C.ar      1 <0>        -0.1415
      4 C4         -2.8694    1.7568   -4.7354 C.ar      1 <0>         0.1123
      5 C5         -2.1956    2.5086   -5.6895 C.ar      1 <0>        -0.1710
      6 C6         -2.8654    2.9605   -6.8096 C.ar      1 <0>        -0.0935
      7 N1         -2.1939    1.2941   -3.6038 N.pl3     1 <0>        -0.4915
      8 C7         -0.7843    1.7089   -3.6257 C.3       1 <0>         0.0531
      9 C8         -0.0622    1.1169   -2.4130 C.3       1 <0>         0.0510
     10 N2         -0.7232    1.5724   -1.1821 N.3       1 <0>        -0.5269
     11 C9         -2.1328    1.1576   -1.1602 C.3       1 <0>         0.0531
     12 C10        -2.8549    1.7496   -2.3729 C.3       1 <0>         0.0620
     13 C11        -0.0127    1.0858    0.0080 C.3       1 <0>         0.0983
     14 H1         -0.0191   -0.0134   -0.0342 H         1 <0>         0.0501
     15 C12         1.4227    1.6154   -0.0028 C.3       1 <0>        -0.1087
     16 C13         2.1627    1.1086    1.2367 C.3       1 <0>        -0.1195
     17 C14         1.4465    1.6020    2.4955 C.3       1 <0>        -0.1155
     18 C15         0.0111    1.0724    2.5063 C.3       1 <0>        -0.1518
     19 C16        -0.7288    1.5792    1.2668 C.3       1 <0>         0.1230
     20 H2         -1.7828    1.2647    1.2752 H         1 <0>         0.0493
     21 O1         -0.7482    3.0081    1.2747 O.3       1 <0>        -0.5774
     22 H3         -4.7305    3.0326   -7.8512 H         1 <0>         0.1207
     23 H4         -5.9315    1.7084   -6.1599 H         1 <0>         0.1234
     24 H5         -4.7460    0.8906   -4.1643 H         1 <0>         0.1229
     25 H6         -1.1482    2.7363   -5.5575 H         1 <0>         0.1261
     26 H7         -2.3411    3.5415   -7.5538 H         1 <0>         0.1219
     27 H8         -0.3097    1.3462   -4.5494 H         1 <0>         0.0867
     28 H9         -0.7245    2.8067   -3.5894 H         1 <0>         0.0567
     29 H10        -0.0983    0.0187   -2.4649 H         1 <0>         0.0418
     30 H11         0.9863    1.4497   -2.4120 H         1 <0>         0.0885
     31 H12        -2.1926    0.0598   -1.1965 H         1 <0>         0.0405
     32 H13        -2.6075    1.5203   -0.2365 H         1 <0>         0.0871
     33 H14        -2.8189    2.8478   -2.3222 H         1 <0>         0.0544
     34 H15        -3.9034    1.4169   -2.3750 H         1 <0>         0.0854
     35 H16         1.9376    1.2607   -0.9078 H         1 <0>         0.0608
     36 H17         1.4078    2.7153    0.0032 H         1 <0>         0.0824
     37 H18         2.1777    0.0087    1.2306 H         1 <0>         0.0585
     38 H19         3.1947    1.4894    1.2289 H         1 <0>         0.0661
     39 H20         1.9785    1.2376    3.3867 H         1 <0>         0.0603
     40 H21         1.4316    2.7019    2.5016 H         1 <0>         0.0710
     41 H22         0.0260   -0.0275    2.5003 H         1 <0>         0.0678
     42 H23        -0.5038    1.4271    3.4113 H         1 <0>         0.0670
     43 H24        -1.2240    3.5471    2.1072 H         1 <0>         0.3981
@<TRIPOS>BOND
     1    1    6 ar
     2    1    2 ar
     3    1   22 1
     4    2    3 ar
     5    2   23 1
     6    3    4 ar
     7    3   24 1
     8    4    5 ar
     9    4    7 1
    10    5    6 ar
    11    5   25 1
    12    6   26 1
    13    7   12 1
    14    7    8 1
    15    8    9 1
    16    8   27 1
    17    8   28 1
    18    9   10 1
    19    9   29 1
    20    9   30 1
    21   10   11 1
    22   10   13 1
    23   11   12 1
    24   11   31 1
    25   11   32 1
    26   12   33 1
    27   12   34 1
    28   13   14 1
    29   13   19 1
    30   13   15 1
    31   15   16 1
    32   15   35 1
    33   15   36 1
    34   16   17 1
    35   16   37 1
    36   16   38 1
    37   17   18 1
    38   17   39 1
    39   17   40 1
    40   18   19 1
    41   18   41 1
    42   18   42 1
    43   19   20 1
    44   19   21 1
    45   21   43 1
@<TRIPOS>MOLECULE
ZINC28238008
   44    46     0     0     0
SMALL
USER_CHARGES
(1R,2S)-2-(4-phenylpiperazin-1-yl)cyclohexan-1-ol
@<TRIPOS>ATOM
      1 C1         -4.2080    2.6742   -6.9766 C.ar      1 <0>        -0.1265
      2 C2         -4.8831    1.9305   -6.0262 C.ar      1 <0>        -0.0921
      3 C3         -4.2181    1.4711   -4.9064 C.ar      1 <0>        -0.1299
      4 C4         -2.8694    1.7568   -4.7354 C.ar      1 <0>         0.0864
      5 C5         -2.1956    2.5086   -5.6895 C.ar      1 <0>        -0.1638
      6 C6         -2.8654    2.9605   -6.8096 C.ar      1 <0>        -0.0915
      7 N1         -2.1939    1.2941   -3.6038 N.pl3     1 <0>        -0.4868
      8 C7         -0.7843    1.7089   -3.6257 C.3       1 <0>         0.0218
      9 C8         -0.0622    1.1169   -2.4130 C.3       1 <0>        -0.0047
     10 N2         -0.7232    1.5724   -1.1821 N.4       1 <0>        -0.4000
     11 C9         -2.1328    1.1576   -1.1602 C.3       1 <0>        -0.0028
     12 C10        -2.8549    1.7496   -2.3729 C.3       1 <0>         0.0284
     13 C11        -0.0127    1.0858    0.0080 C.3       1 <0>         0.0464
     14 H1         -0.0191   -0.0134   -0.0342 H         1 <0>         0.1399
     15 C12         1.4227    1.6154   -0.0028 C.3       1 <0>        -0.1366
     16 C13         2.1627    1.1086    1.2367 C.3       1 <0>        -0.1178
     17 C14         1.4465    1.6020    2.4955 C.3       1 <0>        -0.1257
     18 C15         0.0111    1.0724    2.5063 C.3       1 <0>        -0.1499
     19 C16        -0.7288    1.5792    1.2668 C.3       1 <0>         0.1018
     20 H2         -1.7828    1.2647    1.2752 H         1 <0>         0.0745
     21 O1         -0.7482    3.0081    1.2747 O.3       1 <0>        -0.6094
     22 H3         -4.7305    3.0326   -7.8512 H         1 <0>         0.1294
     23 H4         -5.9315    1.7084   -6.1599 H         1 <0>         0.1314
     24 H5         -4.7460    0.8906   -4.1643 H         1 <0>         0.1267
     25 H6         -1.1482    2.7363   -5.5575 H         1 <0>         0.1263
     26 H7         -2.3411    3.5415   -7.5538 H         1 <0>         0.1294
     27 H8         -0.3097    1.3462   -4.5494 H         1 <0>         0.1299
     28 H9         -0.7245    2.8067   -3.5894 H         1 <0>         0.0713
     29 H10        -0.0983    0.0187   -2.4649 H         1 <0>         0.1360
     30 H11         0.9863    1.4497   -2.4120 H         1 <0>         0.1407
     31 H12        -2.1926    0.0598   -1.1965 H         1 <0>         0.1348
     32 H13        -2.6075    1.5203   -0.2365 H         1 <0>         0.1385
     33 H14        -2.8189    2.8478   -2.3222 H         1 <0>         0.0696
     34 H15        -3.9034    1.4169   -2.3750 H         1 <0>         0.1276
     35 H16         1.9376    1.2607   -0.9078 H         1 <0>         0.0854
     36 H17         1.4078    2.7153    0.0032 H         1 <0>         0.0961
     37 H18         2.1777    0.0087    1.2306 H         1 <0>         0.0726
     38 H19         3.1947    1.4894    1.2289 H         1 <0>         0.0858
     39 H20         1.9785    1.2376    3.3867 H         1 <0>         0.0777
     40 H21         1.4316    2.7019    2.5016 H         1 <0>         0.0772
     41 H22         0.0260   -0.0275    2.5003 H         1 <0>         0.0809
     42 H23        -0.5038    1.4271    3.4113 H         1 <0>         0.0861
     43 H24        -1.2240    3.5471    2.1072 H         1 <0>         0.4406
     44 H25        -0.6923    2.6719   -1.1668 H         1 <0>         0.4442
@<TRIPOS>BOND
     1    1    6 ar
     2    1    2 ar
     3    1   22 1
     4    2    3 ar
     5    2   23 1
     6    3    4 ar
     7    3   24 1
     8    4    5 ar
     9    4    7 1
    10    5    6 ar
    11    5   25 1
    12    6   26 1
    13    7   12 1
    14    7    8 1
    15    8    9 1
    16    8   27 1
    17    8   28 1
    18    9   10 1
    19    9   29 1
    20    9   30 1
    21   10   11 1
    22   10   13 1
    23   10   44 1
    24   11   12 1
    25   11   31 1
    26   11   32 1
    27   12   33 1
    28   12   34 1
    29   13   14 1
    30   13   19 1
    31   13   15 1
    32   15   16 1
    33   15   35 1
    34   15   36 1
    35   16   17 1
    36   16   37 1
    37   16   38 1
    38   17   18 1
    39   17   39 1
    40   17   40 1
    41   18   19 1
    42   18   41 1
    43   18   42 1
    44   19   20 1
    45   19   21 1
    46   21   43 1
@<TRIPOS>MOLECULE
ZINC28238014
   43    45     0     0     0
SMALL
USER_CHARGES
(1S,2S)-2-(4-phenylpiperazin-1-yl)cyclohexan-1-ol
@<TRIPOS>ATOM
      1 C1         -3.7220    5.9654    6.0844 C.ar      1 <0>        -0.1474
      2 C2         -4.3369    5.1368    5.1638 C.ar      1 <0>        -0.0953
      3 C3         -3.6600    4.7432    4.0263 C.ar      1 <0>        -0.1412
      4 C4         -2.3598    5.1806    3.8074 C.ar      1 <0>         0.1123
      5 C5         -1.7432    6.0086    4.7367 C.ar      1 <0>        -0.1710
      6 C6         -2.4278    6.4027    5.8696 C.ar      1 <0>        -0.0937
      7 N1         -1.6721    4.7841    2.6582 N.pl3     1 <0>        -0.4907
      8 C7         -0.3201    5.3594    2.6287 C.3       1 <0>         0.0528
      9 C8          0.3698    4.9672    1.3200 C.3       1 <0>         0.0491
     10 N2          0.4216    3.5022    1.2163 N.3       1 <0>        -0.5225
     11 C9         -0.9304    2.9270    1.2458 C.3       1 <0>         0.0524
     12 C10        -1.6203    3.3191    2.5545 C.3       1 <0>         0.0606
     13 C11         1.1449    3.0852    0.0077 C.3       1 <0>         0.0967
     14 H1          1.0207    1.9965   -0.0883 H         1 <0>         0.0885
     15 C12         0.5588    3.8021   -1.2103 C.3       1 <0>        -0.1509
     16 C13         1.3122    3.3678   -2.4691 C.3       1 <0>        -0.1186
     17 C14         2.7922    3.7291   -2.3279 C.3       1 <0>        -0.1201
     18 C15         3.3782    3.0121   -1.1099 C.3       1 <0>        -0.1512
     19 C16         2.6249    3.4465    0.1489 C.3       1 <0>         0.1284
     20 H2          2.7564    4.5215    0.3414 H         1 <0>         0.0487
     21 O1          3.1723    2.7769    1.2865 O.3       1 <0>        -0.5844
     22 H3         -4.2537    6.2720    6.9730 H         1 <0>         0.1207
     23 H4         -5.3479    4.7974    5.3345 H         1 <0>         0.1234
     24 H5         -4.1410    4.0964    3.3075 H         1 <0>         0.1232
     25 H6         -0.7309    6.3469    4.5717 H         1 <0>         0.1258
     26 H7         -1.9504    7.0498    6.5906 H         1 <0>         0.1218
     27 H8         -0.3865    6.4554    2.6952 H         1 <0>         0.0857
     28 H9          0.2607    4.9749    3.4801 H         1 <0>         0.0562
     29 H10        -0.1964    5.3761    0.4702 H         1 <0>         0.0479
     30 H11         1.3922    5.3729    1.3085 H         1 <0>         0.0826
     31 H12        -1.5112    3.3117    0.3945 H         1 <0>         0.0458
     32 H13        -0.8642    1.8310    1.1792 H         1 <0>         0.0843
     33 H14        -1.0544    2.9111    3.4050 H         1 <0>         0.0541
     34 H15        -2.6430    2.9142    2.5666 H         1 <0>         0.0865
     35 H16        -0.5052    3.5422   -1.3118 H         1 <0>         0.0702
     36 H17         0.6598    4.8896   -1.0794 H         1 <0>         0.0704
     37 H18         1.2111    2.2803   -2.6000 H         1 <0>         0.0649
     38 H19         0.8909    3.8832   -3.3448 H         1 <0>         0.0661
     39 H20         3.3338    3.4168   -3.2330 H         1 <0>         0.0670
     40 H21         2.8933    4.8166   -2.1970 H         1 <0>         0.0629
     41 H22         3.2770    1.9246   -1.2408 H         1 <0>         0.0717
     42 H23         4.4423    3.2717   -1.0084 H         1 <0>         0.0668
     43 H24         4.2314    2.9156    1.5494 H         1 <0>         0.3995
@<TRIPOS>BOND
     1    1    6 ar
     2    1    2 ar
     3    1   22 1
     4    2    3 ar
     5    2   23 1
     6    3    4 ar
     7    3   24 1
     8    4    5 ar
     9    4    7 1
    10    5    6 ar
    11    5   25 1
    12    6   26 1
    13    7   12 1
    14    7    8 1
    15    8    9 1
    16    8   27 1
    17    8   28 1
    18    9   10 1
    19    9   29 1
    20    9   30 1
    21   10   11 1
    22   10   13 1
    23   11   12 1
    24   11   31 1
    25   11   32 1
    26   12   33 1
    27   12   34 1
    28   13   14 1
    29   13   19 1
    30   13   15 1
    31   15   16 1
    32   15   35 1
    33   15   36 1
    34   16   17 1
    35   16   37 1
    36   16   38 1
    37   17   18 1
    38   17   39 1
    39   17   40 1
    40   18   19 1
    41   18   41 1
    42   18   42 1
    43   19   20 1
    44   19   21 1
    45   21   43 1
@<TRIPOS>MOLECULE
ZINC28238014
   44    46     0     0     0
SMALL
USER_CHARGES
(1S,2S)-2-(4-phenylpiperazin-1-yl)cyclohexan-1-ol
@<TRIPOS>ATOM
      1 C1         -3.7220    5.9654    6.0844 C.ar      1 <0>        -0.1265
      2 C2         -4.3369    5.1368    5.1638 C.ar      1 <0>        -0.0920
      3 C3         -3.6600    4.7432    4.0263 C.ar      1 <0>        -0.1296
      4 C4         -2.3598    5.1806    3.8074 C.ar      1 <0>         0.0864
      5 C5         -1.7432    6.0086    4.7367 C.ar      1 <0>        -0.1638
      6 C6         -2.4278    6.4027    5.8696 C.ar      1 <0>        -0.0916
      7 N1         -1.6721    4.7841    2.6582 N.pl3     1 <0>        -0.4862
      8 C7         -0.3201    5.3594    2.6287 C.3       1 <0>         0.0228
      9 C8          0.3698    4.9672    1.3200 C.3       1 <0>        -0.0076
     10 N2          0.4216    3.5022    1.2163 N.4       1 <0>        -0.3998
     11 C9         -0.9304    2.9270    1.2458 C.3       1 <0>        -0.0022
     12 C10        -1.6203    3.3191    2.5545 C.3       1 <0>         0.0270
     13 C11         1.1449    3.0852    0.0077 C.3       1 <0>         0.0471
     14 H1          1.0207    1.9965   -0.0883 H         1 <0>         0.1402
     15 C12         0.5588    3.8021   -1.2103 C.3       1 <0>        -0.1407
     16 C13         1.3122    3.3678   -2.4691 C.3       1 <0>        -0.1213
     17 C14         2.7922    3.7291   -2.3279 C.3       1 <0>        -0.1300
     18 C15         3.3782    3.0121   -1.1099 C.3       1 <0>        -0.1487
     19 C16         2.6249    3.4465    0.1489 C.3       1 <0>         0.1025
     20 H2          2.7564    4.5215    0.3414 H         1 <0>         0.0740
     21 O1          3.1723    2.7769    1.2865 O.3       1 <0>        -0.6162
     22 H3         -4.2537    6.2720    6.9730 H         1 <0>         0.1294
     23 H4         -5.3479    4.7974    5.3345 H         1 <0>         0.1315
     24 H5         -4.1410    4.0964    3.3075 H         1 <0>         0.1270
     25 H6         -0.7309    6.3469    4.5717 H         1 <0>         0.1260
     26 H7         -1.9504    7.0498    6.5906 H         1 <0>         0.1292
     27 H8         -0.3865    6.4554    2.6952 H         1 <0>         0.1289
     28 H9          0.2607    4.9749    3.4801 H         1 <0>         0.0712
     29 H10        -0.1964    5.3761    0.4702 H         1 <0>         0.1385
     30 H11         1.3922    5.3729    1.3085 H         1 <0>         0.1357
     31 H12        -1.5112    3.3117    0.3945 H         1 <0>         0.1365
     32 H13        -0.8642    1.8310    1.1792 H         1 <0>         0.1389
     33 H14        -1.0544    2.9111    3.4050 H         1 <0>         0.0697
     34 H15        -2.6430    2.9142    2.5666 H         1 <0>         0.1288
     35 H16        -0.5052    3.5422   -1.3118 H         1 <0>         0.0933
     36 H17         0.6598    4.8896   -1.0794 H         1 <0>         0.0904
     37 H18         1.2111    2.2803   -2.6000 H         1 <0>         0.0766
     38 H19         0.8909    3.8832   -3.3448 H         1 <0>         0.0885
     39 H20         3.3338    3.4168   -3.2330 H         1 <0>         0.0837
     40 H21         2.8933    4.8166   -2.1970 H         1 <0>         0.0716
     41 H22         3.2770    1.9246   -1.2408 H         1 <0>         0.0831
     42 H23         4.4423    3.2717   -1.0084 H         1 <0>         0.0864
     43 H24         4.2314    2.9156    1.5494 H         1 <0>         0.4436
     44 H25         0.9730    3.1191    2.0876 H         1 <0>         0.4478
@<TRIPOS>BOND
     1    1    6 ar
     2    1    2 ar
     3    1   22 1
     4    2    3 ar
     5    2   23 1
     6    3    4 ar
     7    3   24 1
     8    4    5 ar
     9    4    7 1
    10    5    6 ar
    11    5   25 1
    12    6   26 1
    13    7   12 1
    14    7    8 1
    15    8    9 1
    16    8   27 1
    17    8   28 1
    18    9   10 1
    19    9   29 1
    20    9   30 1
    21   10   11 1
    22   10   13 1
    23   10   44 1
    24   11   12 1
    25   11   31 1
    26   11   32 1
    27   12   33 1
    28   12   34 1
    29   13   14 1
    30   13   19 1
    31   13   15 1
    32   15   16 1
    33   15   35 1
    34   15   36 1
    35   16   17 1
    36   16   37 1
    37   16   38 1
    38   17   18 1
    39   17   39 1
    40   17   40 1
    41   18   19 1
    42   18   41 1
    43   18   42 1
    44   19   20 1
    45   19   21 1
    46   21   43 1
@<TRIPOS>MOLECULE
ZINC28238018
   43    45     0     0     0
SMALL
USER_CHARGES
(1R,2R)-2-(4-phenylpiperazin-1-yl)cyclohexan-1-ol
@<TRIPOS>ATOM
      1 C1          1.1556    3.1660    0.0081 C.ar      1 <0>        -0.1476
      2 C2          1.1734    1.7833    0.0004 C.ar      1 <0>        -0.0953
      3 C3         -0.0126    1.0758    0.0080 C.ar      1 <0>        -0.1416
      4 C4         -1.2244    1.7547    0.0174 C.ar      1 <0>         0.1124
      5 C5         -1.2387    3.1437    0.0309 C.ar      1 <0>        -0.1710
      6 C6         -0.0490    3.8450    0.0228 C.ar      1 <0>        -0.0935
      7 N1         -2.4258    1.0424    0.0192 N.pl3     1 <0>        -0.4909
      8 C7         -2.4950    0.1235   -1.1256 C.3       1 <0>         0.0611
      9 C8         -3.7869   -0.6931   -1.0436 C.3       1 <0>         0.0485
     10 N2         -4.9396    0.2184   -1.0332 N.3       1 <0>        -0.5220
     11 C9         -4.8704    1.1373    0.1116 C.3       1 <0>         0.0505
     12 C10        -3.5786    1.9538    0.0296 C.3       1 <0>         0.0526
     13 C11        -6.2032   -0.5308   -1.0312 C.3       1 <0>         0.0970
     14 H1         -7.0192    0.2043   -1.0929 H         1 <0>         0.0901
     15 C12        -6.3109   -1.3458    0.2592 C.3       1 <0>        -0.1520
     16 C13        -7.6269   -2.1262    0.2612 C.3       1 <0>        -0.1184
     17 C14        -7.6620   -3.0700   -0.9425 C.3       1 <0>        -0.1203
     18 C15        -7.5543   -2.2550   -2.2329 C.3       1 <0>        -0.1509
     19 C16        -6.2383   -1.4747   -2.2349 C.3       1 <0>         0.1240
     20 H2         -5.3725   -2.1532   -2.2352 H         1 <0>         0.0509
     21 O1         -6.1376   -0.7135   -3.4402 O.3       1 <0>        -0.5845
     22 H3          2.0845    3.7169    0.0022 H         1 <0>         0.1207
     23 H4          2.1159    1.2561   -0.0118 H         1 <0>         0.1233
     24 H5          0.0021   -0.0041    0.0020 H         1 <0>         0.1229
     25 H6         -2.1791    3.6746    0.0424 H         1 <0>         0.1261
     26 H7         -0.0594    4.9250    0.0284 H         1 <0>         0.1219
     27 H8         -2.4845    0.7019   -2.0612 H         1 <0>         0.0539
     28 H9         -1.6293   -0.5548   -1.1042 H         1 <0>         0.0850
     29 H10        -3.8543   -1.3612   -1.9149 H         1 <0>         0.0860
     30 H11        -3.7839   -1.2926   -0.1213 H         1 <0>         0.0452
     31 H12        -5.7361    1.8157    0.0901 H         1 <0>         0.0839
     32 H13        -4.8810    0.5589    1.0472 H         1 <0>         0.0479
     33 H14        -3.5100    2.6218    0.9008 H         1 <0>         0.0871
     34 H15        -3.5805    2.5532   -0.8927 H         1 <0>         0.0564
     35 H16        -5.4674   -2.0492    0.3201 H         1 <0>         0.0679
     36 H17        -6.2857   -0.6673    1.1246 H         1 <0>         0.0726
     37 H18        -7.7043   -2.7121    1.1889 H         1 <0>         0.0661
     38 H19        -8.4704   -1.4228    0.2003 H         1 <0>         0.0654
     39 H20        -6.8185   -3.7734   -0.8816 H         1 <0>         0.0626
     40 H21        -8.6081   -3.6311   -0.9411 H         1 <0>         0.0671
     41 H22        -7.5796   -2.9336   -3.0983 H         1 <0>         0.0669
     42 H23        -8.3978   -1.5516   -2.2938 H         1 <0>         0.0722
     43 H24        -6.1458   -1.2232   -4.4149 H         1 <0>         0.4002
@<TRIPOS>BOND
     1    1    6 ar
     2    1    2 ar
     3    1   22 1
     4    2    3 ar
     5    2   23 1
     6    3    4 ar
     7    3   24 1
     8    4    5 ar
     9    4    7 1
    10    5    6 ar
    11    5   25 1
    12    6   26 1
    13    7   12 1
    14    7    8 1
    15    8    9 1
    16    8   27 1
    17    8   28 1
    18    9   10 1
    19    9   29 1
    20    9   30 1
    21   10   11 1
    22   10   13 1
    23   11   12 1
    24   11   31 1
    25   11   32 1
    26   12   33 1
    27   12   34 1
    28   13   14 1
    29   13   19 1
    30   13   15 1
    31   15   16 1
    32   15   35 1
    33   15   36 1
    34   16   17 1
    35   16   37 1
    36   16   38 1
    37   17   18 1
    38   17   39 1
    39   17   40 1
    40   18   19 1
    41   18   41 1
    42   18   42 1
    43   19   20 1
    44   19   21 1
    45   21   43 1
@<TRIPOS>MOLECULE
ZINC28238018
   44    46     0     0     0
SMALL
USER_CHARGES
(1R,2R)-2-(4-phenylpiperazin-1-yl)cyclohexan-1-ol
@<TRIPOS>ATOM
      1 C1          1.1556    3.1660    0.0081 C.ar      1 <0>        -0.1267
      2 C2          1.1734    1.7833    0.0004 C.ar      1 <0>        -0.0921
      3 C3         -0.0126    1.0758    0.0080 C.ar      1 <0>        -0.1299
      4 C4         -1.2244    1.7547    0.0174 C.ar      1 <0>         0.0864
      5 C5         -1.2387    3.1437    0.0309 C.ar      1 <0>        -0.1636
      6 C6         -0.0490    3.8450    0.0228 C.ar      1 <0>        -0.0915
      7 N1         -2.4258    1.0424    0.0192 N.pl3     1 <0>        -0.4865
      8 C7         -2.4950    0.1235   -1.1256 C.3       1 <0>         0.0288
      9 C8         -3.7869   -0.6931   -1.0436 C.3       1 <0>        -0.0078
     10 N2         -4.9396    0.2184   -1.0332 N.4       1 <0>        -0.3985
     11 C9         -4.8704    1.1373    0.1116 C.3       1 <0>        -0.0041
     12 C10        -3.5786    1.9538    0.0296 C.3       1 <0>         0.0217
     13 C11        -6.2032   -0.5308   -1.0312 C.3       1 <0>         0.0477
     14 H1         -7.0192    0.2043   -1.0929 H         1 <0>         0.1403
     15 C12        -6.3109   -1.3458    0.2592 C.3       1 <0>        -0.1408
     16 C13        -7.6269   -2.1262    0.2612 C.3       1 <0>        -0.1212
     17 C14        -7.6620   -3.0700   -0.9425 C.3       1 <0>        -0.1300
     18 C15        -7.5543   -2.2550   -2.2329 C.3       1 <0>        -0.1490
     19 C16        -6.2383   -1.4747   -2.2349 C.3       1 <0>         0.1014
     20 H2         -5.3725   -2.1532   -2.2352 H         1 <0>         0.0754
     21 O1         -6.1376   -0.7135   -3.4402 O.3       1 <0>        -0.6154
     22 H3          2.0845    3.7169    0.0022 H         1 <0>         0.1293
     23 H4          2.1159    1.2561   -0.0118 H         1 <0>         0.1313
     24 H5          0.0021   -0.0041    0.0020 H         1 <0>         0.1267
     25 H6         -2.1791    3.6746    0.0424 H         1 <0>         0.1264
     26 H7         -0.0594    4.9250    0.0284 H         1 <0>         0.1293
     27 H8         -2.4845    0.7019   -2.0612 H         1 <0>         0.0696
     28 H9         -1.6293   -0.5548   -1.1042 H         1 <0>         0.1271
     29 H10        -3.8543   -1.3612   -1.9149 H         1 <0>         0.1379
     30 H11        -3.7839   -1.2926   -0.1213 H         1 <0>         0.1361
     31 H12        -5.7361    1.8157    0.0901 H         1 <0>         0.1391
     32 H13        -4.8810    0.5589    1.0472 H         1 <0>         0.1377
     33 H14        -3.5100    2.6218    0.9008 H         1 <0>         0.1300
     34 H15        -3.5805    2.5532   -0.8927 H         1 <0>         0.0716
     35 H16        -5.4674   -2.0492    0.3201 H         1 <0>         0.0890
     36 H17        -6.2857   -0.6673    1.1246 H         1 <0>         0.0943
     37 H18        -7.7043   -2.7121    1.1889 H         1 <0>         0.0885
     38 H19        -8.4704   -1.4228    0.2003 H         1 <0>         0.0768
     39 H20        -6.8185   -3.7734   -0.8816 H         1 <0>         0.0714
     40 H21        -8.6081   -3.6311   -0.9411 H         1 <0>         0.0836
     41 H22        -7.5796   -2.9336   -3.0983 H         1 <0>         0.0863
     42 H23        -8.3978   -1.5516   -2.2938 H         1 <0>         0.0830
     43 H24        -6.1458   -1.2232   -4.4149 H         1 <0>         0.4426
     44 H25        -4.9058    0.8194   -1.9539 H         1 <0>         0.4475
@<TRIPOS>BOND
     1    1    6 ar
     2    1    2 ar
     3    1   22 1
     4    2    3 ar
     5    2   23 1
     6    3    4 ar
     7    3   24 1
     8    4    5 ar
     9    4    7 1
    10    5    6 ar
    11    5   25 1
    12    6   26 1
    13    7   12 1
    14    7    8 1
    15    8    9 1
    16    8   27 1
    17    8   28 1
    18    9   10 1
    19    9   29 1
    20    9   30 1
    21   10   11 1
    22   10   13 1
    23   10   44 1
    24   11   12 1
    25   11   31 1
    26   11   32 1
    27   12   33 1
    28   12   34 1
    29   13   14 1
    30   13   19 1
    31   13   15 1
    32   15   16 1
    33   15   35 1
    34   15   36 1
    35   16   17 1
    36   16   37 1
    37   16   38 1
    38   17   18 1
    39   17   39 1
    40   17   40 1
    41   18   19 1
    42   18   41 1
    43   18   42 1
    44   19   20 1
    45   19   21 1
    46   21   43 1
@<TRIPOS>MOLECULE
ZINC28238024
   43    45     0     0     0
SMALL
USER_CHARGES
(1S,2R)-2-(4-phenylpiperazin-1-yl)cyclohexan-1-ol
@<TRIPOS>ATOM
      1 C1          0.0798   -2.7703    0.0059 C.ar      1 <0>        -0.1474
      2 C2         -1.1266   -2.0971    0.0664 C.ar      1 <0>        -0.0952
      3 C3         -1.1489   -0.7163    0.0747 C.ar      1 <0>        -0.1414
      4 C4          0.0423   -0.0036    0.0221 C.ar      1 <0>         0.1123
      5 C5          1.2522   -0.6831   -0.0439 C.ar      1 <0>        -0.1711
      6 C6          1.2675   -2.0640   -0.0465 C.ar      1 <0>        -0.0936
      7 N1          0.0234    1.3930    0.0298 N.pl3     1 <0>        -0.4914
      8 C7         -0.7996    1.9146   -1.0703 C.3       1 <0>         0.0607
      9 C8         -0.8594    3.4412   -0.9797 C.3       1 <0>         0.0501
     10 N2          0.5038    3.9867   -1.0412 N.3       1 <0>        -0.5267
     11 C9          1.3268    3.4651    0.0589 C.3       1 <0>         0.0538
     12 C10         1.3866    1.9385   -0.0317 C.3       1 <0>         0.0542
     13 C11         0.4839    5.4556   -1.0331 C.3       1 <0>         0.0980
     14 H1          0.1091    5.7721   -0.0485 H         1 <0>         0.0504
     15 C12        -0.4375    5.9593   -2.1459 C.3       1 <0>        -0.1114
     16 C13        -0.4583    7.4891   -2.1375 C.3       1 <0>        -0.1193
     17 C14         0.9581    8.0196   -2.3688 C.3       1 <0>        -0.1155
     18 C15         1.8794    7.5159   -1.2560 C.3       1 <0>        -0.1520
     19 C16         1.9002    5.9861   -1.2645 C.3       1 <0>         0.1257
     20 H2          2.6012    5.5926   -0.5137 H         1 <0>         0.0480
     21 O1          2.3818    5.5232   -2.5277 O.3       1 <0>        -0.5772
     22 H3          0.0945   -3.8502   -0.0000 H         1 <0>         0.1207
     23 H4         -2.0524   -2.6518    0.1069 H         1 <0>         0.1235
     24 H5         -2.0914   -0.1911    0.1223 H         1 <0>         0.1231
     25 H6          2.1799   -0.1320   -0.0894 H         1 <0>         0.1258
     26 H7          2.2080   -2.5929   -0.0937 H         1 <0>         0.1218
     27 H8         -0.3547    1.6206   -2.0324 H         1 <0>         0.0540
     28 H9         -1.8164    1.5018   -0.9952 H         1 <0>         0.0862
     29 H10        -1.4514    3.8354   -1.8189 H         1 <0>         0.0901
     30 H11        -1.3301    3.7340   -0.0296 H         1 <0>         0.0421
     31 H12         2.3436    3.8779   -0.0163 H         1 <0>         0.0849
     32 H13         0.8819    3.7591    1.0210 H         1 <0>         0.0409
     33 H14         1.9779    1.5433    0.8075 H         1 <0>         0.0860
     34 H15         1.8566    1.6447   -0.9818 H         1 <0>         0.0571
     35 H16        -0.0667    5.6030   -3.1183 H         1 <0>         0.0826
     36 H17        -1.4558    5.5778   -1.9796 H         1 <0>         0.0620
     37 H18        -1.1207    7.8512   -2.9376 H         1 <0>         0.0661
     38 H19        -0.8291    7.8454   -1.1651 H         1 <0>         0.0586
     39 H20         1.3288    7.6632   -3.3412 H         1 <0>         0.0710
     40 H21         0.9432    9.1195   -2.3628 H         1 <0>         0.0603
     41 H22         2.8976    7.8974   -1.4222 H         1 <0>         0.0669
     42 H23         1.5086    7.8722   -0.2836 H         1 <0>         0.0678
     43 H24         3.3890    5.8045   -2.8690 H         1 <0>         0.3977
@<TRIPOS>BOND
     1    1    6 ar
     2    1    2 ar
     3    1   22 1
     4    2    3 ar
     5    2   23 1
     6    3    4 ar
     7    3   24 1
     8    4    5 ar
     9    4    7 1
    10    5    6 ar
    11    5   25 1
    12    6   26 1
    13    7   12 1
    14    7    8 1
    15    8    9 1
    16    8   27 1
    17    8   28 1
    18    9   10 1
    19    9   29 1
    20    9   30 1
    21   10   11 1
    22   10   13 1
    23   11   12 1
    24   11   31 1
    25   11   32 1
    26   12   33 1
    27   12   34 1
    28   13   14 1
    29   13   19 1
    30   13   15 1
    31   15   16 1
    32   15   35 1
    33   15   36 1
    34   16   17 1
    35   16   37 1
    36   16   38 1
    37   17   18 1
    38   17   39 1
    39   17   40 1
    40   18   19 1
    41   18   41 1
    42   18   42 1
    43   19   20 1
    44   19   21 1
    45   21   43 1
@<TRIPOS>MOLECULE
ZINC28238024
   44    46     0     0     0
SMALL
USER_CHARGES
(1S,2R)-2-(4-phenylpiperazin-1-yl)cyclohexan-1-ol
@<TRIPOS>ATOM
      1 C1          0.0798   -2.7703    0.0059 C.ar      1 <0>        -0.1265
      2 C2         -1.1266   -2.0971    0.0664 C.ar      1 <0>        -0.0920
      3 C3         -1.1489   -0.7163    0.0747 C.ar      1 <0>        -0.1297
      4 C4          0.0423   -0.0036    0.0221 C.ar      1 <0>         0.0863
      5 C5          1.2522   -0.6831   -0.0439 C.ar      1 <0>        -0.1639
      6 C6          1.2675   -2.0640   -0.0465 C.ar      1 <0>        -0.0916
      7 N1          0.0234    1.3930    0.0298 N.pl3     1 <0>        -0.4867
      8 C7         -0.7996    1.9146   -1.0703 C.3       1 <0>         0.0271
      9 C8         -0.8594    3.4412   -0.9797 C.3       1 <0>        -0.0059
     10 N2          0.5038    3.9867   -1.0412 N.4       1 <0>        -0.4006
     11 C9          1.3268    3.4651    0.0589 C.3       1 <0>        -0.0018
     12 C10         1.3866    1.9385   -0.0317 C.3       1 <0>         0.0228
     13 C11         0.4839    5.4556   -1.0331 C.3       1 <0>         0.0464
     14 H1          0.1091    5.7721   -0.0485 H         1 <0>         0.1398
     15 C12        -0.4375    5.9593   -2.1459 C.3       1 <0>        -0.1375
     16 C13        -0.4583    7.4891   -2.1375 C.3       1 <0>        -0.1179
     17 C14         0.9581    8.0196   -2.3688 C.3       1 <0>        -0.1258
     18 C15         1.8794    7.5159   -1.2560 C.3       1 <0>        -0.1497
     19 C16         1.9002    5.9861   -1.2645 C.3       1 <0>         0.1026
     20 H2          2.6012    5.5926   -0.5137 H         1 <0>         0.0736
     21 O1          2.3818    5.5232   -2.5277 O.3       1 <0>        -0.6098
     22 H3          0.0945   -3.8502   -0.0000 H         1 <0>         0.1294
     23 H4         -2.0524   -2.6518    0.1069 H         1 <0>         0.1315
     24 H5         -2.0914   -0.1911    0.1223 H         1 <0>         0.1270
     25 H6          2.1799   -0.1320   -0.0894 H         1 <0>         0.1260
     26 H7          2.2080   -2.5929   -0.0937 H         1 <0>         0.1293
     27 H8         -0.3547    1.6206   -2.0324 H         1 <0>         0.0693
     28 H9         -1.8164    1.5018   -0.9952 H         1 <0>         0.1285
     29 H10        -1.4514    3.8354   -1.8189 H         1 <0>         0.1417
     30 H11        -1.3301    3.7340   -0.0296 H         1 <0>         0.1362
     31 H12         2.3436    3.8779   -0.0163 H         1 <0>         0.1371
     32 H13         0.8819    3.7591    1.0210 H         1 <0>         0.1351
     33 H14         1.9779    1.5433    0.8075 H         1 <0>         0.1291
     34 H15         1.8566    1.6447   -0.9818 H         1 <0>         0.0715
     35 H16        -0.0667    5.6030   -3.1183 H         1 <0>         0.0961
     36 H17        -1.4558    5.5778   -1.9796 H         1 <0>         0.0864
     37 H18        -1.1207    7.8512   -2.9376 H         1 <0>         0.0858
     38 H19        -0.8291    7.8454   -1.1651 H         1 <0>         0.0726
     39 H20         1.3288    7.6632   -3.3412 H         1 <0>         0.0772
     40 H21         0.9432    9.1195   -2.3628 H         1 <0>         0.0778
     41 H22         2.8976    7.8974   -1.4222 H         1 <0>         0.0862
     42 H23         1.5086    7.8722   -0.2836 H         1 <0>         0.0810
     43 H24         3.3890    5.8045   -2.8690 H         1 <0>         0.4412
     44 H25         0.9576    3.6612   -1.9889 H         1 <0>         0.4449
@<TRIPOS>BOND
     1    1    6 ar
     2    1    2 ar
     3    1   22 1
     4    2    3 ar
     5    2   23 1
     6    3    4 ar
     7    3   24 1
     8    4    5 ar
     9    4    7 1
    10    5    6 ar
    11    5   25 1
    12    6   26 1
    13    7   12 1
    14    7    8 1
    15    8    9 1
    16    8   27 1
    17    8   28 1
    18    9   10 1
    19    9   29 1
    20    9   30 1
    21   10   11 1
    22   10   13 1
    23   10   44 1
    24   11   12 1
    25   11   31 1
    26   11   32 1
    27   12   33 1
    28   12   34 1
    29   13   14 1
    30   13   19 1
    31   13   15 1
    32   15   16 1
    33   15   35 1
    34   15   36 1
    35   16   17 1
    36   16   37 1
    37   16   38 1
    38   17   18 1
    39   17   39 1
    40   17   40 1
    41   18   19 1
    42   18   41 1
    43   18   42 1
    44   19   20 1
    45   19   21 1
    46   21   43 1
@<TRIPOS>MOLECULE
ZINC00359757
   45    47     0     0     0
SMALL
USER_CHARGES

@<TRIPOS>ATOM
      1 C1         -0.0166    1.3781    0.0209 C.ar      1 <0>        -0.1100
      2 C2          1.1712    2.0853    0.0286 C.ar      1 <0>        -0.1129
      3 C3          2.3775    1.4105    0.0150 C.ar      1 <0>        -0.1099
      4 C4          2.3962    0.0284   -0.0059 C.ar      1 <0>        -0.0968
      5 C5          1.2085   -0.6788   -0.0127 C.ar      1 <0>        -0.1164
      6 C6          0.0021   -0.0040   -0.0005 C.ar      1 <0>        -0.1144
      7 C7          3.7113   -0.7072   -0.0218 C.3       1 <0>        -0.0531
      8 C8          3.7971   -1.5757   -1.2802 C.3       1 <0>        -0.1373
      9 C9          5.0987   -2.3798   -1.2505 C.3       1 <0>        -0.0148
     10 N1          5.1211   -3.2377   -0.0597 N.4       1 <0>        -0.3775
     11 C10         5.1115   -2.4087    1.1516 C.3       1 <0>        -0.0096
     12 C11         3.8104   -1.6057    1.2144 C.3       1 <0>        -0.1387
     13 C12         6.3355   -4.0641   -0.0761 C.3       1 <0>         0.0362
     14 H1          6.4046   -4.6269    0.8548 H         1 <0>         0.1424
     15 C13         7.5636   -3.1630   -0.2197 C.3       1 <0>        -0.1415
     16 C14         8.8285   -4.0237   -0.2368 C.3       1 <0>        -0.1204
     17 C15         8.7681   -4.9955   -1.4170 C.3       1 <0>        -0.1286
     18 C16         7.5400   -5.8966   -1.2734 C.3       1 <0>        -0.1509
     19 C17         6.2752   -5.0359   -1.2563 C.3       1 <0>         0.0885
     20 H2          6.2061   -4.4731   -2.1872 H         1 <0>         0.0791
     21 O1          5.1281   -5.8774   -1.1222 O.3       1 <0>        -0.5751
     22 H3         -0.9590    1.9052    0.0361 H         1 <0>         0.1276
     23 H4          1.1566    3.1651    0.0449 H         1 <0>         0.1278
     24 H5          3.3054    1.9631    0.0203 H         1 <0>         0.1235
     25 H6          1.2230   -1.7586   -0.0294 H         1 <0>         0.1179
     26 H7         -0.9258   -0.5565   -0.0062 H         1 <0>         0.1264
     27 H8          4.5310    0.0113   -0.0167 H         1 <0>         0.0954
     28 H9          2.9480   -2.2585   -1.3098 H         1 <0>         0.0900
     29 H10         3.7833   -0.9381   -2.1641 H         1 <0>         0.1134
     30 H11         5.1631   -2.9991   -2.1452 H         1 <0>         0.1288
     31 H12         5.9471   -1.6961   -1.2212 H         1 <0>         0.1313
     32 H13         5.1853   -3.0494    2.0303 H         1 <0>         0.1312
     33 H14         5.9596   -1.7244    1.1297 H         1 <0>         0.1297
     34 H15         3.8060   -0.9896    2.1135 H         1 <0>         0.1145
     35 H16         2.9616   -2.2892    1.2366 H         1 <0>         0.0901
     36 H17         7.4945   -2.6002   -1.1506 H         1 <0>         0.0904
     37 H18         7.6066   -2.4707    0.6211 H         1 <0>         0.0943
     38 H19         9.7034   -3.3817   -0.3391 H         1 <0>         0.0885
     39 H20         8.8976   -4.5865    0.6941 H         1 <0>         0.0770
     40 H21         8.6990   -4.4327   -2.3479 H         1 <0>         0.0718
     41 H22         9.6692   -5.6087   -1.4292 H         1 <0>         0.0841
     42 H23         7.4970   -6.5889   -2.1142 H         1 <0>         0.0873
     43 H24         7.6091   -6.4594   -0.3425 H         1 <0>         0.0837
     44 H25         5.0261   -6.5203   -1.8374 H         1 <0>         0.4073
     45 H26         4.3091   -3.8366   -0.0626 H         1 <0>         0.4297
@<TRIPOS>BOND
     1    1    6 ar
     2    1    2 ar
     3    1   22 1
     4    2    3 ar
     5    2   23 1
     6    3    4 ar
     7    3   24 1
     8    4    5 ar
     9    4    7 1
    10    5    6 ar
    11    5   25 1
    12    6   26 1
    13    7   12 1
    14    7    8 1
    15    7   27 1
    16    8    9 1
    17    8   28 1
    18    8   29 1
    19    9   10 1
    20    9   30 1
    21    9   31 1
    22   10   11 1
    23   10   13 1
    24   10   45 1
    25   11   12 1
    26   11   32 1
    27   11   33 1
    28   12   34 1
    29   12   35 1
    30   13   14 1
    31   13   19 1
    32   13   15 1
    33   15   16 1
    34   15   36 1
    35   15   37 1
    36   16   17 1
    37   16   38 1
    38   16   39 1
    39   17   18 1
    40   17   40 1
    41   17   41 1
    42   18   19 1
    43   18   42 1
    44   18   43 1
    45   19   20 1
    46   19   21 1
    47   21   44 1
@<TRIPOS>MOLECULE
ZINC28236634
   48    50     0     0     0
SMALL
USER_CHARGES
(1R,2S)-2-(4-benzyl-1-piperidyl)cyclohexan-1-ol
@<TRIPOS>ATOM
      1 C1          1.2084   -0.6789   -0.0132 C.ar      1 <0>        -0.1168
      2 C2          0.0021   -0.0041    0.0020 C.ar      1 <0>        -0.1163
      3 C3         -0.0167    1.3781    0.0096 C.ar      1 <0>        -0.1213
      4 C4          1.1709    2.0855    0.0021 C.ar      1 <0>        -0.0936
      5 C5          2.3773    1.4107   -0.0145 C.ar      1 <0>        -0.1165
      6 C6          2.3961    0.0285   -0.0212 C.ar      1 <0>        -0.1140
      7 C7          1.1505    3.5924    0.0099 C.3       1 <0>        -0.0762
      8 C8          1.1571    4.0950    1.4550 C.3       1 <0>        -0.0942
      9 C9         -0.1401    3.6720    2.1498 C.3       1 <0>        -0.1430
     10 C10        -0.1554    4.2306    3.5746 C.3       1 <0>        -0.0075
     11 N1         -0.0565    5.6950    3.5300 N.4       1 <0>        -0.3949
     12 C11         1.2038    6.1235    2.9100 C.3       1 <0>        -0.0069
     13 C12         1.2590    5.6228    1.4649 C.3       1 <0>        -0.1421
     14 C13        -0.2066    6.2739    4.8718 C.3       1 <0>         0.0457
     15 H1          0.7271    6.0774    5.4191 H         1 <0>         0.1375
     16 C14        -0.4529    7.7793    4.7531 C.3       1 <0>        -0.1352
     17 C15        -0.6093    8.3822    6.1506 C.3       1 <0>        -0.1178
     18 C16        -1.7955    7.7256    6.8596 C.3       1 <0>        -0.1254
     19 C17        -1.5491    6.2202    6.9782 C.3       1 <0>        -0.1505
     20 C18        -1.3928    5.6173    5.5807 C.3       1 <0>         0.1005
     21 H2         -1.2738    4.5248    5.6286 H         1 <0>         0.0755
     22 O1         -2.5849    5.8469    4.8268 O.3       1 <0>        -0.6074
     23 H3          1.2231   -1.7588   -0.0184 H         1 <0>         0.1251
     24 H4         -0.9258   -0.5567    0.0083 H         1 <0>         0.1243
     25 H5         -0.9592    1.9054    0.0170 H         1 <0>         0.1197
     26 H6          3.3052    1.9634   -0.0205 H         1 <0>         0.1212
     27 H7          3.3386   -0.4987   -0.0324 H         1 <0>         0.1251
     28 H8          2.0387    3.9738   -0.5151 H         1 <0>         0.0831
     29 H9          0.2427    3.9495   -0.4984 H         1 <0>         0.0789
     30 H10         2.0185    3.6634    1.9857 H         1 <0>         0.0893
     31 H11        -1.0012    4.0662    1.5902 H         1 <0>         0.0889
     32 H12        -0.1966    2.5740    2.1839 H         1 <0>         0.1138
     33 H13        -1.0936    3.9423    4.0714 H         1 <0>         0.1329
     34 H14         0.6976    3.8234    4.1373 H         1 <0>         0.1213
     35 H15         1.2622    7.2219    2.9195 H         1 <0>         0.1306
     36 H16         2.0507    5.7064    3.4747 H         1 <0>         0.1243
     37 H17         2.2097    5.9298    1.0047 H         1 <0>         0.1129
     38 H18         0.4209    6.0499    0.8947 H         1 <0>         0.0899
     39 H19         0.4000    8.2513    4.2435 H         1 <0>         0.0839
     40 H20        -1.3704    7.9561    4.1727 H         1 <0>         0.0961
     41 H21         0.3083    8.2055    6.7309 H         1 <0>         0.0718
     42 H22        -0.7865    9.4645    6.0653 H         1 <0>         0.0853
     43 H23        -1.9078    8.1591    7.8643 H         1 <0>         0.0771
     44 H24        -2.7131    7.9024    6.2794 H         1 <0>         0.0773
     45 H25        -0.6315    6.0435    7.5585 H         1 <0>         0.0799
     46 H26        -2.4019    5.7481    7.4879 H         1 <0>         0.0854
     47 H27        -3.5461    5.4475    5.1825 H         1 <0>         0.4387
     48 H28        -0.8813    6.0677    2.9049 H         1 <0>         0.4435
@<TRIPOS>BOND
     1    1    6 ar
     2    1    2 ar
     3    1   23 1
     4    2    3 ar
     5    2   24 1
     6    3    4 ar
     7    3   25 1
     8    4    5 ar
     9    4    7 1
    10    5    6 ar
    11    5   26 1
    12    6   27 1
    13    7    8 1
    14    7   28 1
    15    7   29 1
    16    8   13 1
    17    8    9 1
    18    8   30 1
    19    9   10 1
    20    9   31 1
    21    9   32 1
    22   10   11 1
    23   10   33 1
    24   10   34 1
    25   11   12 1
    26   11   14 1
    27   11   48 1
    28   12   13 1
    29   12   35 1
    30   12   36 1
    31   13   37 1
    32   13   38 1
    33   14   15 1
    34   14   20 1
    35   14   16 1
    36   16   17 1
    37   16   39 1
    38   16   40 1
    39   17   18 1
    40   17   41 1
    41   17   42 1
    42   18   19 1
    43   18   43 1
    44   18   44 1
    45   19   20 1
    46   19   45 1
    47   19   46 1
    48   20   21 1
    49   20   22 1
    50   22   47 1
@<TRIPOS>MOLECULE
ZINC28236639
   48    50     0     0     0
SMALL
USER_CHARGES
(1S,2S)-2-(4-benzyl-1-piperidyl)cyclohexan-1-ol
@<TRIPOS>ATOM
      1 C1         -2.1415    7.7014   -5.0842 C.ar      1 <0>        -0.1168
      2 C2         -1.1598    7.0069   -5.7660 C.ar      1 <0>        -0.1140
      3 C3         -1.1027    5.6284   -5.6809 C.ar      1 <0>        -0.1164
      4 C4         -2.0268    4.9443   -4.9135 C.ar      1 <0>        -0.0936
      5 C5         -3.0117    5.6384   -4.2358 C.ar      1 <0>        -0.1211
      6 C6         -3.0662    7.0173   -4.3175 C.ar      1 <0>        -0.1164
      7 C7         -1.9645    3.4415   -4.8207 C.3       1 <0>        -0.0762
      8 C8         -1.0720    3.0398   -3.6446 C.3       1 <0>        -0.0938
      9 C9         -0.9069    1.5177   -3.6242 C.3       1 <0>        -0.1422
     10 C10        -0.0627    1.1173   -2.4121 C.3       1 <0>        -0.0067
     11 N1         -0.7232    1.5724   -1.1821 N.4       1 <0>        -0.3943
     12 C11        -0.8503    3.0352   -1.1577 C.3       1 <0>        -0.0105
     13 C12        -1.7179    3.4929   -2.3323 C.3       1 <0>        -0.1432
     14 C13        -0.0127    1.0858    0.0080 C.3       1 <0>         0.0471
     15 H1         -0.0191   -0.0134   -0.0342 H         1 <0>         0.1386
     16 C14         1.4227    1.6154   -0.0028 C.3       1 <0>        -0.1405
     17 C15         2.1627    1.1086    1.2367 C.3       1 <0>        -0.1213
     18 C16         1.4465    1.6020    2.4955 C.3       1 <0>        -0.1298
     19 C17         0.0111    1.0724    2.5063 C.3       1 <0>        -0.1493
     20 C18        -0.7288    1.5792    1.2668 C.3       1 <0>         0.1014
     21 H2         -0.8134    2.6759    1.2735 H         1 <0>         0.0752
     22 O1         -2.0695    1.0846    1.2770 O.3       1 <0>        -0.6144
     23 H3         -2.1857    8.7785   -5.1501 H         1 <0>         0.1251
     24 H4         -0.4374    7.5414   -6.3650 H         1 <0>         0.1251
     25 H5         -0.3357    5.0858   -6.2136 H         1 <0>         0.1213
     26 H6         -3.7364    5.1037   -3.6398 H         1 <0>         0.1196
     27 H7         -3.8329    7.5599   -3.7845 H         1 <0>         0.1243
     28 H8         -2.9774    3.0414   -4.6658 H         1 <0>         0.0790
     29 H9         -1.5478    3.0335   -5.7534 H         1 <0>         0.0833
     30 H10        -0.0878    3.5180   -3.7568 H         1 <0>         0.0893
     31 H11        -1.8966    1.0424   -3.5571 H         1 <0>         0.0901
     32 H12        -0.4051    1.1909   -4.5469 H         1 <0>         0.1130
     33 H13         0.0457    0.0230   -2.3862 H         1 <0>         0.1298
     34 H14         0.9312    1.5825   -2.4877 H         1 <0>         0.1259
     35 H15        -1.3194    3.3468   -0.2128 H         1 <0>         0.1290
     36 H16         0.1473    3.4914   -1.2397 H         1 <0>         0.1236
     37 H17        -1.8005    4.5898   -2.3239 H         1 <0>         0.1137
     38 H18        -2.7205    3.0490   -2.2447 H         1 <0>         0.0889
     39 H19         1.9376    1.2607   -0.9078 H         1 <0>         0.0931
     40 H20         1.4078    2.7153    0.0032 H         1 <0>         0.0877
     41 H21         2.1777    0.0087    1.2306 H         1 <0>         0.0767
     42 H22         3.1947    1.4894    1.2289 H         1 <0>         0.0876
     43 H23         1.9785    1.2376    3.3867 H         1 <0>         0.0832
     44 H24         1.4316    2.7019    2.5016 H         1 <0>         0.0710
     45 H25         0.0260   -0.0275    2.5003 H         1 <0>         0.0828
     46 H26        -0.5038    1.4271    3.4113 H         1 <0>         0.0858
     47 H27        -2.7424    1.3367    2.1099 H         1 <0>         0.4416
     48 H28        -1.7377    1.1474   -1.1695 H         1 <0>         0.4481
@<TRIPOS>BOND
     1    1    6 ar
     2    1    2 ar
     3    1   23 1
     4    2    3 ar
     5    2   24 1
     6    3    4 ar
     7    3   25 1
     8    4    5 ar
     9    4    7 1
    10    5    6 ar
    11    5   26 1
    12    6   27 1
    13    7    8 1
    14    7   28 1
    15    7   29 1
    16    8   13 1
    17    8    9 1
    18    8   30 1
    19    9   10 1
    20    9   31 1
    21    9   32 1
    22   10   11 1
    23   10   33 1
    24   10   34 1
    25   11   12 1
    26   11   14 1
    27   11   48 1
    28   12   13 1
    29   12   35 1
    30   12   36 1
    31   13   37 1
    32   13   38 1
    33   14   15 1
    34   14   20 1
    35   14   16 1
    36   16   17 1
    37   16   39 1
    38   16   40 1
    39   17   18 1
    40   17   41 1
    41   17   42 1
    42   18   19 1
    43   18   43 1
    44   18   44 1
    45   19   20 1
    46   19   45 1
    47   19   46 1
    48   20   21 1
    49   20   22 1
    50   22   47 1
@<TRIPOS>MOLECULE
ZINC28236642
   48    50     0     0     0
SMALL
USER_CHARGES
(1R,2R)-2-(4-benzyl-1-piperidyl)cyclohexan-1-ol
@<TRIPOS>ATOM
      1 C1         -2.0782    2.5005   -3.4532 C.ar      1 <0>        -0.1168
      2 C2         -1.0663    3.2585   -2.8942 C.ar      1 <0>        -0.1164
      3 C3         -0.3980    2.8008   -1.7740 C.ar      1 <0>        -0.1212
      4 C4         -0.7416    1.5850   -1.2129 C.ar      1 <0>        -0.0936
      5 C5         -1.7499    0.8246   -1.7750 C.ar      1 <0>        -0.1164
      6 C6         -2.4217    1.2848   -2.8921 C.ar      1 <0>        -0.1140
      7 C7         -0.0127    1.0858    0.0080 C.3       1 <0>        -0.0762
      8 C8         -0.7288    1.5792    1.2668 C.3       1 <0>        -0.0938
      9 C9         -0.6389    3.1060    1.3415 C.3       1 <0>        -0.1431
     10 C10        -1.3021    3.5885    2.6336 C.3       1 <0>        -0.0106
     11 N1         -0.6281    2.9822    3.7888 N.4       1 <0>        -0.3943
     12 C11        -0.7435    1.5185    3.7628 C.3       1 <0>        -0.0067
     13 C12        -0.0622    0.9740    2.5053 C.3       1 <0>        -0.1423
     14 C13        -1.1489    3.5290    5.0488 C.3       1 <0>         0.0471
     15 H1         -0.5538    3.0932    5.8649 H         1 <0>         0.1386
     16 C14        -2.6238    3.1504    5.1982 C.3       1 <0>        -0.1405
     17 C15        -3.1661    3.7200    6.5106 C.3       1 <0>        -0.1213
     18 C16        -3.0293    5.2438    6.5004 C.3       1 <0>        -0.1298
     19 C17        -1.5544    5.6224    6.3510 C.3       1 <0>        -0.1494
     20 C18        -1.0120    5.0529    5.0387 C.3       1 <0>         0.1014
     21 H2         -1.5243    5.4937    4.1708 H         1 <0>         0.0752
     22 O1          0.3655    5.4065    4.8992 O.3       1 <0>        -0.6144
     23 H3         -2.6001    2.8580   -4.3285 H         1 <0>         0.1251
     24 H4         -0.7977    4.2082   -3.3328 H         1 <0>         0.1243
     25 H5          0.3927    3.3928   -1.3375 H         1 <0>         0.1196
     26 H6         -2.0153   -0.1273   -1.3392 H         1 <0>         0.1213
     27 H7         -3.2120    0.6924   -3.3290 H         1 <0>         0.1250
     28 H8          0.0022   -0.0141    0.0019 H         1 <0>         0.0832
     29 H9          1.0193    1.4665    0.0002 H         1 <0>         0.0790
     30 H10        -1.7844    1.2723    1.2278 H         1 <0>         0.0893
     31 H11         0.4177    3.4119    1.3332 H         1 <0>         0.0889
     32 H12        -1.1550    3.5465    0.4757 H         1 <0>         0.1138
     33 H13        -1.2248    4.6839    2.6985 H         1 <0>         0.1289
     34 H14        -2.3623    3.2951    2.6333 H         1 <0>         0.1235
     35 H15        -0.2572    1.0965    4.6547 H         1 <0>         0.1298
     36 H16        -1.8062    1.2345    3.7557 H         1 <0>         0.1259
     37 H17        -0.1619   -0.1211    2.4771 H         1 <0>         0.1130
     38 H18         1.0039    1.2449    2.5172 H         1 <0>         0.0901
     39 H19        -3.1958    3.5643    4.3547 H         1 <0>         0.0877
     40 H20        -2.7222    2.0548    5.2055 H         1 <0>         0.0931
     41 H21        -4.2265    3.4478    6.6180 H         1 <0>         0.0876
     42 H22        -2.5940    3.3062    7.3541 H         1 <0>         0.0767
     43 H23        -3.6014    5.6576    5.6569 H         1 <0>         0.0710
     44 H24        -3.4192    5.6533    7.4439 H         1 <0>         0.0833
     45 H25        -1.4560    6.7180    6.3437 H         1 <0>         0.0858
     46 H26        -0.9823    5.2086    7.1945 H         1 <0>         0.0828
     47 H27         0.6614    6.4656    4.8717 H         1 <0>         0.4417
     48 H28         0.4404    3.2355    3.7245 H         1 <0>         0.4480
@<TRIPOS>BOND
     1    1    6 ar
     2    1    2 ar
     3    1   23 1
     4    2    3 ar
     5    2   24 1
     6    3    4 ar
     7    3   25 1
     8    4    5 ar
     9    4    7 1
    10    5    6 ar
    11    5   26 1
    12    6   27 1
    13    7    8 1
    14    7   28 1
    15    7   29 1
    16    8   13 1
    17    8    9 1
    18    8   30 1
    19    9   10 1
    20    9   31 1
    21    9   32 1
    22   10   11 1
    23   10   33 1
    24   10   34 1
    25   11   12 1
    26   11   14 1
    27   11   48 1
    28   12   13 1
    29   12   35 1
    30   12   36 1
    31   13   37 1
    32   13   38 1
    33   14   15 1
    34   14   20 1
    35   14   16 1
    36   16   17 1
    37   16   39 1
    38   16   40 1
    39   17   18 1
    40   17   41 1
    41   17   42 1
    42   18   19 1
    43   18   43 1
    44   18   44 1
    45   19   20 1
    46   19   45 1
    47   19   46 1
    48   20   21 1
    49   20   22 1
    50   22   47 1
@<TRIPOS>MOLECULE
ZINC28236646
   48    50     0     0     0
SMALL
USER_CHARGES
(1S,2R)-2-(4-benzyl-1-piperidyl)cyclohexan-1-ol
@<TRIPOS>ATOM
      1 C1         -2.0127    2.4656    6.0661 C.ar      1 <0>        -0.1167
      2 C2         -2.4264    1.2804    5.4872 C.ar      1 <0>        -0.1162
      3 C3         -1.8022    0.8140    4.3455 C.ar      1 <0>        -0.1213
      4 C4         -0.7642    1.5328    3.7825 C.ar      1 <0>        -0.0938
      5 C5         -0.3471    2.7153    4.3643 C.ar      1 <0>        -0.1164
      6 C6         -0.9748    3.1844    5.5031 C.ar      1 <0>        -0.1141
      7 C7         -0.0834    1.0241    2.5380 C.3       1 <0>        -0.0761
      8 C8         -0.7972    1.5783    1.3034 C.3       1 <0>        -0.0938
      9 C9         -0.0336    1.1648    0.0422 C.3       1 <0>        -0.1410
     10 C10        -0.7840    1.6700   -1.1921 C.3       1 <0>        -0.0060
     11 N1         -2.1378    1.1012   -1.2103 N.4       1 <0>        -0.3961
     12 C11        -2.9069    1.5232   -0.0327 C.3       1 <0>        -0.0090
     13 C12        -2.2198    1.0137    1.2363 C.3       1 <0>        -0.1448
     14 C13        -2.8401    1.4533   -2.4516 C.3       1 <0>         0.0459
     15 H1         -2.9155    2.5502   -2.4848 H         1 <0>         0.1371
     16 C14        -4.2325    0.8192   -2.4472 C.3       1 <0>        -0.1368
     17 C15        -4.9640    1.1859   -3.7400 C.3       1 <0>        -0.1180
     18 C16        -4.1704    0.6656   -4.9402 C.3       1 <0>        -0.1255
     19 C17        -2.7780    1.2997   -4.9446 C.3       1 <0>        -0.1501
     20 C18        -2.0465    0.9330   -3.6517 C.3       1 <0>         0.1024
     21 H2         -1.0185    1.3245   -3.6501 H         1 <0>         0.0738
     22 O1         -1.9227   -0.4877   -3.5611 O.3       1 <0>        -0.6086
     23 H3         -2.5002    2.8298    6.9583 H         1 <0>         0.1251
     24 H4         -3.2371    0.7187    5.9272 H         1 <0>         0.1244
     25 H5         -2.1252   -0.1122    3.8934 H         1 <0>         0.1197
     26 H6          0.4667    3.2746    3.9270 H         1 <0>         0.1212
     27 H7         -0.6513    4.1102    5.9556 H         1 <0>         0.1251
     28 H8          0.9661    1.3535    2.5335 H         1 <0>         0.0831
     29 H9         -0.1227   -0.0751    2.5217 H         1 <0>         0.0789
     30 H10        -0.8364    2.6755    1.3705 H         1 <0>         0.0896
     31 H11         0.9753    1.6025    0.0644 H         1 <0>         0.1119
     32 H12         0.0433    0.0682    0.0031 H         1 <0>         0.0901
     33 H13        -0.8484    2.7676   -1.1583 H         1 <0>         0.1231
     34 H14        -0.2452    1.3621   -2.1003 H         1 <0>         0.1294
     35 H15        -2.9607    2.6215   -0.0042 H         1 <0>         0.1238
     36 H16        -3.9237    1.1077   -0.0906 H         1 <0>         0.1322
     37 H17        -2.1775   -0.0853    1.2162 H         1 <0>         0.0886
     38 H18        -2.7869    1.3427    2.1195 H         1 <0>         0.1150
     39 H19        -4.1371   -0.2744   -2.3774 H         1 <0>         0.0960
     40 H20        -4.8030    1.1933   -1.5843 H         1 <0>         0.0854
     41 H21        -5.9651    0.7300   -3.7368 H         1 <0>         0.0853
     42 H22        -5.0594    2.2795   -3.8098 H         1 <0>         0.0718
     43 H23        -4.0750   -0.4280   -4.8704 H         1 <0>         0.0773
     44 H24        -4.6963    0.9292   -5.8697 H         1 <0>         0.0772
     45 H25        -2.2075    0.9256   -5.8075 H         1 <0>         0.0856
     46 H26        -2.8733    2.3933   -5.0144 H         1 <0>         0.0802
     47 H27        -1.3801   -1.0433   -4.3401 H         1 <0>         0.4400
     48 H28        -2.0419    0.0060   -1.1732 H         1 <0>         0.4452
@<TRIPOS>BOND
     1    1    6 ar
     2    1    2 ar
     3    1   23 1
     4    2    3 ar
     5    2   24 1
     6    3    4 ar
     7    3   25 1
     8    4    5 ar
     9    4    7 1
    10    5    6 ar
    11    5   26 1
    12    6   27 1
    13    7    8 1
    14    7   28 1
    15    7   29 1
    16    8   13 1
    17    8    9 1
    18    8   30 1
    19    9   10 1
    20    9   31 1
    21    9   32 1
    22   10   11 1
    23   10   33 1
    24   10   34 1
    25   11   12 1
    26   11   14 1
    27   11   48 1
    28   12   13 1
    29   12   35 1
    30   12   36 1
    31   13   37 1
    32   13   38 1
    33   14   15 1
    34   14   20 1
    35   14   16 1
    36   16   17 1
    37   16   39 1
    38   16   40 1
    39   17   18 1
    40   17   41 1
    41   17   42 1
    42   18   19 1
    43   18   43 1
    44   18   44 1
    45   19   20 1
    46   19   45 1
    47   19   46 1
    48   20   21 1
    49   20   22 1
    50   22   47 1
@<TRIPOS>MOLECULE
ZINC00359759
   45    47     0     0     0
SMALL
USER_CHARGES

@<TRIPOS>ATOM
      1 C1         -0.0205    1.3743   -0.0825 C.ar      1 <0>        -0.1100
      2 C2          1.1624    2.0773   -0.2148 C.ar      1 <0>        -0.1129
      3 C3          2.3683    1.4021   -0.2419 C.ar      1 <0>        -0.1099
      4 C4          2.3914    0.0240   -0.1363 C.ar      1 <0>        -0.0968
      5 C5          1.2085   -0.6789   -0.0031 C.ar      1 <0>        -0.1164
      6 C6          0.0025   -0.0038    0.0226 C.ar      1 <0>        -0.1144
      7 C7          3.7060   -0.7122   -0.1669 C.3       1 <0>        -0.0531
      8 C8          3.7162   -1.6934   -1.3426 C.3       1 <0>        -0.1386
      9 C9          5.0204   -2.4934   -1.3209 C.3       1 <0>        -0.0096
     10 N1          5.1211   -3.2377   -0.0597 N.4       1 <0>        -0.3775
     11 C10         5.1841   -2.3004    1.0681 C.3       1 <0>        -0.0148
     12 C11         3.8862   -1.4929    1.1382 C.3       1 <0>        -0.1374
     13 C12         6.3355   -4.0641   -0.0761 C.3       1 <0>         0.0362
     14 H1          6.3344   -4.6939   -0.9657 H         1 <0>         0.1424
     15 C13         7.5685   -3.1584   -0.0940 C.3       1 <0>        -0.1415
     16 C14         8.8333   -4.0191   -0.1111 C.3       1 <0>        -0.1204
     17 C15         8.8667   -4.9014    1.1384 C.3       1 <0>        -0.1286
     18 C16         7.6337   -5.8071    1.1563 C.3       1 <0>        -0.1509
     19 C17         6.3689   -4.9464    1.1734 C.3       1 <0>         0.0884
     20 H2          6.3700   -4.3165    2.0630 H         1 <0>         0.0792
     21 O1          5.2173   -5.7923    1.1901 O.3       1 <0>        -0.5750
     22 H3         -0.9624    1.9022   -0.0568 H         1 <0>         0.1276
     23 H4          1.1444    3.1540   -0.2973 H         1 <0>         0.1278
     24 H5          3.2924    1.9512   -0.3460 H         1 <0>         0.1235
     25 H6          1.2265   -1.7556    0.0791 H         1 <0>         0.1179
     26 H7         -0.9216   -0.5530    0.1263 H         1 <0>         0.1264
     27 H8          4.5213    0.0023   -0.2798 H         1 <0>         0.0954
     28 H9          2.8698   -2.3746   -1.2556 H         1 <0>         0.0902
     29 H10         3.6443   -1.1401   -2.2790 H         1 <0>         0.1145
     30 H11         5.0311   -3.1928   -2.1568 H         1 <0>         0.1312
     31 H12         5.8661   -1.8113   -1.4082 H         1 <0>         0.1298
     32 H13         5.3156   -2.8572    1.9958 H         1 <0>         0.1288
     33 H14         6.0263   -1.6224    0.9299 H         1 <0>         0.1312
     34 H15         3.9357   -0.7963    1.9751 H         1 <0>         0.1134
     35 H16         3.0433   -2.1699    1.2767 H         1 <0>         0.0900
     36 H17         7.5447   -2.5298   -0.9842 H         1 <0>         0.0943
     37 H18         7.5696   -2.5285    0.7956 H         1 <0>         0.0904
     38 H19         8.8322   -4.6489   -1.0007 H         1 <0>         0.0770
     39 H20         9.7117   -3.3738   -0.1239 H         1 <0>         0.0885
     40 H21         9.7678   -5.5146    1.1262 H         1 <0>         0.0841
     41 H22         8.8678   -4.2715    2.0280 H         1 <0>         0.0718
     42 H23         7.6326   -6.4369    0.2667 H         1 <0>         0.0837
     43 H24         7.6575   -6.4356    2.0465 H         1 <0>         0.0873
     44 H25         5.1725   -6.3806    1.9563 H         1 <0>         0.4073
     45 H26         4.3130   -3.8330    0.0437 H         1 <0>         0.4297
@<TRIPOS>BOND
     1    1    6 ar
     2    1    2 ar
     3    1   22 1
     4    2    3 ar
     5    2   23 1
     6    3    4 ar
     7    3   24 1
     8    4    5 ar
     9    4    7 1
    10    5    6 ar
    11    5   25 1
    12    6   26 1
    13    7   12 1
    14    7    8 1
    15    7   27 1
    16    8    9 1
    17    8   28 1
    18    8   29 1
    19    9   10 1
    20    9   30 1
    21    9   31 1
    22   10   11 1
    23   10   13 1
    24   10   45 1
    25   11   12 1
    26   11   32 1
    27   11   33 1
    28   12   34 1
    29   12   35 1
    30   13   14 1
    31   13   19 1
    32   13   15 1
    33   15   16 1
    34   15   36 1
    35   15   37 1
    36   16   17 1
    37   16   38 1
    38   16   39 1
    39   17   18 1
    40   17   40 1
    41   17   41 1
    42   18   19 1
    43   18   42 1
    44   18   43 1
    45   19   20 1
    46   19   21 1
    47   21   44 1
@<TRIPOS>MOLECULE
ZINC00359762
   45    47     0     0     0
SMALL
USER_CHARGES

@<TRIPOS>ATOM
      1 C1         -0.0167    1.3781    0.0096 C.ar      1 <0>        -0.1101
      2 C2          1.1709    2.0855    0.0021 C.ar      1 <0>        -0.1129
      3 C3          2.3773    1.4107   -0.0130 C.ar      1 <0>        -0.1100
      4 C4          2.3960    0.0285   -0.0201 C.ar      1 <0>        -0.0968
      5 C5          1.2084   -0.6789   -0.0117 C.ar      1 <0>        -0.1164
      6 C6          0.0021   -0.0041    0.0020 C.ar      1 <0>        -0.1144
      7 C7          3.7112   -0.7071   -0.0376 C.3       1 <0>        -0.0534
      8 C8          3.7885   -1.5882   -1.2877 C.3       1 <0>        -0.1384
      9 C9          5.0904   -2.3918   -1.2589 C.3       1 <0>        -0.0120
     10 N1          5.1211   -3.2377   -0.0597 N.4       1 <0>        -0.3783
     11 C10         5.1196   -2.3966    1.1432 C.3       1 <0>        -0.0102
     12 C11         3.8189   -1.5931    1.2068 C.3       1 <0>        -0.1374
     13 C12         6.3355   -4.0641   -0.0761 C.3       1 <0>         0.0361
     14 H1          7.2139   -3.4188   -0.0889 H         1 <0>         0.1440
     15 C13         6.3339   -4.9482   -1.3248 C.3       1 <0>        -0.1382
     16 C14         7.5988   -5.8089   -1.3419 C.3       1 <0>        -0.1166
     17 C15         7.6322   -6.6912   -0.0924 C.3       1 <0>        -0.1264
     18 C16         7.6337   -5.8071    1.1563 C.3       1 <0>        -0.1515
     19 C17         6.3689   -4.9464    1.1734 C.3       1 <0>         0.0883
     20 H2          6.3700   -4.3165    2.0630 H         1 <0>         0.0795
     21 O1          5.2173   -5.7923    1.1901 O.3       1 <0>        -0.5695
     22 H3         -0.9591    1.9053    0.0259 H         1 <0>         0.1276
     23 H4          1.1563    3.1654    0.0076 H         1 <0>         0.1278
     24 H5          3.3051    1.9634   -0.0196 H         1 <0>         0.1235
     25 H6          1.2231   -1.7588   -0.0176 H         1 <0>         0.1178
     26 H7         -0.9258   -0.5567    0.0082 H         1 <0>         0.1264
     27 H8          4.5307    0.0115   -0.0454 H         1 <0>         0.0954
     28 H9          2.9394   -2.2714   -1.3046 H         1 <0>         0.0898
     29 H10         3.7685   -0.9595   -2.1779 H         1 <0>         0.1143
     30 H11         5.1488   -3.0201   -2.1477 H         1 <0>         0.1336
     31 H12         5.9388   -1.7078   -1.2423 H         1 <0>         0.1288
     32 H13         5.1996   -3.0283    2.0278 H         1 <0>         0.1302
     33 H14         5.9674   -1.7124    1.1086 H         1 <0>         0.1280
     34 H15         3.8205   -0.9680    2.0997 H         1 <0>         0.1134
     35 H16         2.9704   -2.2764    1.2417 H         1 <0>         0.0901
     36 H17         5.4555   -5.5934   -1.3121 H         1 <0>         0.0951
     37 H18         6.3101   -4.3196   -2.2150 H         1 <0>         0.0866
     38 H19         7.5976   -6.4387   -2.2315 H         1 <0>         0.0856
     39 H20         8.4772   -5.1636   -1.3547 H         1 <0>         0.0726
     40 H21         6.7537   -7.3364   -0.0796 H         1 <0>         0.0769
     41 H22         8.5332   -7.3043   -0.1046 H         1 <0>         0.0782
     42 H23         7.6575   -6.4356    2.0465 H         1 <0>         0.0869
     43 H24         8.5121   -5.1618    1.1435 H         1 <0>         0.0830
     44 H25         5.1725   -6.3806    1.9563 H         1 <0>         0.4051
     45 H26         4.3092   -3.8367   -0.0510 H         1 <0>         0.4278
@<TRIPOS>BOND
     1    1    6 ar
     2    1    2 ar
     3    1   22 1
     4    2    3 ar
     5    2   23 1
     6    3    4 ar
     7    3   24 1
     8    4    5 ar
     9    4    7 1
    10    5    6 ar
    11    5   25 1
    12    6   26 1
    13    7   12 1
    14    7    8 1
    15    7   27 1
    16    8    9 1
    17    8   28 1
    18    8   29 1
    19    9   10 1
    20    9   30 1
    21    9   31 1
    22   10   11 1
    23   10   13 1
    24   10   45 1
    25   11   12 1
    26   11   32 1
    27   11   33 1
    28   12   34 1
    29   12   35 1
    30   13   14 1
    31   13   19 1
    32   13   15 1
    33   15   16 1
    34   15   36 1
    35   15   37 1
    36   16   17 1
    37   16   38 1
    38   16   39 1
    39   17   18 1
    40   17   40 1
    41   17   41 1
    42   18   19 1
    43   18   42 1
    44   18   43 1
    45   19   20 1
    46   19   21 1
    47   21   44 1
@<TRIPOS>MOLECULE
ZINC03173766
   45    47     0     0     0
SMALL
USER_CHARGES

@<TRIPOS>ATOM
      1 C1         -0.0167    1.3781    0.0096 C.ar      1 <0>        -0.1101
      2 C2          1.1709    2.0855    0.0021 C.ar      1 <0>        -0.1129
      3 C3          2.3773    1.4107   -0.0130 C.ar      1 <0>        -0.1100
      4 C4          2.3960    0.0285   -0.0201 C.ar      1 <0>        -0.0968
      5 C5          1.2084   -0.6789   -0.0117 C.ar      1 <0>        -0.1164
      6 C6          0.0021   -0.0041    0.0020 C.ar      1 <0>        -0.1144
      7 C7          3.7112   -0.7071   -0.0376 C.3       1 <0>        -0.0534
      8 C8          3.7885   -1.5882   -1.2877 C.3       1 <0>        -0.1374
      9 C9          5.0904   -2.3918   -1.2589 C.3       1 <0>        -0.0102
     10 N1          5.1211   -3.2377   -0.0597 N.4       1 <0>        -0.3783
     11 C10         5.1196   -2.3966    1.1432 C.3       1 <0>        -0.0121
     12 C11         3.8189   -1.5931    1.2068 C.3       1 <0>        -0.1384
     13 C12         6.3355   -4.0641   -0.0761 C.3       1 <0>         0.0361
     14 H1          7.2139   -3.4188   -0.0889 H         1 <0>         0.1440
     15 C13         6.3689   -4.9464    1.1734 C.3       1 <0>        -0.1382
     16 C14         7.6337   -5.8071    1.1563 C.3       1 <0>        -0.1167
     17 C15         7.6322   -6.6912   -0.0924 C.3       1 <0>        -0.1264
     18 C16         7.5988   -5.8089   -1.3419 C.3       1 <0>        -0.1514
     19 C17         6.3339   -4.9482   -1.3248 C.3       1 <0>         0.0884
     20 H2          6.3101   -4.3196   -2.2150 H         1 <0>         0.0794
     21 O1          5.1823   -5.7941   -1.3081 O.3       1 <0>        -0.5695
     22 H3         -0.9591    1.9053    0.0259 H         1 <0>         0.1276
     23 H4          1.1563    3.1654    0.0076 H         1 <0>         0.1278
     24 H5          3.3051    1.9634   -0.0196 H         1 <0>         0.1235
     25 H6          1.2231   -1.7588   -0.0176 H         1 <0>         0.1178
     26 H7         -0.9258   -0.5567    0.0082 H         1 <0>         0.1264
     27 H8          4.5307    0.0115   -0.0454 H         1 <0>         0.0954
     28 H9          2.9394   -2.2714   -1.3046 H         1 <0>         0.0901
     29 H10         3.7685   -0.9595   -2.1779 H         1 <0>         0.1135
     30 H11         5.1488   -3.0201   -2.1477 H         1 <0>         0.1301
     31 H12         5.9388   -1.7078   -1.2423 H         1 <0>         0.1280
     32 H13         5.1996   -3.0283    2.0278 H         1 <0>         0.1337
     33 H14         5.9674   -1.7124    1.1086 H         1 <0>         0.1288
     34 H15         3.8205   -0.9680    2.0997 H         1 <0>         0.1143
     35 H16         2.9704   -2.2764    1.2417 H         1 <0>         0.0898
     36 H17         6.3700   -4.3165    2.0630 H         1 <0>         0.0867
     37 H18         5.4905   -5.5916    1.1862 H         1 <0>         0.0951
     38 H19         8.5121   -5.1618    1.1435 H         1 <0>         0.0726
     39 H20         7.6575   -6.4356    2.0465 H         1 <0>         0.0856
     40 H21         8.5332   -7.3043   -0.1046 H         1 <0>         0.0782
     41 H22         6.7537   -7.3364   -0.0796 H         1 <0>         0.0769
     42 H23         8.4772   -5.1636   -1.3547 H         1 <0>         0.0830
     43 H24         7.5976   -6.4387   -2.2315 H         1 <0>         0.0869
     44 H25         5.1161   -6.3834   -2.0719 H         1 <0>         0.4051
     45 H26         4.3092   -3.8367   -0.0510 H         1 <0>         0.4278
@<TRIPOS>BOND
     1    1    6 ar
     2    1    2 ar
     3    1   22 1
     4    2    3 ar
     5    2   23 1
     6    3    4 ar
     7    3   24 1
     8    4    5 ar
     9    4    7 1
    10    5    6 ar
    11    5   25 1
    12    6   26 1
    13    7   12 1
    14    7    8 1
    15    7   27 1
    16    8    9 1
    17    8   28 1
    18    8   29 1
    19    9   10 1
    20    9   30 1
    21    9   31 1
    22   10   11 1
    23   10   13 1
    24   10   45 1
    25   11   12 1
    26   11   32 1
    27   11   33 1
    28   12   34 1
    29   12   35 1
    30   13   14 1
    31   13   19 1
    32   13   15 1
    33   15   16 1
    34   15   36 1
    35   15   37 1
    36   16   17 1
    37   16   38 1
    38   16   39 1
    39   17   18 1
    40   17   40 1
    41   17   41 1
    42   18   19 1
    43   18   42 1
    44   18   43 1
    45   19   20 1
    46   19   21 1
    47   21   44 1
@<TRIPOS>MOLECULE
ZINC28231319
   47    49     0     0     0
SMALL
USER_CHARGES
(1S,2R)-2-[4-(4-methoxyphenyl)piperazin-1-yl]cyclohexan-1-ol
@<TRIPOS>ATOM
      1 C1         -3.5920    3.0414   -0.0169 C.3       1 <0>         0.0243
      2 O1         -2.4046    3.8355    0.0237 O.3       1 <0>        -0.3193
      3 C2         -1.2174    3.1722    0.0093 C.ar      1 <0>         0.1016
      4 C3         -1.1983    1.7865   -0.0481 C.ar      1 <0>        -0.1822
      5 C4          0.0068    1.1119   -0.0575 C.ar      1 <0>        -0.0995
      6 C5          1.1997    1.8217   -0.0201 C.ar      1 <0>         0.0762
      7 C6          1.1797    3.2092    0.0321 C.ar      1 <0>        -0.1293
      8 C7         -0.0264    3.8820    0.0467 C.ar      1 <0>        -0.1248
      9 N1          2.4212    1.1392   -0.0354 N.pl3     1 <0>        -0.4880
     10 C8          2.4987    0.1733    1.0695 C.3       1 <0>         0.0598
     11 C9          3.8122   -0.6061    0.9709 C.3       1 <0>         0.0505
     12 N2          4.9411    0.3336    1.0166 N.3       1 <0>        -0.5266
     13 C10         4.8636    1.2995   -0.0883 C.3       1 <0>         0.0541
     14 C11         3.5501    2.0789    0.0103 C.3       1 <0>         0.0535
     15 C12         6.2234   -0.3829    1.0005 C.3       1 <0>         0.0981
     16 H1          6.3141   -0.8688    0.0178 H         1 <0>         0.0502
     17 C13         6.2385   -1.4267    2.1190 C.3       1 <0>        -0.1113
     18 C14         7.5741   -2.1729    2.1023 C.3       1 <0>        -0.1193
     19 C15         8.7167   -1.1783    2.3174 C.3       1 <0>        -0.1155
     20 C16         8.7016   -0.1345    1.1989 C.3       1 <0>        -0.1520
     21 C17         7.3660    0.6117    1.2156 C.3       1 <0>         0.1257
     22 H2          7.3463    1.4113    0.4604 H         1 <0>         0.0481
     23 O2          7.1998    1.2626    2.4768 O.3       1 <0>        -0.5771
     24 H3         -4.4736    3.6990    0.0000 H         1 <0>         0.1013
     25 H4         -3.6162    2.3731    0.8565 H         1 <0>         0.0554
     26 H5         -3.6001    2.4409   -0.9385 H         1 <0>         0.0556
     27 H6         -2.1261    1.2347   -0.0814 H         1 <0>         0.1296
     28 H7          0.0214    0.0328   -0.0985 H         1 <0>         0.1268
     29 H8          2.1070    3.7621    0.0609 H         1 <0>         0.1337
     30 H9         -0.0421    4.9611    0.0877 H         1 <0>         0.1312
     31 H10         2.4607    0.7099    2.0290 H         1 <0>         0.0533
     32 H11         1.6512   -0.5250    1.0062 H         1 <0>         0.0847
     33 H12         3.8852   -1.3096    1.8133 H         1 <0>         0.0893
     34 H13         3.8369   -1.1646    0.0236 H         1 <0>         0.0417
     35 H14         5.7111    1.9978   -0.0249 H         1 <0>         0.0846
     36 H15         4.9016    0.7629   -1.0478 H         1 <0>         0.0408
     37 H16         3.4759    2.7823   -0.8321 H         1 <0>         0.0861
     38 H17         3.5242    2.6373    0.9577 H         1 <0>         0.0567
     39 H18         6.1106   -0.9256    3.0899 H         1 <0>         0.0826
     40 H19         5.4170   -2.1418    1.9644 H         1 <0>         0.0619
     41 H20         7.5849   -2.9233    2.9065 H         1 <0>         0.0659
     42 H21         7.7020   -2.6740    1.1315 H         1 <0>         0.0585
     43 H22         8.5888   -0.6773    3.2883 H         1 <0>         0.0710
     44 H23         9.6770   -1.7147    2.3054 H         1 <0>         0.0602
     45 H24         9.5231    0.5805    1.3536 H         1 <0>         0.0668
     46 H25         8.8296   -0.6355    0.2280 H         1 <0>         0.0677
     47 H26         7.9296    2.0165    2.8070 H         1 <0>         0.3976
@<TRIPOS>BOND
     1    1    2 1
     2    1   24 1
     3    1   25 1
     4    1   26 1
     5    2    3 1
     6    3    8 ar
     7    3    4 ar
     8    4    5 ar
     9    4   27 1
    10    5    6 ar
    11    5   28 1
    12    6    7 ar
    13    6    9 1
    14    7    8 ar
    15    7   29 1
    16    8   30 1
    17    9   14 1
    18    9   10 1
    19   10   11 1
    20   10   31 1
    21   10   32 1
    22   11   12 1
    23   11   33 1
    24   11   34 1
    25   12   13 1
    26   12   15 1
    27   13   14 1
    28   13   35 1
    29   13   36 1
    30   14   37 1
    31   14   38 1
    32   15   16 1
    33   15   21 1
    34   15   17 1
    35   17   18 1
    36   17   39 1
    37   17   40 1
    38   18   19 1
    39   18   41 1
    40   18   42 1
    41   19   20 1
    42   19   43 1
    43   19   44 1
    44   20   21 1
    45   20   45 1
    46   20   46 1
    47   21   22 1
    48   21   23 1
    49   23   47 1
@<TRIPOS>MOLECULE
ZINC28231319
   48    50     0     0     0
SMALL
USER_CHARGES
(1S,2R)-2-[4-(4-methoxyphenyl)piperazin-1-yl]cyclohexan-1-ol
@<TRIPOS>ATOM
      1 C1         -3.5920    3.0414   -0.0169 C.3       1 <0>         0.0207
      2 O1         -2.4046    3.8355    0.0237 O.3       1 <0>        -0.3136
      3 C2         -1.2174    3.1722    0.0093 C.ar      1 <0>         0.1257
      4 C3         -1.1983    1.7865   -0.0481 C.ar      1 <0>        -0.1838
      5 C4          0.0068    1.1119   -0.0575 C.ar      1 <0>        -0.0852
      6 C5          1.1997    1.8217   -0.0201 C.ar      1 <0>         0.0457
      7 C6          1.1797    3.2092    0.0321 C.ar      1 <0>        -0.1201
      8 C7         -0.0264    3.8820    0.0467 C.ar      1 <0>        -0.1266
      9 N1          2.4212    1.1392   -0.0354 N.pl3     1 <0>        -0.4822
     10 C8          2.4987    0.1733    1.0695 C.3       1 <0>         0.0259
     11 C9          3.8122   -0.6061    0.9709 C.3       1 <0>        -0.0056
     12 N2          4.9411    0.3336    1.0166 N.4       1 <0>        -0.4005
     13 C10         4.8636    1.2995   -0.0883 C.3       1 <0>        -0.0016
     14 C11         3.5501    2.0789    0.0103 C.3       1 <0>         0.0221
     15 C12         6.2234   -0.3829    1.0005 C.3       1 <0>         0.0465
     16 H1          6.3141   -0.8688    0.0178 H         1 <0>         0.1397
     17 C13         6.2385   -1.4267    2.1190 C.3       1 <0>        -0.1375
     18 C14         7.5741   -2.1729    2.1023 C.3       1 <0>        -0.1179
     19 C15         8.7167   -1.1783    2.3174 C.3       1 <0>        -0.1258
     20 C16         8.7016   -0.1345    1.1989 C.3       1 <0>        -0.1497
     21 C17         7.3660    0.6117    1.2156 C.3       1 <0>         0.1026
     22 H2          7.3463    1.4113    0.4604 H         1 <0>         0.0738
     23 O2          7.1998    1.2626    2.4768 O.3       1 <0>        -0.6098
     24 H3         -4.4736    3.6990    0.0000 H         1 <0>         0.1083
     25 H4         -3.6162    2.3731    0.8565 H         1 <0>         0.0590
     26 H5         -3.6001    2.4409   -0.9385 H         1 <0>         0.0599
     27 H6         -2.1261    1.2347   -0.0814 H         1 <0>         0.1369
     28 H7          0.0214    0.0328   -0.0985 H         1 <0>         0.1301
     29 H8          2.1070    3.7621    0.0609 H         1 <0>         0.1333
     30 H9         -0.0421    4.9611    0.0877 H         1 <0>         0.1380
     31 H10         2.4607    0.7099    2.0290 H         1 <0>         0.0685
     32 H11         1.6512   -0.5250    1.0062 H         1 <0>         0.1269
     33 H12         3.8852   -1.3096    1.8133 H         1 <0>         0.1408
     34 H13         3.8369   -1.1646    0.0236 H         1 <0>         0.1358
     35 H14         5.7111    1.9978   -0.0249 H         1 <0>         0.1367
     36 H15         4.9016    0.7629   -1.0478 H         1 <0>         0.1349
     37 H16         3.4759    2.7823   -0.8321 H         1 <0>         0.1292
     38 H17         3.5242    2.6373    0.9577 H         1 <0>         0.0711
     39 H18         6.1106   -0.9256    3.0899 H         1 <0>         0.0960
     40 H19         5.4170   -2.1418    1.9644 H         1 <0>         0.0863
     41 H20         7.5849   -2.9233    2.9065 H         1 <0>         0.0856
     42 H21         7.7020   -2.6740    1.1315 H         1 <0>         0.0725
     43 H22         8.5888   -0.6773    3.2883 H         1 <0>         0.0772
     44 H23         9.6770   -1.7147    2.3054 H         1 <0>         0.0776
     45 H24         9.5231    0.5805    1.3536 H         1 <0>         0.0861
     46 H25         8.8296   -0.6355    0.2280 H         1 <0>         0.0810
     47 H26         7.9296    2.0165    2.8070 H         1 <0>         0.4411
     48 H27         4.8796    0.8929    1.9618 H         1 <0>         0.4448
@<TRIPOS>BOND
     1    1    2 1
     2    1   24 1
     3    1   25 1
     4    1   26 1
     5    2    3 1
     6    3    8 ar
     7    3    4 ar
     8    4    5 ar
     9    4   27 1
    10    5    6 ar
    11    5   28 1
    12    6    7 ar
    13    6    9 1
    14    7    8 ar
    15    7   29 1
    16    8   30 1
    17    9   14 1
    18    9   10 1
    19   10   11 1
    20   10   31 1
    21   10   32 1
    22   11   12 1
    23   11   33 1
    24   11   34 1
    25   12   13 1
    26   12   15 1
    27   12   48 1
    28   13   14 1
    29   13   35 1
    30   13   36 1
    31   14   37 1
    32   14   38 1
    33   15   16 1
    34   15   21 1
    35   15   17 1
    36   17   18 1
    37   17   39 1
    38   17   40 1
    39   18   19 1
    40   18   41 1
    41   18   42 1
    42   19   20 1
    43   19   43 1
    44   19   44 1
    45   20   21 1
    46   20   45 1
    47   20   46 1
    48   21   22 1
    49   21   23 1
    50   23   47 1
@<TRIPOS>MOLECULE
ZINC28231323
   47    49     0     0     0
SMALL
USER_CHARGES
(1S,2S)-2-[4-(4-methoxyphenyl)piperazin-1-yl]cyclohexan-1-ol
@<TRIPOS>ATOM
      1 C1         -3.4978    1.6440   -0.0817 C.3       1 <0>         0.0244
      2 O1         -2.2972    0.8998    0.1343 O.3       1 <0>        -0.3191
      3 C2         -1.1297    1.5973    0.1329 C.ar      1 <0>         0.1018
      4 C3          0.0727    0.9366    0.3368 C.ar      1 <0>        -0.1261
      5 C4          1.2593    1.6432    0.3294 C.ar      1 <0>        -0.0993
      6 C5          1.2479    3.0164    0.1235 C.ar      1 <0>         0.0761
      7 C6          0.0432    3.6780   -0.0747 C.ar      1 <0>        -0.1293
      8 C7         -1.1425    2.9698   -0.0671 C.ar      1 <0>        -0.1812
      9 N1          2.4498    3.7331    0.1154 N.pl3     1 <0>        -0.4871
     10 C8          3.1956    3.5248    1.3644 C.3       1 <0>         0.0593
     11 C9          4.5360    4.2592    1.2836 C.3       1 <0>         0.0509
     12 N2          4.2944    5.6898    1.0502 N.3       1 <0>        -0.5221
     13 C10         3.5486    5.8982   -0.1987 C.3       1 <0>         0.0492
     14 C11         2.2082    5.1638   -0.1179 C.3       1 <0>         0.0532
     15 C12         5.5561    6.4422    1.0417 C.3       1 <0>         0.0969
     16 H1          6.0635    6.2405    1.9966 H         1 <0>         0.0895
     17 C13         6.4189    5.9779   -0.1334 C.3       1 <0>        -0.1519
     18 C14         7.7329    6.7616   -0.1423 C.3       1 <0>        -0.1185
     19 C15         7.4350    8.2553   -0.2871 C.3       1 <0>        -0.1202
     20 C16         6.5723    8.7195    0.8881 C.3       1 <0>        -0.1510
     21 C17         5.2582    7.9359    0.8969 C.3       1 <0>         0.1256
     22 H2          4.6667    8.1387   -0.0081 H         1 <0>         0.0500
     23 O2          4.4524    8.3695    1.9945 O.3       1 <0>        -0.5843
     24 H3         -4.3611    0.9628   -0.0560 H         1 <0>         0.1014
     25 H4         -3.4506    2.1394   -1.0627 H         1 <0>         0.0553
     26 H5         -3.6058    2.4027    0.7074 H         1 <0>         0.0551
     27 H6          0.0814   -0.1315    0.4968 H         1 <0>         0.1328
     28 H7          2.1958    1.1280    0.4840 H         1 <0>         0.1315
     29 H8          0.0334    4.7459   -0.2353 H         1 <0>         0.1291
     30 H9         -2.0795    3.4841   -0.2216 H         1 <0>         0.1280
     31 H10         2.6117    3.9174    2.2099 H         1 <0>         0.0529
     32 H11         3.3739    2.4492    1.5100 H         1 <0>         0.0862
     33 H12         5.0834    4.1282    2.2287 H         1 <0>         0.0836
     34 H13         5.1307    3.8468    0.4552 H         1 <0>         0.0474
     35 H14         3.3703    6.9739   -0.3441 H         1 <0>         0.0838
     36 H15         4.1325    5.5057   -1.0443 H         1 <0>         0.0461
     37 H16         1.6602    5.2938   -1.0628 H         1 <0>         0.0847
     38 H17         1.6130    5.5751    0.7107 H         1 <0>         0.0552
     39 H18         6.6332    4.9040   -0.0292 H         1 <0>         0.0719
     40 H19         5.8803    6.1545   -1.0761 H         1 <0>         0.0688
     41 H20         8.2716    6.5849    0.8003 H         1 <0>         0.0652
     42 H21         8.3532    6.4279   -0.9872 H         1 <0>         0.0660
     43 H22         8.3798    8.8187   -0.2935 H         1 <0>         0.0670
     44 H23         6.8963    8.4321   -1.2298 H         1 <0>         0.0627
     45 H24         7.1110    8.5427    1.8307 H         1 <0>         0.0720
     46 H25         6.3582    9.7934    0.7841 H         1 <0>         0.0667
     47 H26         4.1354    9.4206    2.0626 H         1 <0>         0.3997
@<TRIPOS>BOND
     1    1    2 1
     2    1   24 1
     3    1   25 1
     4    1   26 1
     5    2    3 1
     6    3    8 ar
     7    3    4 ar
     8    4    5 ar
     9    4   27 1
    10    5    6 ar
    11    5   28 1
    12    6    7 ar
    13    6    9 1
    14    7    8 ar
    15    7   29 1
    16    8   30 1
    17    9   14 1
    18    9   10 1
    19   10   11 1
    20   10   31 1
    21   10   32 1
    22   11   12 1
    23   11   33 1
    24   11   34 1
    25   12   13 1
    26   12   15 1
    27   13   14 1
    28   13   35 1
    29   13   36 1
    30   14   37 1
    31   14   38 1
    32   15   16 1
    33   15   21 1
    34   15   17 1
    35   17   18 1
    36   17   39 1
    37   17   40 1
    38   18   19 1
    39   18   41 1
    40   18   42 1
    41   19   20 1
    42   19   43 1
    43   19   44 1
    44   20   21 1
    45   20   45 1
    46   20   46 1
    47   21   22 1
    48   21   23 1
    49   23   47 1
@<TRIPOS>MOLECULE
ZINC28231323
   48    50     0     0     0
SMALL
USER_CHARGES
(1S,2S)-2-[4-(4-methoxyphenyl)piperazin-1-yl]cyclohexan-1-ol
@<TRIPOS>ATOM
      1 C1         -3.4978    1.6440   -0.0817 C.3       1 <0>         0.0211
      2 O1         -2.2972    0.8998    0.1343 O.3       1 <0>        -0.3130
      3 C2         -1.1297    1.5973    0.1329 C.ar      1 <0>         0.1258
      4 C3          0.0727    0.9366    0.3368 C.ar      1 <0>        -0.1266
      5 C4          1.2593    1.6432    0.3294 C.ar      1 <0>        -0.0859
      6 C5          1.2479    3.0164    0.1235 C.ar      1 <0>         0.0459
      7 C6          0.0432    3.6780   -0.0747 C.ar      1 <0>        -0.1194
      8 C7         -1.1425    2.9698   -0.0671 C.ar      1 <0>        -0.1841
      9 N1          2.4498    3.7331    0.1154 N.pl3     1 <0>        -0.4817
     10 C8          3.1956    3.5248    1.3644 C.3       1 <0>         0.0256
     11 C9          4.5360    4.2592    1.2836 C.3       1 <0>        -0.0038
     12 N2          4.2944    5.6898    1.0502 N.4       1 <0>        -0.3988
     13 C10         3.5486    5.8982   -0.1987 C.3       1 <0>        -0.0072
     14 C11         2.2082    5.1638   -0.1179 C.3       1 <0>         0.0232
     15 C12         5.5561    6.4422    1.0417 C.3       1 <0>         0.0475
     16 H1          6.0635    6.2405    1.9966 H         1 <0>         0.1401
     17 C13         6.4189    5.9779   -0.1334 C.3       1 <0>        -0.1406
     18 C14         7.7329    6.7616   -0.1423 C.3       1 <0>        -0.1212
     19 C15         7.4350    8.2553   -0.2871 C.3       1 <0>        -0.1300
     20 C16         6.5723    8.7195    0.8881 C.3       1 <0>        -0.1489
     21 C17         5.2582    7.9359    0.8969 C.3       1 <0>         0.1019
     22 H2          4.6667    8.1387   -0.0081 H         1 <0>         0.0748
     23 O2          4.4524    8.3695    1.9945 O.3       1 <0>        -0.6156
     24 H3         -4.3611    0.9628   -0.0560 H         1 <0>         0.1084
     25 H4         -3.4506    2.1394   -1.0627 H         1 <0>         0.0592
     26 H5         -3.6058    2.4027    0.7074 H         1 <0>         0.0583
     27 H6          0.0814   -0.1315    0.4968 H         1 <0>         0.1401
     28 H7          2.1958    1.1280    0.4840 H         1 <0>         0.1347
     29 H8          0.0334    4.7459   -0.2353 H         1 <0>         0.1289
     30 H9         -2.0795    3.4841   -0.2216 H         1 <0>         0.1347
     31 H10         2.6117    3.9174    2.2099 H         1 <0>         0.0686
     32 H11         3.3739    2.4492    1.5100 H         1 <0>         0.1283
     33 H12         5.0834    4.1282    2.2287 H         1 <0>         0.1385
     34 H13         5.1307    3.8468    0.4552 H         1 <0>         0.1374
     35 H14         3.3703    6.9739   -0.3441 H         1 <0>         0.1362
     36 H15         4.1325    5.5057   -1.0443 H         1 <0>         0.1368
     37 H16         1.6602    5.2938   -1.0628 H         1 <0>         0.1277
     38 H17         1.6130    5.5751    0.7107 H         1 <0>         0.0701
     39 H18         6.6332    4.9040   -0.0292 H         1 <0>         0.0941
     40 H19         5.8803    6.1545   -1.0761 H         1 <0>         0.0895
     41 H20         8.2716    6.5849    0.8003 H         1 <0>         0.0767
     42 H21         8.3532    6.4279   -0.9872 H         1 <0>         0.0884
     43 H22         8.3798    8.8187   -0.2935 H         1 <0>         0.0835
     44 H23         6.8963    8.4321   -1.2298 H         1 <0>         0.0714
     45 H24         7.1110    8.5427    1.8307 H         1 <0>         0.0830
     46 H25         6.3582    9.7934    0.7841 H         1 <0>         0.0862
     47 H26         4.1354    9.4206    2.0626 H         1 <0>         0.4427
     48 H27         3.6806    6.0705    1.8799 H         1 <0>         0.4475
@<TRIPOS>BOND
     1    1    2 1
     2    1   24 1
     3    1   25 1
     4    1   26 1
     5    2    3 1
     6    3    8 ar
     7    3    4 ar
     8    4    5 ar
     9    4   27 1
    10    5    6 ar
    11    5   28 1
    12    6    7 ar
    13    6    9 1
    14    7    8 ar
    15    7   29 1
    16    8   30 1
    17    9   14 1
    18    9   10 1
    19   10   11 1
    20   10   31 1
    21   10   32 1
    22   11   12 1
    23   11   33 1
    24   11   34 1
    25   12   13 1
    26   12   15 1
    27   12   48 1
    28   13   14 1
    29   13   35 1
    30   13   36 1
    31   14   37 1
    32   14   38 1
    33   15   16 1
    34   15   21 1
    35   15   17 1
    36   17   18 1
    37   17   39 1
    38   17   40 1
    39   18   19 1
    40   18   41 1
    41   18   42 1
    42   19   20 1
    43   19   43 1
    44   19   44 1
    45   20   21 1
    46   20   45 1
    47   20   46 1
    48   21   22 1
    49   21   23 1
    50   23   47 1
@<TRIPOS>MOLECULE
ZINC28231328
   47    49     0     0     0
SMALL
USER_CHARGES
(1R,2R)-2-[4-(4-methoxyphenyl)piperazin-1-yl]cyclohexan-1-ol
@<TRIPOS>ATOM
      1 C1         -1.0729   -2.1256    0.0013 C.3       1 <0>         0.0243
      2 O1         -1.1666   -0.6996    0.0099 O.3       1 <0>        -0.3193
      3 C2          0.0021   -0.0041    0.0020 C.ar      1 <0>         0.1016
      4 C3         -0.0167    1.3828    0.0096 C.ar      1 <0>        -0.1247
      5 C4          1.1696    2.0899    0.0021 C.ar      1 <0>        -0.1292
      6 C5          2.3814    1.4121   -0.0135 C.ar      1 <0>         0.0762
      7 C6          2.3993    0.0236   -0.0211 C.ar      1 <0>        -0.0995
      8 C7          1.2120   -0.6820   -0.0132 C.ar      1 <0>        -0.1823
      9 N1          3.5839    2.1278   -0.0211 N.pl3     1 <0>        -0.4874
     10 C8          4.4376    1.7352    1.1088 C.3       1 <0>         0.0601
     11 C9          5.7716    2.4802    1.0198 C.3       1 <0>         0.0488
     12 N2          5.5225    3.9285    1.0299 N.3       1 <0>        -0.5219
     13 C10         4.6688    4.3210   -0.1000 C.3       1 <0>         0.0508
     14 C11         3.3348    3.5761   -0.0110 C.3       1 <0>         0.0520
     15 C12         6.7848    4.6798    1.0219 C.3       1 <0>         0.0970
     16 H1          6.5305    5.7472    1.0996 H         1 <0>         0.0900
     17 C13         7.5364    4.4003   -0.2811 C.3       1 <0>        -0.1519
     18 C14         8.8511    5.1828   -0.2894 C.3       1 <0>        -0.1185
     19 C15         9.7112    4.7477    0.8988 C.3       1 <0>        -0.1202
     20 C16         8.9596    5.0271    2.2018 C.3       1 <0>        -0.1510
     21 C17         7.6448    4.2446    2.2102 C.3       1 <0>         0.1241
     22 H2          7.8261    3.1597    2.1953 H         1 <0>         0.0507
     23 O2          6.9429    4.5057    3.4272 O.3       1 <0>        -0.5844
     24 H3         -2.0837   -2.5595    0.0090 H         1 <0>         0.1013
     25 H4         -0.5225   -2.4623    0.8922 H         1 <0>         0.0553
     26 H5         -0.5404   -2.4526   -0.9040 H         1 <0>         0.0556
     27 H6         -0.9594    1.9099    0.0170 H         1 <0>         0.1312
     28 H7          1.1547    3.1698    0.0077 H         1 <0>         0.1339
     29 H8          3.3413   -0.5044   -0.0330 H         1 <0>         0.1265
     30 H9          1.2258   -1.7618   -0.0191 H         1 <0>         0.1295
     31 H10         3.9359    1.9912    2.0537 H         1 <0>         0.0531
     32 H11         4.6189    0.6509    1.0720 H         1 <0>         0.0835
     33 H12         6.4009    2.2094    1.8804 H         1 <0>         0.0852
     34 H13         6.2855    2.2020    0.0878 H         1 <0>         0.0449
     35 H14         4.4875    5.4053   -0.0632 H         1 <0>         0.0836
     36 H15         5.1705    4.0650   -1.0449 H         1 <0>         0.0478
     37 H16         2.7050    3.8458   -0.8716 H         1 <0>         0.0872
     38 H17         2.8204    3.8532    0.9210 H         1 <0>         0.0560
     39 H18         7.7498    3.3239   -0.3576 H         1 <0>         0.0678
     40 H19         6.9181    4.7131   -1.1354 H         1 <0>         0.0727
     41 H20         9.3915    4.9819   -1.2262 H         1 <0>         0.0659
     42 H21         8.6377    6.2592   -0.2129 H         1 <0>         0.0653
     43 H22         9.9247    3.6713    0.8222 H         1 <0>         0.0625
     44 H23        10.6564    5.3103    0.8928 H         1 <0>         0.0670
     45 H24         9.5779    4.7142    3.0561 H         1 <0>         0.0667
     46 H25         8.7461    6.1035    2.2784 H         1 <0>         0.0722
     47 H26         7.4061    4.2572    4.3935 H         1 <0>         0.4000
@<TRIPOS>BOND
     1    1    2 1
     2    1   24 1
     3    1   25 1
     4    1   26 1
     5    2    3 1
     6    3    8 ar
     7    3    4 ar
     8    4    5 ar
     9    4   27 1
    10    5    6 ar
    11    5   28 1
    12    6    7 ar
    13    6    9 1
    14    7    8 ar
    15    7   29 1
    16    8   30 1
    17    9   14 1
    18    9   10 1
    19   10   11 1
    20   10   31 1
    21   10   32 1
    22   11   12 1
    23   11   33 1
    24   11   34 1
    25   12   13 1
    26   12   15 1
    27   13   14 1
    28   13   35 1
    29   13   36 1
    30   14   37 1
    31   14   38 1
    32   15   16 1
    33   15   21 1
    34   15   17 1
    35   17   18 1
    36   17   39 1
    37   17   40 1
    38   18   19 1
    39   18   41 1
    40   18   42 1
    41   19   20 1
    42   19   43 1
    43   19   44 1
    44   20   21 1
    45   20   45 1
    46   20   46 1
    47   21   22 1
    48   21   23 1
    49   23   47 1
@<TRIPOS>MOLECULE
ZINC28231328
   48    50     0     0     0
SMALL
USER_CHARGES
(1R,2R)-2-[4-(4-methoxyphenyl)piperazin-1-yl]cyclohexan-1-ol
@<TRIPOS>ATOM
      1 C1         -1.0729   -2.1256    0.0013 C.3       1 <0>         0.0207
      2 O1         -1.1666   -0.6996    0.0099 O.3       1 <0>        -0.3135
      3 C2          0.0021   -0.0041    0.0020 C.ar      1 <0>         0.1257
      4 C3         -0.0167    1.3828    0.0096 C.ar      1 <0>        -0.1265
      5 C4          1.1696    2.0899    0.0021 C.ar      1 <0>        -0.1200
      6 C5          2.3814    1.4121   -0.0135 C.ar      1 <0>         0.0459
      7 C6          2.3993    0.0236   -0.0211 C.ar      1 <0>        -0.0853
      8 C7          1.2120   -0.6820   -0.0132 C.ar      1 <0>        -0.1840
      9 N1          3.5839    2.1278   -0.0211 N.pl3     1 <0>        -0.4820
     10 C8          4.4376    1.7352    1.1088 C.3       1 <0>         0.0275
     11 C9          5.7716    2.4802    1.0198 C.3       1 <0>        -0.0075
     12 N2          5.5225    3.9285    1.0299 N.4       1 <0>        -0.3984
     13 C10         4.6688    4.3210   -0.1000 C.3       1 <0>        -0.0039
     14 C11         3.3348    3.5761   -0.0110 C.3       1 <0>         0.0210
     15 C12         6.7848    4.6798    1.0219 C.3       1 <0>         0.0477
     16 H1          6.5305    5.7472    1.0996 H         1 <0>         0.1401
     17 C13         7.5364    4.4003   -0.2811 C.3       1 <0>        -0.1406
     18 C14         8.8511    5.1828   -0.2894 C.3       1 <0>        -0.1212
     19 C15         9.7112    4.7477    0.8988 C.3       1 <0>        -0.1300
     20 C16         8.9596    5.0271    2.2018 C.3       1 <0>        -0.1490
     21 C17         7.6448    4.2446    2.2102 C.3       1 <0>         0.1014
     22 H2          7.8261    3.1597    2.1953 H         1 <0>         0.0753
     23 O2          6.9429    4.5057    3.4272 O.3       1 <0>        -0.6153
     24 H3         -2.0837   -2.5595    0.0090 H         1 <0>         0.1083
     25 H4         -0.5225   -2.4623    0.8922 H         1 <0>         0.0589
     26 H5         -0.5404   -2.4526   -0.9040 H         1 <0>         0.0599
     27 H6         -0.9594    1.9099    0.0170 H         1 <0>         0.1380
     28 H7          1.1547    3.1698    0.0077 H         1 <0>         0.1335
     29 H8          3.3413   -0.5044   -0.0330 H         1 <0>         0.1298
     30 H9          1.2258   -1.7618   -0.0191 H         1 <0>         0.1367
     31 H10         3.9359    1.9912    2.0537 H         1 <0>         0.0688
     32 H11         4.6189    0.6509    1.0720 H         1 <0>         0.1255
     33 H12         6.4009    2.2094    1.8804 H         1 <0>         0.1370
     34 H13         6.2855    2.2020    0.0878 H         1 <0>         0.1358
     35 H14         4.4875    5.4053   -0.0632 H         1 <0>         0.1387
     36 H15         5.1705    4.0650   -1.0449 H         1 <0>         0.1376
     37 H16         2.7050    3.8458   -0.8716 H         1 <0>         0.1301
     38 H17         2.8204    3.8532    0.9210 H         1 <0>         0.0711
     39 H18         7.7498    3.3239   -0.3576 H         1 <0>         0.0889
     40 H19         6.9181    4.7131   -1.1354 H         1 <0>         0.0945
     41 H20         9.3915    4.9819   -1.2262 H         1 <0>         0.0883
     42 H21         8.6377    6.2592   -0.2129 H         1 <0>         0.0767
     43 H22         9.9247    3.6713    0.8222 H         1 <0>         0.0713
     44 H23        10.6564    5.3103    0.8928 H         1 <0>         0.0834
     45 H24         9.5779    4.7142    3.0561 H         1 <0>         0.0861
     46 H25         8.7461    6.1035    2.2784 H         1 <0>         0.0830
     47 H26         7.4061    4.2572    4.3935 H         1 <0>         0.4424
     48 H27         4.9896    4.1752    1.9600 H         1 <0>         0.4474
@<TRIPOS>BOND
     1    1    2 1
     2    1   24 1
     3    1   25 1
     4    1   26 1
     5    2    3 1
     6    3    8 ar
     7    3    4 ar
     8    4    5 ar
     9    4   27 1
    10    5    6 ar
    11    5   28 1
    12    6    7 ar
    13    6    9 1
    14    7    8 ar
    15    7   29 1
    16    8   30 1
    17    9   14 1
    18    9   10 1
    19   10   11 1
    20   10   31 1
    21   10   32 1
    22   11   12 1
    23   11   33 1
    24   11   34 1
    25   12   13 1
    26   12   15 1
    27   12   48 1
    28   13   14 1
    29   13   35 1
    30   13   36 1
    31   14   37 1
    32   14   38 1
    33   15   16 1
    34   15   21 1
    35   15   17 1
    36   17   18 1
    37   17   39 1
    38   17   40 1
    39   18   19 1
    40   18   41 1
    41   18   42 1
    42   19   20 1
    43   19   43 1
    44   19   44 1
    45   20   21 1
    46   20   45 1
    47   20   46 1
    48   21   22 1
    49   21   23 1
    50   23   47 1
@<TRIPOS>MOLECULE
ZINC28231333
   47    49     0     0     0
SMALL
USER_CHARGES
(1R,2S)-2-[4-(4-methoxyphenyl)piperazin-1-yl]cyclohexan-1-ol
@<TRIPOS>ATOM
      1 C1         -4.1099    3.8882   -9.0239 C.3       1 <0>         0.0244
      2 O1         -4.8679    3.1261   -8.0822 O.3       1 <0>        -0.3192
      3 C2         -4.2100    2.6752   -6.9806 C.ar      1 <0>         0.1018
      4 C3         -4.8860    1.9292   -6.0265 C.ar      1 <0>        -0.1260
      5 C4         -4.2188    1.4714   -4.9073 C.ar      1 <0>        -0.0994
      6 C5         -2.8707    1.7577   -4.7375 C.ar      1 <0>         0.0762
      7 C6         -2.1960    2.5090   -5.6906 C.ar      1 <0>        -0.1294
      8 C7         -2.8633    2.9613   -6.8121 C.ar      1 <0>        -0.1811
      9 N1         -2.1939    1.2941   -3.6038 N.pl3     1 <0>        -0.4879
     10 C8         -0.7843    1.7089   -3.6257 C.3       1 <0>         0.0531
     11 C9         -0.0622    1.1169   -2.4130 C.3       1 <0>         0.0514
     12 N2         -0.7232    1.5724   -1.1821 N.3       1 <0>        -0.5269
     13 C10        -2.1328    1.1576   -1.1602 C.3       1 <0>         0.0533
     14 C11        -2.8549    1.7496   -2.3729 C.3       1 <0>         0.0609
     15 C12        -0.0127    1.0858    0.0080 C.3       1 <0>         0.0983
     16 H1         -0.0191   -0.0134   -0.0342 H         1 <0>         0.0501
     17 C13         1.4227    1.6154   -0.0028 C.3       1 <0>        -0.1087
     18 C14         2.1627    1.1086    1.2367 C.3       1 <0>        -0.1195
     19 C15         1.4465    1.6020    2.4955 C.3       1 <0>        -0.1155
     20 C16         0.0111    1.0724    2.5063 C.3       1 <0>        -0.1518
     21 C17        -0.7288    1.5792    1.2668 C.3       1 <0>         0.1231
     22 H2         -1.7828    1.2647    1.2752 H         1 <0>         0.0494
     23 O2         -0.7482    3.0081    1.2747 O.3       1 <0>        -0.5774
     24 H3         -4.7588    4.1878   -9.8601 H         1 <0>         0.1014
     25 H4         -3.2786    3.2773   -9.4055 H         1 <0>         0.0554
     26 H5         -3.7090    4.7861   -8.5309 H         1 <0>         0.0552
     27 H6         -5.9345    1.7066   -6.1587 H         1 <0>         0.1328
     28 H7         -4.7454    0.8905   -4.1645 H         1 <0>         0.1313
     29 H8         -1.1486    2.7362   -5.5570 H         1 <0>         0.1294
     30 H9         -2.3376    3.5419   -7.5556 H         1 <0>         0.1281
     31 H10        -0.3097    1.3462   -4.5494 H         1 <0>         0.0858
     32 H11        -0.7245    2.8067   -3.5894 H         1 <0>         0.0553
     33 H12        -0.0983    0.0187   -2.4649 H         1 <0>         0.0419
     34 H13         0.9863    1.4497   -2.4120 H         1 <0>         0.0877
     35 H14        -2.1926    0.0598   -1.1965 H         1 <0>         0.0405
     36 H15        -2.6075    1.5203   -0.2365 H         1 <0>         0.0865
     37 H16        -2.8189    2.8478   -2.3222 H         1 <0>         0.0535
     38 H17        -3.9034    1.4169   -2.3750 H         1 <0>         0.0851
     39 H18         1.9376    1.2607   -0.9078 H         1 <0>         0.0607
     40 H19         1.4078    2.7153    0.0032 H         1 <0>         0.0822
     41 H20         2.1777    0.0087    1.2306 H         1 <0>         0.0585
     42 H21         3.1947    1.4894    1.2289 H         1 <0>         0.0659
     43 H22         1.9785    1.2376    3.3867 H         1 <0>         0.0602
     44 H23         1.4316    2.7019    2.5016 H         1 <0>         0.0709
     45 H24         0.0260   -0.0275    2.5003 H         1 <0>         0.0678
     46 H25        -0.5038    1.4271    3.4113 H         1 <0>         0.0669
     47 H26        -1.2240    3.5471    2.1072 H         1 <0>         0.3980
@<TRIPOS>BOND
     1    1    2 1
     2    1   24 1
     3    1   25 1
     4    1   26 1
     5    2    3 1
     6    3    8 ar
     7    3    4 ar
     8    4    5 ar
     9    4   27 1
    10    5    6 ar
    11    5   28 1
    12    6    7 ar
    13    6    9 1
    14    7    8 ar
    15    7   29 1
    16    8   30 1
    17    9   14 1
    18    9   10 1
    19   10   11 1
    20   10   31 1
    21   10   32 1
    22   11   12 1
    23   11   33 1
    24   11   34 1
    25   12   13 1
    26   12   15 1
    27   13   14 1
    28   13   35 1
    29   13   36 1
    30   14   37 1
    31   14   38 1
    32   15   16 1
    33   15   21 1
    34   15   17 1
    35   17   18 1
    36   17   39 1
    37   17   40 1
    38   18   19 1
    39   18   41 1
    40   18   42 1
    41   19   20 1
    42   19   43 1
    43   19   44 1
    44   20   21 1
    45   20   45 1
    46   20   46 1
    47   21   22 1
    48   21   23 1
    49   23   47 1
@<TRIPOS>MOLECULE
ZINC28231333
   48    50     0     0     0
SMALL
USER_CHARGES
(1R,2S)-2-[4-(4-methoxyphenyl)piperazin-1-yl]cyclohexan-1-ol
@<TRIPOS>ATOM
      1 C1         -4.1099    3.8882   -9.0239 C.3       1 <0>         0.0210
      2 O1         -4.8679    3.1261   -8.0822 O.3       1 <0>        -0.3131
      3 C2         -4.2100    2.6752   -6.9806 C.ar      1 <0>         0.1258
      4 C3         -4.8860    1.9292   -6.0265 C.ar      1 <0>        -0.1266
      5 C4         -4.2188    1.4714   -4.9073 C.ar      1 <0>        -0.0861
      6 C5         -2.8707    1.7577   -4.7375 C.ar      1 <0>         0.0460
      7 C6         -2.1960    2.5090   -5.6906 C.ar      1 <0>        -0.1196
      8 C7         -2.8633    2.9613   -6.8121 C.ar      1 <0>        -0.1839
      9 N1         -2.1939    1.2941   -3.6038 N.pl3     1 <0>        -0.4821
     10 C8         -0.7843    1.7089   -3.6257 C.3       1 <0>         0.0217
     11 C9         -0.0622    1.1169   -2.4130 C.3       1 <0>        -0.0044
     12 N2         -0.7232    1.5724   -1.1821 N.4       1 <0>        -0.3999
     13 C10        -2.1328    1.1576   -1.1602 C.3       1 <0>        -0.0027
     14 C11        -2.8549    1.7496   -2.3729 C.3       1 <0>         0.0270
     15 C12        -0.0127    1.0858    0.0080 C.3       1 <0>         0.0465
     16 H1         -0.0191   -0.0134   -0.0342 H         1 <0>         0.1399
     17 C13         1.4227    1.6154   -0.0028 C.3       1 <0>        -0.1365
     18 C14         2.1627    1.1086    1.2367 C.3       1 <0>        -0.1178
     19 C15         1.4465    1.6020    2.4955 C.3       1 <0>        -0.1257
     20 C16         0.0111    1.0724    2.5063 C.3       1 <0>        -0.1499
     21 C17        -0.7288    1.5792    1.2668 C.3       1 <0>         0.1018
     22 H2         -1.7828    1.2647    1.2752 H         1 <0>         0.0746
     23 O2         -0.7482    3.0081    1.2747 O.3       1 <0>        -0.6094
     24 H3         -4.7588    4.1878   -9.8601 H         1 <0>         0.1084
     25 H4         -3.2786    3.2773   -9.4055 H         1 <0>         0.0593
     26 H5         -3.7090    4.7861   -8.5309 H         1 <0>         0.0584
     27 H6         -5.9345    1.7066   -6.1587 H         1 <0>         0.1401
     28 H7         -4.7454    0.8905   -4.1645 H         1 <0>         0.1345
     29 H8         -1.1486    2.7362   -5.5570 H         1 <0>         0.1291
     30 H9         -2.3376    3.5419   -7.5556 H         1 <0>         0.1349
     31 H10        -0.3097    1.3462   -4.5494 H         1 <0>         0.1289
     32 H11        -0.7245    2.8067   -3.5894 H         1 <0>         0.0699
     33 H12        -0.0983    0.0187   -2.4649 H         1 <0>         0.1361
     34 H13         0.9863    1.4497   -2.4120 H         1 <0>         0.1399
     35 H14        -2.1926    0.0598   -1.1965 H         1 <0>         0.1347
     36 H15        -2.6075    1.5203   -0.2365 H         1 <0>         0.1379
     37 H16        -2.8189    2.8478   -2.3222 H         1 <0>         0.0686
     38 H17        -3.9034    1.4169   -2.3750 H         1 <0>         0.1272
     39 H18         1.9376    1.2607   -0.9078 H         1 <0>         0.0853
     40 H19         1.4078    2.7153    0.0032 H         1 <0>         0.0959
     41 H20         2.1777    0.0087    1.2306 H         1 <0>         0.0726
     42 H21         3.1947    1.4894    1.2289 H         1 <0>         0.0856
     43 H22         1.9785    1.2376    3.3867 H         1 <0>         0.0776
     44 H23         1.4316    2.7019    2.5016 H         1 <0>         0.0772
     45 H24         0.0260   -0.0275    2.5003 H         1 <0>         0.0809
     46 H25        -0.5038    1.4271    3.4113 H         1 <0>         0.0860
     47 H26        -1.2240    3.5471    2.1072 H         1 <0>         0.4405
     48 H27        -0.6923    2.6719   -1.1668 H         1 <0>         0.4440
@<TRIPOS>BOND
     1    1    2 1
     2    1   24 1
     3    1   25 1
     4    1   26 1
     5    2    3 1
     6    3    8 ar
     7    3    4 ar
     8    4    5 ar
     9    4   27 1
    10    5    6 ar
    11    5   28 1
    12    6    7 ar
    13    6    9 1
    14    7    8 ar
    15    7   29 1
    16    8   30 1
    17    9   14 1
    18    9   10 1
    19   10   11 1
    20   10   31 1
    21   10   32 1
    22   11   12 1
    23   11   33 1
    24   11   34 1
    25   12   13 1
    26   12   15 1
    27   12   48 1
    28   13   14 1
    29   13   35 1
    30   13   36 1
    31   14   37 1
    32   14   38 1
    33   15   16 1
    34   15   21 1
    35   15   17 1
    36   17   18 1
    37   17   39 1
    38   17   40 1
    39   18   19 1
    40   18   41 1
    41   18   42 1
    42   19   20 1
    43   19   43 1
    44   19   44 1
    45   20   21 1
    46   20   45 1
    47   20   46 1
    48   21   22 1
    49   21   23 1
    50   23   47 1
@<TRIPOS>MOLECULE
ZINC28233945
   38    39     0     0     0
SMALL
USER_CHARGES
(1S,2R)-2-(benzyl-methyl-amino)cyclohexan-1-ol
@<TRIPOS>ATOM
      1 C1         -0.1517    5.6289    0.1782 C.3       1 <0>        -0.0568
      2 N1         -1.5095    5.0847    0.0438 N.4       1 <0>        -0.3987
      3 C2         -2.3895    5.5979    1.1022 C.3       1 <0>         0.0437
      4 C3         -2.5786    7.0821    0.9226 C.ar      1 <0>        -0.1573
      5 C4         -1.7148    7.9685    1.5382 C.ar      1 <0>        -0.0969
      6 C5         -1.8860    9.3299    1.3702 C.ar      1 <0>        -0.1144
      7 C6         -2.9262    9.8051    0.5937 C.ar      1 <0>        -0.0852
      8 C7         -3.7929    8.9188   -0.0181 C.ar      1 <0>        -0.1135
      9 C8         -3.6194    7.5573    0.1467 C.ar      1 <0>        -0.0927
     10 C9         -1.4901    3.6159    0.0413 C.3       1 <0>         0.0447
     11 H1         -1.2234    3.2908    1.0577 H         1 <0>         0.1385
     12 C10        -0.4540    3.1212   -0.9698 C.3       1 <0>        -0.1377
     13 C11        -0.4338    1.5913   -0.9724 C.3       1 <0>        -0.1182
     14 C12        -1.8167    1.0637   -1.3597 C.3       1 <0>        -0.1257
     15 C13        -2.8529    1.5584   -0.3485 C.3       1 <0>        -0.1497
     16 C14        -2.8731    3.0882   -0.3459 C.3       1 <0>         0.1021
     17 H2         -3.6510    3.4756    0.3285 H         1 <0>         0.0730
     18 O1         -3.2158    3.5622   -1.6498 O.3       1 <0>        -0.6086
     19 H3          0.4847    5.2292   -0.6251 H         1 <0>         0.1275
     20 H4          0.2645    5.3391    1.1543 H         1 <0>         0.1186
     21 H5         -0.1876    6.7259    0.1060 H         1 <0>         0.1242
     22 H6         -3.3656    5.0942    1.0437 H         1 <0>         0.1336
     23 H7         -1.9343    5.4025    2.0844 H         1 <0>         0.1311
     24 H8         -0.9044    7.5973    2.1480 H         1 <0>         0.1297
     25 H9         -1.2091   10.0223    1.8485 H         1 <0>         0.1356
     26 H10        -3.0620   10.8688    0.4652 H         1 <0>         0.1355
     27 H11        -4.6058    9.2901   -0.6245 H         1 <0>         0.1357
     28 H12        -4.2967    6.8649   -0.3309 H         1 <0>         0.1308
     29 H13        -0.7178    3.4861   -1.9734 H         1 <0>         0.0960
     30 H14         0.5403    3.5005   -0.6914 H         1 <0>         0.0875
     31 H15         0.3112    1.2357   -1.6994 H         1 <0>         0.0853
     32 H16        -0.1700    1.2264    0.0312 H         1 <0>         0.0720
     33 H17        -2.0805    1.4286   -2.3633 H         1 <0>         0.0773
     34 H18        -1.8022   -0.0362   -1.3616 H         1 <0>         0.0773
     35 H19        -3.8472    1.1791   -0.6270 H         1 <0>         0.0859
     36 H20        -2.5891    1.1935    0.6551 H         1 <0>         0.0807
     37 H21        -4.1802    3.2845   -2.1001 H         1 <0>         0.4405
     38 H22        -1.9134    5.4189   -0.9232 H         1 <0>         0.4487
@<TRIPOS>BOND
     1    1    2 1
     2    1   19 1
     3    1   20 1
     4    1   21 1
     5    2    3 1
     6    2   10 1
     7    2   38 1
     8    3    4 1
     9    3   22 1
    10    3   23 1
    11    4    9 ar
    12    4    5 ar
    13    5    6 ar
    14    5   24 1
    15    6    7 ar
    16    6   25 1
    17    7    8 ar
    18    7   26 1
    19    8    9 ar
    20    8   27 1
    21    9   28 1
    22   10   11 1
    23   10   16 1
    24   10   12 1
    25   12   13 1
    26   12   29 1
    27   12   30 1
    28   13   14 1
    29   13   31 1
    30   13   32 1
    31   14   15 1
    32   14   33 1
    33   14   34 1
    34   15   16 1
    35   15   35 1
    36   15   36 1
    37   16   17 1
    38   16   18 1
    39   18   37 1
@<TRIPOS>MOLECULE
ZINC28233951
   38    39     0     0     0
SMALL
USER_CHARGES
(1S,2S)-2-(benzyl-methyl-amino)cyclohexan-1-ol
@<TRIPOS>ATOM
      1 C1         -0.6648    1.5685    3.6872 C.3       1 <0>        -0.0521
      2 N1         -0.0184    1.0926    2.4569 N.4       1 <0>        -0.3979
      3 C2          1.3076    1.7023    2.2892 C.3       1 <0>         0.0400
      4 C3          2.2238    1.2213    3.3847 C.ar      1 <0>        -0.1569
      5 C4          2.3115    1.9252    4.5712 C.ar      1 <0>        -0.0973
      6 C5          3.1483    1.4813    5.5780 C.ar      1 <0>        -0.1140
      7 C6          3.9050    0.3391    5.3944 C.ar      1 <0>        -0.0856
      8 C7          3.8217   -0.3616    4.2057 C.ar      1 <0>        -0.1131
      9 C8          2.9809    0.0793    3.2010 C.ar      1 <0>        -0.0935
     10 C9         -0.8665    1.3462    1.2846 C.3       1 <0>         0.0453
     11 H1         -1.8825    1.0086    1.5370 H         1 <0>         0.1404
     12 C10        -0.8614    2.8426    0.9656 C.3       1 <0>        -0.1414
     13 C11        -1.7448    3.1068   -0.2554 C.3       1 <0>        -0.1213
     14 C12        -1.2025    2.3276   -1.4553 C.3       1 <0>        -0.1301
     15 C13        -1.2076    0.8313   -1.1363 C.3       1 <0>        -0.1488
     16 C14        -0.3242    0.5671    0.0847 C.3       1 <0>         0.1017
     17 H2          0.7252    0.8270   -0.1184 H         1 <0>         0.0736
     18 O1         -0.3290   -0.8305    0.3826 O.3       1 <0>        -0.6148
     19 H3         -1.6537    1.0973    3.7877 H         1 <0>         0.1239
     20 H4         -0.7823    2.6612    3.6405 H         1 <0>         0.1186
     21 H5         -0.0424    1.3033    4.5546 H         1 <0>         0.1250
     22 H6          1.7223    1.4149    1.3118 H         1 <0>         0.1325
     23 H7          1.2170    2.7973    2.3414 H         1 <0>         0.1330
     24 H8          1.7234    2.8198    4.7131 H         1 <0>         0.1296
     25 H9          3.2137    2.0289    6.5066 H         1 <0>         0.1356
     26 H10         4.5616   -0.0057    6.1796 H         1 <0>         0.1355
     27 H11         4.4131   -1.2538    4.0622 H         1 <0>         0.1357
     28 H12         2.9158   -0.4681    2.2723 H         1 <0>         0.1304
     29 H13        -1.2512    3.4027    1.8283 H         1 <0>         0.0929
     30 H14         0.1672    3.1684    0.7514 H         1 <0>         0.0895
     31 H15        -2.7734    2.7811   -0.0411 H         1 <0>         0.0767
     32 H16        -1.7412    4.1826   -0.4848 H         1 <0>         0.0881
     33 H17        -1.8376    2.5175   -2.3332 H         1 <0>         0.0835
     34 H18        -0.1739    2.6533   -1.6695 H         1 <0>         0.0714
     35 H19        -2.2362    0.5056   -0.9221 H         1 <0>         0.0832
     36 H20        -0.8178    0.2711   -1.9990 H         1 <0>         0.0862
     37 H21         0.0284   -1.5535   -0.3654 H         1 <0>         0.4428
     38 H22         0.1185    0.0048    2.5460 H         1 <0>         0.4516
@<TRIPOS>BOND
     1    1    2 1
     2    1   19 1
     3    1   20 1
     4    1   21 1
     5    2    3 1
     6    2   10 1
     7    2   38 1
     8    3    4 1
     9    3   22 1
    10    3   23 1
    11    4    9 ar
    12    4    5 ar
    13    5    6 ar
    14    5   24 1
    15    6    7 ar
    16    6   25 1
    17    7    8 ar
    18    7   26 1
    19    8    9 ar
    20    8   27 1
    21    9   28 1
    22   10   11 1
    23   10   16 1
    24   10   12 1
    25   12   13 1
    26   12   29 1
    27   12   30 1
    28   13   14 1
    29   13   31 1
    30   13   32 1
    31   14   15 1
    32   14   33 1
    33   14   34 1
    34   15   16 1
    35   15   35 1
    36   15   36 1
    37   16   17 1
    38   16   18 1
    39   18   37 1
@<TRIPOS>MOLECULE
ZINC05682074
   43    45     0     0     0
SMALL
USER_CHARGES
2-(4-phenyl-3,6-dihydro-2H-pyridin-1-yl)cyclohexan-1-ol
@<TRIPOS>ATOM
      1 C1          0.2922    8.3862    0.9786 C.ar      1 <0>        -0.1030
      2 C2          0.5665    7.5875    2.0744 C.ar      1 <0>        -0.1155
      3 C3          0.5537    6.2133    1.9507 C.ar      1 <0>        -0.1006
      4 C4          0.2635    5.6296    0.7169 C.ar      1 <0>        -0.0835
      5 C5         -0.0070    6.4409   -0.3856 C.ar      1 <0>        -0.1015
      6 C6          0.0037    7.8137   -0.2474 C.ar      1 <0>        -0.1154
      7 C7          0.2486    4.1582    0.5772 C.2       1 <0>        -0.0456
      8 C8         -0.6599    3.4715    1.2342 C.2       1 <0>        -0.1876
      9 C9         -0.7606    1.9746    1.1696 C.3       1 <0>         0.0391
     10 C10         1.3492    2.0110   -0.0000 C.3       1 <0>        -0.0043
     11 C11         1.2726    3.5079   -0.3108 C.3       1 <0>        -0.1134
     12 C12         0.0021   -0.0041    0.0020 C.3       1 <0>         0.0412
     13 H1          0.6044   -0.3639    0.8362 H         1 <0>         0.1464
     14 C13         0.6061   -0.4987   -1.3138 C.3       1 <0>        -0.1384
     15 C14         0.6268   -2.0285   -1.3222 C.3       1 <0>        -0.1164
     16 C15        -0.8019   -2.5587   -1.1857 C.3       1 <0>        -0.1266
     17 C16        -1.4059   -2.0641    0.1301 C.3       1 <0>        -0.1516
     18 C17        -1.4266   -0.5342    0.1385 C.3       1 <0>         0.0873
     19 H2         -1.8569   -0.1819    1.0760 H         1 <0>         0.0802
     20 O1         -2.2163   -0.0626   -0.9551 O.3       1 <0>        -0.5696
     21 H3          0.3031    9.4613    1.0807 H         1 <0>         0.1296
     22 H4          0.7906    8.0405    3.0288 H         1 <0>         0.1301
     23 H5          0.7683    5.5909    2.8067 H         1 <0>         0.1245
     24 H6         -0.2284    5.9953   -1.3441 H         1 <0>         0.1231
     25 H7         -0.2095    8.4427   -1.0990 H         1 <0>         0.1300
     26 H8         -1.3668    4.0091    1.8488 H         1 <0>         0.1501
     27 H9         -1.8083    1.6867    1.0821 H         1 <0>         0.1379
     28 H10        -0.3456    1.5451    2.0814 H         1 <0>         0.1368
     29 H11         1.8099    1.8630    0.9767 H         1 <0>         0.1334
     30 H12         1.9389    1.5077   -0.7662 H         1 <0>         0.1371
     31 H13         2.2467    3.9649   -0.1362 H         1 <0>         0.1250
     32 H14         0.9891    3.6477   -1.3540 H         1 <0>         0.1061
     33 H15         0.0037   -0.1389   -2.1480 H         1 <0>         0.0955
     34 H16         1.6239   -0.1210   -1.4111 H         1 <0>         0.0857
     35 H17         1.0571   -2.3809   -2.2597 H         1 <0>         0.0859
     36 H18         1.2291   -2.3883   -0.4881 H         1 <0>         0.0729
     37 H19        -1.4042   -2.1989   -2.0199 H         1 <0>         0.0771
     38 H20        -0.7871   -3.6486   -1.1917 H         1 <0>         0.0783
     39 H21        -2.4237   -2.4418    0.2274 H         1 <0>         0.0873
     40 H22        -0.8035   -2.4239    0.9643 H         1 <0>         0.0832
     41 H23        -3.1360   -0.3605   -0.9334 H         1 <0>         0.4052
     42 N1         -0.0277    1.4762   -0.0090 N.4       1 <0>        -0.3908
     43 H24        -0.5054    1.7944   -0.8603 H         1 <0>         0.4345
@<TRIPOS>BOND
     1    1    6 ar
     2    1    2 ar
     3    1   21 1
     4    2    3 ar
     5    2   22 1
     6    3    4 ar
     7    3   23 1
     8    4    5 ar
     9    4    7 1
    10    5    6 ar
    11    5   24 1
    12    6   25 1
    13    7   11 1
    14    7    8 2
    15    8    9 1
    16    8   26 1
    17    9   27 1
    18    9   28 1
    19    9   42 1
    20   10   11 1
    21   10   29 1
    22   10   30 1
    23   10   42 1
    24   11   31 1
    25   11   32 1
    26   12   13 1
    27   12   18 1
    28   12   14 1
    29   12   42 1
    30   14   15 1
    31   14   33 1
    32   14   34 1
    33   15   16 1
    34   15   35 1
    35   15   36 1
    36   16   17 1
    37   16   37 1
    38   16   38 1
    39   17   18 1
    40   17   39 1
    41   17   40 1
    42   18   19 1
    43   18   20 1
    44   20   41 1
    45   42   43 1
@<TRIPOS>MOLECULE
ZINC05682076
   43    45     0     0     0
SMALL
USER_CHARGES
2-(4-phenyl-3,6-dihydro-2H-pyridin-1-yl)cyclohexan-1-ol
@<TRIPOS>ATOM
      1 C1          6.2645   -1.7113   -8.4438 C.ar      1 <0>        -0.1029
      2 C2          5.9234   -0.3958   -8.1847 C.ar      1 <0>        -0.1155
      3 C3          5.2738   -0.0664   -7.0129 C.ar      1 <0>        -0.1005
      4 C4          4.9613   -1.0633   -6.0880 C.ar      1 <0>        -0.0835
      5 C5          5.3136   -2.3873   -6.3525 C.ar      1 <0>        -0.1015
      6 C6          5.9571   -2.7045   -7.5311 C.ar      1 <0>        -0.1154
      7 C7          4.2654   -0.7174   -4.8306 C.2       1 <0>        -0.0452
      8 C8          3.0392   -0.2478   -4.8972 C.2       1 <0>        -0.1877
      9 C9          2.2443    0.1421   -3.6842 C.3       1 <0>         0.0328
     10 C10         4.2799   -0.1350   -2.4192 C.3       1 <0>        -0.0008
     11 C11         4.9884   -0.9175   -3.5279 C.3       1 <0>        -0.1138
     12 C12         2.1536    0.0321   -1.2676 C.3       1 <0>         0.0416
     13 H1          2.6808   -0.3290   -0.3846 H         1 <0>         0.1428
     14 C13         2.1328    1.5619   -1.2592 C.3       1 <0>        -0.1400
     15 C14         1.4167    2.0553   -0.0004 C.3       1 <0>        -0.1199
     16 C15        -0.0187    1.5258    0.0104 C.3       1 <0>        -0.1289
     17 C16         0.0021   -0.0041    0.0020 C.3       1 <0>        -0.1507
     18 C17         0.7182   -0.4975   -1.2568 C.3       1 <0>         0.0875
     19 H2          0.1910   -0.1364   -2.1398 H         1 <0>         0.0793
     20 O1          0.7376   -1.9263   -1.2646 O.3       1 <0>        -0.5756
     21 H3          6.7726   -1.9641   -9.3627 H         1 <0>         0.1296
     22 H4          6.1658    0.3748   -8.9015 H         1 <0>         0.1301
     23 H5          5.0080    0.9609   -6.8119 H         1 <0>         0.1245
     24 H6          5.0785   -3.1628   -5.6386 H         1 <0>         0.1232
     25 H7          6.2257   -3.7296   -7.7393 H         1 <0>         0.1299
     26 H8          2.5824   -0.1370   -5.8695 H         1 <0>         0.1503
     27 H9          1.2213   -0.2184   -3.7917 H         1 <0>         0.1354
     28 H10         2.2341    1.2282   -3.5931 H         1 <0>         0.1412
     29 H11         4.4328    0.9336   -2.5701 H         1 <0>         0.1332
     30 H12         4.6793   -0.4315   -1.4493 H         1 <0>         0.1357
     31 H13         4.9954   -1.9780   -3.2761 H         1 <0>         0.1067
     32 H14         6.0141   -0.5615   -3.6240 H         1 <0>         0.1252
     33 H15         3.1554    1.9392   -1.2670 H         1 <0>         0.0942
     34 H16         1.6057    1.9230   -2.1423 H         1 <0>         0.0903
     35 H17         1.4019    3.1452    0.0056 H         1 <0>         0.0891
     36 H18         1.9439    1.6943    0.8826 H         1 <0>         0.0773
     37 H19        -0.5459    1.8868   -0.8726 H         1 <0>         0.0722
     38 H20        -0.5289    1.8773    0.9072 H         1 <0>         0.0843
     39 H21         0.5293   -0.3651    0.8851 H         1 <0>         0.0837
     40 H22        -1.0205   -0.3814    0.0098 H         1 <0>         0.0876
     41 H23        -0.1404   -2.3316   -1.2584 H         1 <0>         0.4079
     42 N1          2.8415   -0.4656   -2.4806 N.4       1 <0>        -0.3909
     43 H24         2.7337   -1.4855   -2.5311 H         1 <0>         0.4374
@<TRIPOS>BOND
     1    1    6 ar
     2    1    2 ar
     3    1   21 1
     4    2    3 ar
     5    2   22 1
     6    3    4 ar
     7    3   23 1
     8    4    5 ar
     9    4    7 1
    10    5    6 ar
    11    5   24 1
    12    6   25 1
    13    7   11 1
    14    7    8 2
    15    8    9 1
    16    8   26 1
    17    9   27 1
    18    9   28 1
    19    9   42 1
    20   10   11 1
    21   10   29 1
    22   10   30 1
    23   10   42 1
    24   11   31 1
    25   11   32 1
    26   12   13 1
    27   12   18 1
    28   12   14 1
    29   12   42 1
    30   14   15 1
    31   14   33 1
    32   14   34 1
    33   15   16 1
    34   15   35 1
    35   15   36 1
    36   16   17 1
    37   16   37 1
    38   16   38 1
    39   17   18 1
    40   17   39 1
    41   17   40 1
    42   18   19 1
    43   18   20 1
    44   20   41 1
    45   42   43 1
@<TRIPOS>MOLECULE
ZINC28232222
   49    51     0     0     0
SMALL
USER_CHARGES
(1S,2R)-2-[4-(2,5-dimethylphenyl)piperazin-1-yl]cyclohexan-1-ol
@<TRIPOS>ATOM
      1 C1         -2.0565    4.8154    7.5580 C.3       1 <0>        -0.1173
      2 C2         -2.5379    5.2551    6.1994 C.ar      1 <0>        -0.0834
      3 C3         -3.6492    6.0714    6.0912 C.ar      1 <0>        -0.1186
      4 C4         -4.0943    6.4771    4.8466 C.ar      1 <0>        -0.1144
      5 C5         -3.4268    6.0725    3.7070 C.ar      1 <0>        -0.0661
      6 C6         -2.3134    5.2489    3.8118 C.ar      1 <0>         0.0889
      7 C7         -1.8688    4.8430    5.0640 C.ar      1 <0>        -0.1433
      8 N1         -1.6387    4.8342    2.6613 N.pl3     1 <0>        -0.4994
      9 C8         -0.2731    5.3761    2.6275 C.3       1 <0>         0.0636
     10 C9          0.4035    4.9657    1.3175 C.3       1 <0>         0.0560
     11 N2          0.4190    3.4997    1.2155 N.3       1 <0>        -0.5265
     12 C10        -0.9466    2.9579    1.2493 C.3       1 <0>         0.0532
     13 C11        -1.6231    3.3683    2.5593 C.3       1 <0>         0.0621
     14 C12         1.1287    3.0637    0.0054 C.3       1 <0>         0.0984
     15 H1          0.5899    3.4812   -0.8580 H         1 <0>         0.0496
     16 C13         1.1397    1.5350   -0.0564 C.3       1 <0>        -0.1097
     17 C14         1.8788    1.0808   -1.3167 C.3       1 <0>        -0.1193
     18 C15         3.3175    1.6001   -1.2792 C.3       1 <0>        -0.1153
     19 C16         3.3065    3.1288   -1.2174 C.3       1 <0>        -0.1518
     20 C17         2.5674    3.5830    0.0429 C.3       1 <0>         0.1244
     21 H2          2.5937    4.6776    0.1481 H         1 <0>         0.0485
     22 O1          3.2311    3.0644    1.1973 O.3       1 <0>        -0.5772
     23 C18        -3.9090    6.5202    2.3513 C.3       1 <0>        -0.1143
     24 H3         -2.7104    5.2401    8.3339 H         1 <0>         0.0661
     25 H4         -1.0262    5.1678    7.7136 H         1 <0>         0.0686
     26 H5         -2.0815    3.7173    7.6182 H         1 <0>         0.0687
     27 H6         -4.1707    6.3922    6.9808 H         1 <0>         0.1217
     28 H7         -4.9624    7.1145    4.7656 H         1 <0>         0.1242
     29 H8         -1.0011    4.2056    5.1492 H         1 <0>         0.1187
     30 H9         -0.3124    6.4734    2.6929 H         1 <0>         0.0794
     31 H10         0.3004    4.9784    3.4778 H         1 <0>         0.0479
     32 H11        -0.1548    5.3874    0.4687 H         1 <0>         0.0399
     33 H12         1.4355    5.3462    1.3029 H         1 <0>         0.0828
     34 H13        -1.5200    3.3557    0.3991 H         1 <0>         0.0411
     35 H14        -0.9074    1.8605    1.1838 H         1 <0>         0.0861
     36 H15        -1.0651    2.9476    3.4088 H         1 <0>         0.0478
     37 H16        -2.6554    2.9887    2.5746 H         1 <0>         0.0803
     38 H17         1.6506    1.1358    0.8322 H         1 <0>         0.0819
     39 H18         0.1053    1.1616   -0.0833 H         1 <0>         0.0613
     40 H19         1.8867   -0.0183   -1.3611 H         1 <0>         0.0657
     41 H20         1.3679    1.4800   -2.2053 H         1 <0>         0.0584
     42 H21         3.8284    1.2009   -0.3906 H         1 <0>         0.0707
     43 H22         3.8489    1.2736   -2.1853 H         1 <0>         0.0600
     44 H23         4.3409    3.5021   -1.1905 H         1 <0>         0.0665
     45 H24         2.7956    3.5280   -2.1060 H         1 <0>         0.0677
     46 H25         4.2802    3.3300    1.3943 H         1 <0>         0.3973
     47 H26        -3.2555    6.1001    1.5726 H         1 <0>         0.0825
     48 H27        -3.8840    7.6186    2.2976 H         1 <0>         0.0630
     49 H28        -4.9394    6.1687    2.1942 H         1 <0>         0.0634
@<TRIPOS>BOND
     1    1    2 1
     2    1   24 1
     3    1   25 1
     4    1   26 1
     5    2    7 ar
     6    2    3 ar
     7    3    4 ar
     8    3   27 1
     9    4    5 ar
    10    4   28 1
    11    5    6 ar
    12    5   23 1
    13    6    7 ar
    14    6    8 1
    15    7   29 1
    16    8   13 1
    17    8    9 1
    18    9   10 1
    19    9   30 1
    20    9   31 1
    21   10   11 1
    22   10   32 1
    23   10   33 1
    24   11   12 1
    25   11   14 1
    26   12   13 1
    27   12   34 1
    28   12   35 1
    29   13   36 1
    30   13   37 1
    31   14   15 1
    32   14   20 1
    33   14   16 1
    34   16   17 1
    35   16   38 1
    36   16   39 1
    37   17   18 1
    38   17   40 1
    39   17   41 1
    40   18   19 1
    41   18   42 1
    42   18   43 1
    43   19   20 1
    44   19   44 1
    45   19   45 1
    46   20   21 1
    47   20   22 1
    48   22   46 1
    49   23   47 1
    50   23   48 1
    51   23   49 1
@<TRIPOS>MOLECULE
ZINC28232222
   50    52     0     0     0
SMALL
USER_CHARGES
(1S,2R)-2-[4-(2,5-dimethylphenyl)piperazin-1-yl]cyclohexan-1-ol
@<TRIPOS>ATOM
      1 C1         -2.0565    4.8154    7.5580 C.3       1 <0>        -0.1229
      2 C2         -2.5379    5.2551    6.1994 C.ar      1 <0>        -0.0768
      3 C3         -3.6492    6.0714    6.0912 C.ar      1 <0>        -0.1026
      4 C4         -4.0943    6.4771    4.8466 C.ar      1 <0>        -0.1096
      5 C5         -3.4268    6.0725    3.7070 C.ar      1 <0>        -0.0537
      6 C6         -2.3134    5.2489    3.8118 C.ar      1 <0>         0.0627
      7 C7         -1.8688    4.8430    5.0640 C.ar      1 <0>        -0.1430
      8 N1         -1.6387    4.8342    2.6613 N.pl3     1 <0>        -0.4909
      9 C8         -0.2731    5.3761    2.6275 C.3       1 <0>         0.0310
     10 C9          0.4035    4.9657    1.3175 C.3       1 <0>        -0.0011
     11 N2          0.4190    3.4997    1.2155 N.4       1 <0>        -0.3997
     12 C10        -0.9466    2.9579    1.2493 C.3       1 <0>        -0.0038
     13 C11        -1.6231    3.3683    2.5593 C.3       1 <0>         0.0298
     14 C12         1.1287    3.0637    0.0054 C.3       1 <0>         0.0467
     15 H1          0.5899    3.4812   -0.8580 H         1 <0>         0.1396
     16 C13         1.1397    1.5350   -0.0564 C.3       1 <0>        -0.1369
     17 C14         1.8788    1.0808   -1.3167 C.3       1 <0>        -0.1177
     18 C15         3.3175    1.6001   -1.2792 C.3       1 <0>        -0.1256
     19 C16         3.3065    3.1288   -1.2174 C.3       1 <0>        -0.1497
     20 C17         2.5674    3.5830    0.0429 C.3       1 <0>         0.1023
     21 H2          2.5937    4.6776    0.1481 H         1 <0>         0.0740
     22 O1          3.2311    3.0644    1.1973 O.3       1 <0>        -0.6095
     23 C18        -3.9090    6.5202    2.3513 C.3       1 <0>        -0.1179
     24 H3         -2.7104    5.2401    8.3339 H         1 <0>         0.0722
     25 H4         -1.0262    5.1678    7.7136 H         1 <0>         0.0716
     26 H5         -2.0815    3.7173    7.6182 H         1 <0>         0.0718
     27 H6         -4.1707    6.3922    6.9808 H         1 <0>         0.1295
     28 H7         -4.9624    7.1145    4.7656 H         1 <0>         0.1318
     29 H8         -1.0011    4.2056    5.1492 H         1 <0>         0.1164
     30 H9         -0.3124    6.4734    2.6929 H         1 <0>         0.1237
     31 H10         0.3004    4.9784    3.4778 H         1 <0>         0.0639
     32 H11        -0.1548    5.3874    0.4687 H         1 <0>         0.1343
     33 H12         1.4355    5.3462    1.3029 H         1 <0>         0.1353
     34 H13        -1.5200    3.3557    0.3991 H         1 <0>         0.1354
     35 H14        -0.9074    1.8605    1.1838 H         1 <0>         0.1386
     36 H15        -1.0651    2.9476    3.4088 H         1 <0>         0.0638
     37 H16        -2.6554    2.9887    2.5746 H         1 <0>         0.1247
     38 H17         1.6506    1.1358    0.8322 H         1 <0>         0.0956
     39 H18         0.1053    1.1616   -0.0833 H         1 <0>         0.0858
     40 H19         1.8867   -0.0183   -1.3611 H         1 <0>         0.0855
     41 H20         1.3679    1.4800   -2.2053 H         1 <0>         0.0725
     42 H21         3.8284    1.2009   -0.3906 H         1 <0>         0.0770
     43 H22         3.8489    1.2736   -2.1853 H         1 <0>         0.0775
     44 H23         4.3409    3.5021   -1.1905 H         1 <0>         0.0858
     45 H24         2.7956    3.5280   -2.1060 H         1 <0>         0.0809
     46 H25         4.2802    3.3300    1.3943 H         1 <0>         0.4404
     47 H26        -3.2555    6.1001    1.5726 H         1 <0>         0.0782
     48 H27        -3.8840    7.6186    2.2976 H         1 <0>         0.0696
     49 H28        -4.9394    6.1687    2.1942 H         1 <0>         0.0701
     50 H29         0.9630    3.1042    2.0859 H         1 <0>         0.4435
@<TRIPOS>BOND
     1    1    2 1
     2    1   24 1
     3    1   25 1
     4    1   26 1
     5    2    7 ar
     6    2    3 ar
     7    3    4 ar
     8    3   27 1
     9    4    5 ar
    10    4   28 1
    11    5    6 ar
    12    5   23 1
    13    6    7 ar
    14    6    8 1
    15    7   29 1
    16    8   13 1
    17    8    9 1
    18    9   10 1
    19    9   30 1
    20    9   31 1
    21   10   11 1
    22   10   32 1
    23   10   33 1
    24   11   12 1
    25   11   14 1
    26   11   50 1
    27   12   13 1
    28   12   34 1
    29   12   35 1
    30   13   36 1
    31   13   37 1
    32   14   15 1
    33   14   20 1
    34   14   16 1
    35   16   17 1
    36   16   38 1
    37   16   39 1
    38   17   18 1
    39   17   40 1
    40   17   41 1
    41   18   19 1
    42   18   42 1
    43   18   43 1
    44   19   20 1
    45   19   44 1
    46   19   45 1
    47   20   21 1
    48   20   22 1
    49   22   46 1
    50   23   47 1
    51   23   48 1
    52   23   49 1
@<TRIPOS>MOLECULE
ZINC28232222
   50    52     0     0     0
SMALL
USER_CHARGES

@<TRIPOS>ATOM
      1 C1         -0.1237    1.4994    0.1394 C.3       1 <0>        -0.1275
      2 C2          0.0110    0.0038    0.0127 C.ar      1 <0>        -0.0606
      3 C3         -0.1031   -0.5980   -1.2268 C.ar      1 <0>        -0.0703
      4 C4          0.0205   -1.9696   -1.3431 C.ar      1 <0>        -0.0933
      5 C5          0.2587   -2.7399   -0.2199 C.ar      1 <0>        -0.0616
      6 C6          0.3737   -2.1382    1.0190 C.ar      1 <0>        -0.0461
      7 C7          0.2543   -0.7657    1.1347 C.ar      1 <0>        -0.0886
      8 N1          0.6141   -2.9172    2.1548 N.4       1 <0>        -0.3225
      9 C8          1.8007   -2.4081    2.8550 C.3       1 <0>        -0.0006
     10 C9          2.0753   -3.2719    4.0879 C.3       1 <0>         0.0233
     11 N2          0.9066   -3.2355    4.9783 N.3       1 <0>        -0.5237
     12 C10        -0.2946   -3.7190    4.2830 C.3       1 <0>         0.0214
     13 C11        -0.5497   -2.8515    3.0485 C.3       1 <0>        -0.0014
     14 C12         1.1532   -4.0087    6.2028 C.3       1 <0>         0.0966
     15 C13        -0.0737   -3.9272    7.1132 C.3       1 <0>        -0.1120
     16 C14         0.1832   -4.7325    8.3885 C.3       1 <0>        -0.1204
     17 C15         1.3990   -4.1579    9.1184 C.3       1 <0>        -0.1193
     18 C16         2.6259   -4.2394    8.2079 C.3       1 <0>        -0.1556
     19 C17         2.3690   -3.4341    6.9326 C.3       1 <0>         0.1133
     20 O1          2.1186   -2.0691    7.2735 O.3       1 <0>        -0.5483
     21 C18         0.3924   -4.2356   -0.3465 C.3       1 <0>        -0.1434
     22 H1          0.8555    1.9637    0.0217 H         1 <0>         0.0853
     23 H2         -0.7969    1.8704   -0.6334 H         1 <0>         0.0814
     24 H3         -0.5270    1.7460    1.1216 H         1 <0>         0.0765
     25 H4         -0.2892    0.0037   -2.1041 H         1 <0>         0.1463
     26 H5         -0.0694   -2.4398   -2.3112 H         1 <0>         0.1490
     27 H6          0.3480   -0.2951    2.1023 H         1 <0>         0.1445
     28 H7          2.6608   -2.4452    2.1865 H         1 <0>         0.1347
     29 H8          1.6256   -1.3779    3.1649 H         1 <0>         0.1388
     30 H9          2.2640   -4.2996    3.7773 H         1 <0>         0.0580
     31 H10         2.9470   -2.8854    4.6160 H         1 <0>         0.1261
     32 H11        -0.1450   -4.7540    3.9756 H         1 <0>         0.0587
     33 H12        -1.1520   -3.6586    4.9534 H         1 <0>         0.1294
     34 H13        -0.7128   -1.8190    3.3574 H         1 <0>         0.1383
     35 H14        -1.4321   -3.2173    2.5234 H         1 <0>         0.1344
     36 H15         1.3442   -5.0498    5.9427 H         1 <0>         0.0622
     37 H16        -0.2646   -2.8861    7.3733 H         1 <0>         0.0868
     38 H17        -0.9398   -4.3366    6.5933 H         1 <0>         0.0617
     39 H18        -0.6908   -4.6745    9.0372 H         1 <0>         0.0722
     40 H19         0.3742   -5.7737    8.1285 H         1 <0>         0.0611
     41 H20         1.2080   -3.1168    9.3784 H         1 <0>         0.0731
     42 H21         1.5820   -4.7317   10.0269 H         1 <0>         0.0669
     43 H22         3.4920   -3.8300    8.7278 H         1 <0>         0.0737
     44 H23         2.8168   -5.2806    7.9478 H         1 <0>         0.0719
     45 H24         3.2431   -3.4921    6.2840 H         1 <0>         0.0523
     46 H25         2.8490   -1.6399    7.7398 H         1 <0>         0.3797
     47 H26         1.4468   -4.5009   -0.4236 H         1 <0>         0.0923
     48 H27        -0.0395   -4.7147    0.5322 H         1 <0>         0.0647
     49 H28        -0.1334   -4.5731   -1.2397 H         1 <0>         0.1008
     50 H29         0.7721   -3.8746    1.8784 H         1 <0>         0.4198
@<TRIPOS>BOND
     1    1    2 1
     2    1   22 1
     3    1   23 1
     4    1   24 1
     5    2    7 ar
     6    2    3 ar
     7    3    4 ar
     8    3   25 1
     9    4    5 ar
    10    4   26 1
    11    5    6 ar
    12    5   21 1
    13    6    7 ar
    14    6    8 1
    15    7   27 1
    16    8   13 1
    17    8    9 1
    18    8   50 1
    19    9   10 1
    20    9   28 1
    21    9   29 1
    22   10   11 1
    23   10   30 1
    24   10   31 1
    25   11   12 1
    26   11   14 1
    27   12   13 1
    28   12   32 1
    29   12   33 1
    30   13   34 1
    31   13   35 1
    32   14   19 1
    33   14   15 1
    34   14   36 1
    35   15   16 1
    36   15   37 1
    37   15   38 1
    38   16   17 1
    39   16   39 1
    40   16   40 1
    41   17   18 1
    42   17   41 1
    43   17   42 1
    44   18   19 1
    45   18   43 1
    46   18   44 1
    47   19   20 1
    48   19   45 1
    49   20   46 1
    50   21   47 1
    51   21   48 1
    52   21   49 1
@<TRIPOS>MOLECULE
ZINC28232228
   49    51     0     0     0
SMALL
USER_CHARGES
(1S,2S)-2-[4-(2,5-dimethylphenyl)piperazin-1-yl]cyclohexan-1-ol
@<TRIPOS>ATOM
      1 C1         -7.9836   -2.2566    1.1886 C.3       1 <0>        -0.1173
      2 C2         -7.0680   -2.5776    0.0354 C.ar      1 <0>        -0.0835
      3 C3         -7.5255   -3.3525   -1.0149 C.ar      1 <0>        -0.1185
      4 C4         -6.6889   -3.6489   -2.0751 C.ar      1 <0>        -0.1145
      5 C5         -5.3927   -3.1720   -2.0883 C.ar      1 <0>        -0.0659
      6 C6         -4.9300   -2.3936   -1.0352 C.ar      1 <0>         0.0888
      7 C7         -5.7718   -2.1016    0.0308 C.ar      1 <0>        -0.1433
      8 N1         -3.6197   -1.9101   -1.0451 N.pl3     1 <0>        -0.4986
      9 C8         -3.6000   -0.4411   -1.0087 C.3       1 <0>         0.0618
     10 C9         -2.1532    0.0495   -1.1010 C.3       1 <0>         0.0517
     11 N2         -1.3761   -0.5125    0.0124 N.3       1 <0>        -0.5223
     12 C10        -1.3957   -1.9815   -0.0240 C.3       1 <0>         0.0552
     13 C11        -2.8425   -2.4721    0.0684 C.3       1 <0>         0.0623
     14 C12         0.0021   -0.0041    0.0020 C.3       1 <0>         0.0968
     15 H1          0.5648   -0.5692    0.7596 H         1 <0>         0.0875
     16 C13         0.6119   -0.2120   -1.3857 C.3       1 <0>        -0.1504
     17 C14         2.0473    0.3176   -1.3966 C.3       1 <0>        -0.1186
     18 C15         2.0428    1.8101   -1.0598 C.3       1 <0>        -0.1199
     19 C16         1.4330    2.0180    0.3279 C.3       1 <0>        -0.1512
     20 C17        -0.0024    1.4884    0.3388 C.3       1 <0>         0.1285
     21 H2         -0.6409    2.0524   -0.3570 H         1 <0>         0.0485
     22 O1         -0.5720    1.6826    1.6349 O.3       1 <0>        -0.5843
     23 C18        -4.4813   -3.4965   -3.2438 C.3       1 <0>        -0.1142
     24 H3         -8.9668   -2.7185    1.0157 H         1 <0>         0.0661
     25 H4         -8.1003   -1.1660    1.2715 H         1 <0>         0.0686
     26 H5         -7.5519   -2.6511    2.1203 H         1 <0>         0.0687
     27 H6         -8.5386   -3.7266   -1.0070 H         1 <0>         0.1217
     28 H7         -7.0493   -4.2543   -2.8936 H         1 <0>         0.1242
     29 H8         -5.4138   -1.5003    0.8534 H         1 <0>         0.1187
     30 H9         -4.1772   -0.0455   -1.8575 H         1 <0>         0.0793
     31 H10        -4.0473   -0.0916   -0.0665 H         1 <0>         0.0473
     32 H11        -1.7157   -0.2766   -2.0561 H         1 <0>         0.0473
     33 H12        -2.1342    1.1479   -1.0450 H         1 <0>         0.0795
     34 H13        -0.9485   -2.3309   -0.9663 H         1 <0>         0.0449
     35 H14        -0.8184   -2.3771    0.8247 H         1 <0>         0.0808
     36 H15        -3.2810   -2.1459    1.0230 H         1 <0>         0.0476
     37 H16        -2.8626   -3.5705    0.0120 H         1 <0>         0.0806
     38 H17         0.6151   -1.2850   -1.6278 H         1 <0>         0.0703
     39 H18         0.0151    0.3308   -2.1335 H         1 <0>         0.0704
     40 H19         2.6441   -0.2253   -0.6488 H         1 <0>         0.0646
     41 H20         2.4857    0.1682   -2.3943 H         1 <0>         0.0658
     42 H21         3.0748    2.1908   -1.0676 H         1 <0>         0.0666
     43 H22         1.4461    2.3530   -1.8076 H         1 <0>         0.0628
     44 H23         2.0298    1.4752    1.0757 H         1 <0>         0.0715
     45 H24         1.4298    3.0910    0.5700 H         1 <0>         0.0664
     46 H25        -0.6599    2.6972    2.0506 H         1 <0>         0.3989
     47 H26        -3.4980   -3.0327   -3.0766 H         1 <0>         0.0826
     48 H27        -4.9172   -3.1063   -4.1753 H         1 <0>         0.0632
     49 H28        -4.3636   -4.5873   -3.3228 H         1 <0>         0.0631
@<TRIPOS>BOND
     1    1    2 1
     2    1   24 1
     3    1   25 1
     4    1   26 1
     5    2    7 ar
     6    2    3 ar
     7    3    4 ar
     8    3   27 1
     9    4    5 ar
    10    4   28 1
    11    5    6 ar
    12    5   23 1
    13    6    7 ar
    14    6    8 1
    15    7   29 1
    16    8   13 1
    17    8    9 1
    18    9   10 1
    19    9   30 1
    20    9   31 1
    21   10   11 1
    22   10   32 1
    23   10   33 1
    24   11   12 1
    25   11   14 1
    26   12   13 1
    27   12   34 1
    28   12   35 1
    29   13   36 1
    30   13   37 1
    31   14   15 1
    32   14   20 1
    33   14   16 1
    34   16   17 1
    35   16   38 1
    36   16   39 1
    37   17   18 1
    38   17   40 1
    39   17   41 1
    40   18   19 1
    41   18   42 1
    42   18   43 1
    43   19   20 1
    44   19   44 1
    45   19   45 1
    46   20   21 1
    47   20   22 1
    48   22   46 1
    49   23   47 1
    50   23   48 1
    51   23   49 1
@<TRIPOS>MOLECULE
ZINC28232228
   50    52     0     0     0
SMALL
USER_CHARGES
(1S,2S)-2-[4-(2,5-dimethylphenyl)piperazin-1-yl]cyclohexan-1-ol
@<TRIPOS>ATOM
      1 C1         -7.9836   -2.2566    1.1886 C.3       1 <0>        -0.1229
      2 C2         -7.0680   -2.5776    0.0354 C.ar      1 <0>        -0.0768
      3 C3         -7.5255   -3.3525   -1.0149 C.ar      1 <0>        -0.1025
      4 C4         -6.6889   -3.6489   -2.0751 C.ar      1 <0>        -0.1097
      5 C5         -5.3927   -3.1720   -2.0883 C.ar      1 <0>        -0.0536
      6 C6         -4.9300   -2.3936   -1.0352 C.ar      1 <0>         0.0627
      7 C7         -5.7718   -2.1016    0.0308 C.ar      1 <0>        -0.1429
      8 N1         -3.6197   -1.9101   -1.0451 N.pl3     1 <0>        -0.4904
      9 C8         -3.6000   -0.4411   -1.0087 C.3       1 <0>         0.0308
     10 C9         -2.1532    0.0495   -1.1010 C.3       1 <0>        -0.0064
     11 N2         -1.3761   -0.5125    0.0124 N.4       1 <0>        -0.3992
     12 C10        -1.3957   -1.9815   -0.0240 C.3       1 <0>        -0.0007
     13 C11        -2.8425   -2.4721    0.0684 C.3       1 <0>         0.0297
     14 C12         0.0021   -0.0041    0.0020 C.3       1 <0>         0.0472
     15 H1          0.5648   -0.5692    0.7596 H         1 <0>         0.1394
     16 C13         0.6119   -0.2120   -1.3857 C.3       1 <0>        -0.1403
     17 C14         2.0473    0.3176   -1.3966 C.3       1 <0>        -0.1212
     18 C15         2.0428    1.8101   -1.0598 C.3       1 <0>        -0.1298
     19 C16         1.4330    2.0180    0.3279 C.3       1 <0>        -0.1486
     20 C17        -0.0024    1.4884    0.3388 C.3       1 <0>         0.1025
     21 H2         -0.6409    2.0524   -0.3570 H         1 <0>         0.0738
     22 O1         -0.5720    1.6826    1.6349 O.3       1 <0>        -0.6162
     23 C18        -4.4813   -3.4965   -3.2438 C.3       1 <0>        -0.1179
     24 H3         -8.9668   -2.7185    1.0157 H         1 <0>         0.0721
     25 H4         -8.1003   -1.1660    1.2715 H         1 <0>         0.0716
     26 H5         -7.5519   -2.6511    2.1203 H         1 <0>         0.0717
     27 H6         -8.5386   -3.7266   -1.0070 H         1 <0>         0.1295
     28 H7         -7.0493   -4.2543   -2.8936 H         1 <0>         0.1318
     29 H8         -5.4138   -1.5003    0.8534 H         1 <0>         0.1164
     30 H9         -4.1772   -0.0455   -1.8575 H         1 <0>         0.1237
     31 H10        -4.0473   -0.0916   -0.0665 H         1 <0>         0.0636
     32 H11        -1.7157   -0.2766   -2.0561 H         1 <0>         0.1379
     33 H12        -2.1342    1.1479   -1.0450 H         1 <0>         0.1332
     34 H13        -0.9485   -2.3309   -0.9663 H         1 <0>         0.1358
     35 H14        -0.8184   -2.3771    0.8247 H         1 <0>         0.1363
     36 H15        -3.2810   -2.1459    1.0230 H         1 <0>         0.0640
     37 H16        -2.8626   -3.5705    0.0120 H         1 <0>         0.1249
     38 H17         0.6151   -1.2850   -1.6278 H         1 <0>         0.0934
     39 H18         0.0151    0.3308   -2.1335 H         1 <0>         0.0904
     40 H19         2.6441   -0.2253   -0.6488 H         1 <0>         0.0764
     41 H20         2.4857    0.1682   -2.3943 H         1 <0>         0.0883
     42 H21         3.0748    2.1908   -1.0676 H         1 <0>         0.0834
     43 H22         1.4461    2.3530   -1.8076 H         1 <0>         0.0715
     44 H23         2.0298    1.4752    1.0757 H         1 <0>         0.0829
     45 H24         1.4298    3.0910    0.5700 H         1 <0>         0.0861
     46 H25        -0.6599    2.6972    2.0506 H         1 <0>         0.4431
     47 H26        -3.4980   -3.0327   -3.0766 H         1 <0>         0.0783
     48 H27        -4.9172   -3.1063   -4.1753 H         1 <0>         0.0699
     49 H28        -4.3636   -4.5873   -3.3228 H         1 <0>         0.0698
     50 H29        -1.8473   -0.1895    0.9525 H         1 <0>         0.4468
@<TRIPOS>BOND
     1    1    2 1
     2    1   24 1
     3    1   25 1
     4    1   26 1
     5    2    7 ar
     6    2    3 ar
     7    3    4 ar
     8    3   27 1
     9    4    5 ar
    10    4   28 1
    11    5    6 ar
    12    5   23 1
    13    6    7 ar
    14    6    8 1
    15    7   29 1
    16    8   13 1
    17    8    9 1
    18    9   10 1
    19    9   30 1
    20    9   31 1
    21   10   11 1
    22   10   32 1
    23   10   33 1
    24   11   12 1
    25   11   14 1
    26   11   50 1
    27   12   13 1
    28   12   34 1
    29   12   35 1
    30   13   36 1
    31   13   37 1
    32   14   15 1
    33   14   20 1
    34   14   16 1
    35   16   17 1
    36   16   38 1
    37   16   39 1
    38   17   18 1
    39   17   40 1
    40   17   41 1
    41   18   19 1
    42   18   42 1
    43   18   43 1
    44   19   20 1
    45   19   44 1
    46   19   45 1
    47   20   21 1
    48   20   22 1
    49   22   46 1
    50   23   47 1
    51   23   48 1
    52   23   49 1
@<TRIPOS>MOLECULE
ZINC28232233
   49    51     0     0     0
SMALL
USER_CHARGES
(1R,2R)-2-[4-(2,5-dimethylphenyl)piperazin-1-yl]cyclohexan-1-ol
@<TRIPOS>ATOM
      1 C1         -7.3331   -4.0458   -0.3695 C.3       1 <0>        -0.1173
      2 C2         -7.0652   -2.5854   -0.1118 C.ar      1 <0>        -0.0834
      3 C3         -8.0828   -1.7660    0.3421 C.ar      1 <0>        -0.1186
      4 C4         -7.8413   -0.4255    0.5798 C.ar      1 <0>        -0.1145
      5 C5         -6.5808    0.0986    0.3696 C.ar      1 <0>        -0.0660
      6 C6         -5.5578   -0.7204   -0.0907 C.ar      1 <0>         0.0888
      7 C7         -5.8039   -2.0669   -0.3286 C.ar      1 <0>        -0.1434
      8 N1         -4.2830   -0.1927   -0.3085 N.pl3     1 <0>        -0.4986
      9 C8         -3.3020   -0.7904    0.6080 C.3       1 <0>         0.0622
     10 C9         -1.9381   -0.1304    0.3922 C.3       1 <0>         0.0538
     11 N2         -1.5255   -0.3105   -1.0067 N.3       1 <0>        -0.5219
     12 C10        -2.5065    0.2872   -1.9232 C.3       1 <0>         0.0514
     13 C11        -3.8705   -0.3728   -1.7074 C.3       1 <0>         0.0621
     14 C12        -0.1848    0.2444   -1.2358 C.3       1 <0>         0.0970
     15 H1          0.4924   -0.2261   -0.5078 H         1 <0>         0.0885
     16 C13        -0.2194    1.7609   -1.0353 C.3       1 <0>        -0.1513
     17 C14         1.1769    2.3389   -1.2739 C.3       1 <0>        -0.1184
     18 C15         1.6221    2.0234   -2.7033 C.3       1 <0>        -0.1200
     19 C16         1.6567    0.5070   -2.9038 C.3       1 <0>        -0.1510
     20 C17         0.2604   -0.0710   -2.6652 C.3       1 <0>         0.1261
     21 H2         -0.4611    0.3127   -3.4015 H         1 <0>         0.0497
     22 O1          0.2927   -1.4873   -2.8524 O.3       1 <0>        -0.5843
     23 C18        -6.3169    1.5584    0.6348 C.3       1 <0>        -0.1142
     24 H3         -8.3854   -4.2712   -0.1420 H         1 <0>         0.0661
     25 H4         -6.6804   -4.6569    0.2712 H         1 <0>         0.0687
     26 H5         -7.1290   -4.2752   -1.4258 H         1 <0>         0.0687
     27 H6         -9.0684   -2.1741    0.5108 H         1 <0>         0.1217
     28 H7         -8.6382    0.2115    0.9341 H         1 <0>         0.1242
     29 H8         -5.0096   -2.7074   -0.6823 H         1 <0>         0.1187
     30 H9         -3.6268   -0.6320    1.6469 H         1 <0>         0.0806
     31 H10        -3.2240   -1.8694    0.4088 H         1 <0>         0.0474
     32 H11        -2.0105    0.9436    0.6188 H         1 <0>         0.0463
     33 H12        -1.1960   -0.5962    1.0573 H         1 <0>         0.0808
     34 H13        -2.5845    1.3662   -1.7239 H         1 <0>         0.0456
     35 H14        -2.1817    0.1288   -2.9621 H         1 <0>         0.0812
     36 H15        -3.7990   -1.4470   -1.9332 H         1 <0>         0.0475
     37 H16        -4.6135    0.0928   -2.3716 H         1 <0>         0.0792
     38 H17        -0.9282    2.2088   -1.7473 H         1 <0>         0.0690
     39 H18        -0.5394    1.9877   -0.0076 H         1 <0>         0.0716
     40 H19         1.1519    3.4291   -1.1298 H         1 <0>         0.0658
     41 H20         1.8857    1.8911   -0.5618 H         1 <0>         0.0648
     42 H21         0.9133    2.4713   -3.4154 H         1 <0>         0.0626
     43 H22         2.6261    2.4389   -2.8748 H         1 <0>         0.0667
     44 H23         1.9767    0.2803   -3.9315 H         1 <0>         0.0664
     45 H24         2.3655    0.0591   -2.1918 H         1 <0>         0.0717
     46 H25         0.5915   -1.9069   -3.8243 H         1 <0>         0.3993
     47 H26        -5.2644    1.7872    0.4115 H         1 <0>         0.0826
     48 H27        -6.5246    1.7825    1.6915 H         1 <0>         0.0631
     49 H28        -6.9691    2.1710   -0.0050 H         1 <0>         0.0632
@<TRIPOS>BOND
     1    1    2 1
     2    1   24 1
     3    1   25 1
     4    1   26 1
     5    2    7 ar
     6    2    3 ar
     7    3    4 ar
     8    3   27 1
     9    4    5 ar
    10    4   28 1
    11    5    6 ar
    12    5   23 1
    13    6    7 ar
    14    6    8 1
    15    7   29 1
    16    8   13 1
    17    8    9 1
    18    9   10 1
    19    9   30 1
    20    9   31 1
    21   10   11 1
    22   10   32 1
    23   10   33 1
    24   11   12 1
    25   11   14 1
    26   12   13 1
    27   12   34 1
    28   12   35 1
    29   13   36 1
    30   13   37 1
    31   14   15 1
    32   14   20 1
    33   14   16 1
    34   16   17 1
    35   16   38 1
    36   16   39 1
    37   17   18 1
    38   17   40 1
    39   17   41 1
    40   18   19 1
    41   18   42 1
    42   18   43 1
    43   19   20 1
    44   19   44 1
    45   19   45 1
    46   20   21 1
    47   20   22 1
    48   22   46 1
    49   23   47 1
    50   23   48 1
    51   23   49 1
@<TRIPOS>MOLECULE
ZINC28232233
   50    52     0     0     0
SMALL
USER_CHARGES
(1R,2R)-2-[4-(2,5-dimethylphenyl)piperazin-1-yl]cyclohexan-1-ol
@<TRIPOS>ATOM
      1 C1         -7.3331   -4.0458   -0.3695 C.3       1 <0>        -0.1229
      2 C2         -7.0652   -2.5854   -0.1118 C.ar      1 <0>        -0.0768
      3 C3         -8.0828   -1.7660    0.3421 C.ar      1 <0>        -0.1026
      4 C4         -7.8413   -0.4255    0.5798 C.ar      1 <0>        -0.1097
      5 C5         -6.5808    0.0986    0.3696 C.ar      1 <0>        -0.0537
      6 C6         -5.5578   -0.7204   -0.0907 C.ar      1 <0>         0.0628
      7 C7         -5.8039   -2.0669   -0.3286 C.ar      1 <0>        -0.1429
      8 N1         -4.2830   -0.1927   -0.3085 N.pl3     1 <0>        -0.4905
      9 C8         -3.3020   -0.7904    0.6080 C.3       1 <0>         0.0298
     10 C9         -1.9381   -0.1304    0.3922 C.3       1 <0>        -0.0022
     11 N2         -1.5255   -0.3105   -1.0067 N.4       1 <0>        -0.3984
     12 C10        -2.5065    0.2872   -1.9232 C.3       1 <0>        -0.0062
     13 C11        -3.8705   -0.3728   -1.7074 C.3       1 <0>         0.0312
     14 C12        -0.1848    0.2444   -1.2358 C.3       1 <0>         0.0475
     15 H1          0.4924   -0.2261   -0.5078 H         1 <0>         0.1394
     16 C13        -0.2194    1.7609   -1.0353 C.3       1 <0>        -0.1402
     17 C14         1.1769    2.3389   -1.2739 C.3       1 <0>        -0.1211
     18 C15         1.6221    2.0234   -2.7033 C.3       1 <0>        -0.1299
     19 C16         1.6567    0.5070   -2.9038 C.3       1 <0>        -0.1488
     20 C17         0.2604   -0.0710   -2.6652 C.3       1 <0>         0.1020
     21 H2         -0.4611    0.3127   -3.4015 H         1 <0>         0.0746
     22 O1          0.2927   -1.4873   -2.8524 O.3       1 <0>        -0.6157
     23 C18        -6.3169    1.5584    0.6348 C.3       1 <0>        -0.1178
     24 H3         -8.3854   -4.2712   -0.1420 H         1 <0>         0.0721
     25 H4         -6.6804   -4.6569    0.2712 H         1 <0>         0.0717
     26 H5         -7.1290   -4.2752   -1.4258 H         1 <0>         0.0717
     27 H6         -9.0684   -2.1741    0.5108 H         1 <0>         0.1295
     28 H7         -8.6382    0.2115    0.9341 H         1 <0>         0.1318
     29 H8         -5.0096   -2.7074   -0.6823 H         1 <0>         0.1164
     30 H9         -3.6268   -0.6320    1.6469 H         1 <0>         0.1248
     31 H10        -3.2240   -1.8694    0.4088 H         1 <0>         0.0639
     32 H11        -2.0105    0.9436    0.6188 H         1 <0>         0.1367
     33 H12        -1.1960   -0.5962    1.0573 H         1 <0>         0.1365
     34 H13        -2.5845    1.3662   -1.7239 H         1 <0>         0.1365
     35 H14        -2.1817    0.1288   -2.9621 H         1 <0>         0.1342
     36 H15        -3.7990   -1.4470   -1.9332 H         1 <0>         0.0639
     37 H16        -4.6135    0.0928   -2.3716 H         1 <0>         0.1235
     38 H17        -0.9282    2.2088   -1.7473 H         1 <0>         0.0896
     39 H18        -0.5394    1.9877   -0.0076 H         1 <0>         0.0939
     40 H19         1.1519    3.4291   -1.1298 H         1 <0>         0.0883
     41 H20         1.8857    1.8911   -0.5618 H         1 <0>         0.0765
     42 H21         0.9133    2.4713   -3.4154 H         1 <0>         0.0714
     43 H22         2.6261    2.4389   -2.8748 H         1 <0>         0.0834
     44 H23         1.9767    0.2803   -3.9315 H         1 <0>         0.0860
     45 H24         2.3655    0.0591   -2.1918 H         1 <0>         0.0829
     46 H25         0.5915   -1.9069   -3.8243 H         1 <0>         0.4426
     47 H26        -5.2644    1.7872    0.4115 H         1 <0>         0.0782
     48 H27        -6.5246    1.7825    1.6915 H         1 <0>         0.0697
     49 H28        -6.9691    2.1710   -0.0050 H         1 <0>         0.0700
     50 H29        -1.4826   -1.3903   -1.2119 H         1 <0>         0.4466
@<TRIPOS>BOND
     1    1    2 1
     2    1   24 1
     3    1   25 1
     4    1   26 1
     5    2    7 ar
     6    2    3 ar
     7    3    4 ar
     8    3   27 1
     9    4    5 ar
    10    4   28 1
    11    5    6 ar
    12    5   23 1
    13    6    7 ar
    14    6    8 1
    15    7   29 1
    16    8   13 1
    17    8    9 1
    18    9   10 1
    19    9   30 1
    20    9   31 1
    21   10   11 1
    22   10   32 1
    23   10   33 1
    24   11   12 1
    25   11   14 1
    26   11   50 1
    27   12   13 1
    28   12   34 1
    29   12   35 1
    30   13   36 1
    31   13   37 1
    32   14   15 1
    33   14   20 1
    34   14   16 1
    35   16   17 1
    36   16   38 1
    37   16   39 1
    38   17   18 1
    39   17   40 1
    40   17   41 1
    41   18   19 1
    42   18   42 1
    43   18   43 1
    44   19   20 1
    45   19   44 1
    46   19   45 1
    47   20   21 1
    48   20   22 1
    49   22   46 1
    50   23   47 1
    51   23   48 1
    52   23   49 1
@<TRIPOS>MOLECULE
ZINC28232237
   49    51     0     0     0
SMALL
USER_CHARGES
(1R,2S)-2-[4-(2,5-dimethylphenyl)piperazin-1-yl]cyclohexan-1-ol
@<TRIPOS>ATOM
      1 C1         -2.5609    3.8633    0.0473 C.3       1 <0>        -0.1173
      2 C2         -1.2429    3.1328    0.0308 C.ar      1 <0>        -0.0834
      3 C3         -1.2197    1.7500    0.0174 C.ar      1 <0>        -0.1185
      4 C4         -0.0126    1.0758    0.0080 C.ar      1 <0>        -0.1144
      5 C5          1.1746    1.7819    0.0004 C.ar      1 <0>        -0.0661
      6 C6          1.1548    3.1706    0.0081 C.ar      1 <0>         0.0888
      7 C7         -0.0598    3.8449    0.0233 C.ar      1 <0>        -0.1433
      8 N1          2.3534    3.8877    0.0000 N.pl3     1 <0>        -0.4995
      9 C8          2.5066    4.6713    1.2338 C.3       1 <0>         0.0636
     10 C9          3.8643    5.3777    1.2210 C.3       1 <0>         0.0560
     11 N2          3.9522    6.2431    0.0366 N.3       1 <0>        -0.5266
     12 C10         3.7990    5.4595   -1.1972 C.3       1 <0>         0.0534
     13 C11         2.4413    4.7532   -1.1845 C.3       1 <0>         0.0622
     14 C12         5.2128    6.9973    0.0281 C.3       1 <0>         0.0985
     15 H1          6.0306    6.2662   -0.0536 H         1 <0>         0.0496
     16 C13         5.2266    7.9542   -1.1657 C.3       1 <0>        -0.1085
     17 C14         6.5395    8.7397   -1.1745 C.3       1 <0>        -0.1194
     18 C15         6.6631    9.5411    0.1230 C.3       1 <0>        -0.1153
     19 C16         6.6493    8.5843    1.3167 C.3       1 <0>        -0.1517
     20 C17         5.3363    7.7987    1.3256 C.3       1 <0>         0.1232
     21 H2          5.2691    7.1438    2.2069 H         1 <0>         0.0492
     22 O1          4.2384    8.7073    1.4306 O.3       1 <0>        -0.5773
     23 C18         2.4897    1.0462   -0.0166 C.3       1 <0>        -0.1143
     24 H3         -3.3843    3.1339    0.0513 H         1 <0>         0.0661
     25 H4         -2.6388    4.4994   -0.8468 H         1 <0>         0.0687
     26 H5         -2.6216    4.4898    0.9494 H         1 <0>         0.0687
     27 H6         -2.1465    1.1955    0.0184 H         1 <0>         0.1217
     28 H7          0.0021   -0.0041    0.0020 H         1 <0>         0.1242
     29 H8         -0.0787    4.9247    0.0289 H         1 <0>         0.1187
     30 H9          1.7031    5.4201    1.2947 H         1 <0>         0.0480
     31 H10         2.4494    4.0005    2.1037 H         1 <0>         0.0794
     32 H11         3.9689    5.9875    2.1305 H         1 <0>         0.0838
     33 H12         4.6678    4.6272    1.1884 H         1 <0>         0.0395
     34 H13         3.8563    6.1303   -2.0671 H         1 <0>         0.0854
     35 H14         4.6024    4.7106   -1.2581 H         1 <0>         0.0412
     36 H15         2.3360    4.1426   -2.0934 H         1 <0>         0.0803
     37 H16         1.6371    5.5030   -1.1513 H         1 <0>         0.0478
     38 H17         5.1378    7.3780   -2.0985 H         1 <0>         0.0607
     39 H18         4.3814    8.6536   -1.0849 H         1 <0>         0.0818
     40 H19         7.3847    8.0403   -1.2554 H         1 <0>         0.0583
     41 H20         6.5495    9.4277   -2.0328 H         1 <0>         0.0656
     42 H21         7.6071   10.1058    0.1166 H         1 <0>         0.0600
     43 H22         5.8180   10.2405    0.2039 H         1 <0>         0.0707
     44 H23         7.4945    7.8849    1.2358 H         1 <0>         0.0677
     45 H24         6.7382    9.1605    2.2495 H         1 <0>         0.0665
     46 H25         4.1562    9.3721    2.3031 H         1 <0>         0.3975
     47 H26         3.3160    1.7723   -0.0206 H         1 <0>         0.0825
     48 H27         2.5477    0.4197   -0.9189 H         1 <0>         0.0634
     49 H28         2.5653    0.4096    0.8773 H         1 <0>         0.0630
@<TRIPOS>BOND
     1    1    2 1
     2    1   24 1
     3    1   25 1
     4    1   26 1
     5    2    7 ar
     6    2    3 ar
     7    3    4 ar
     8    3   27 1
     9    4    5 ar
    10    4   28 1
    11    5    6 ar
    12    5   23 1
    13    6    7 ar
    14    6    8 1
    15    7   29 1
    16    8   13 1
    17    8    9 1
    18    9   10 1
    19    9   30 1
    20    9   31 1
    21   10   11 1
    22   10   32 1
    23   10   33 1
    24   11   12 1
    25   11   14 1
    26   12   13 1
    27   12   34 1
    28   12   35 1
    29   13   36 1
    30   13   37 1
    31   14   15 1
    32   14   20 1
    33   14   16 1
    34   16   17 1
    35   16   38 1
    36   16   39 1
    37   17   18 1
    38   17   40 1
    39   17   41 1
    40   18   19 1
    41   18   42 1
    42   18   43 1
    43   19   20 1
    44   19   44 1
    45   19   45 1
    46   20   21 1
    47   20   22 1
    48   22   46 1
    49   23   47 1
    50   23   48 1
    51   23   49 1
@<TRIPOS>MOLECULE
ZINC28232237
   50    52     0     0     0
SMALL
USER_CHARGES
(1R,2S)-2-[4-(2,5-dimethylphenyl)piperazin-1-yl]cyclohexan-1-ol
@<TRIPOS>ATOM
      1 C1         -2.5609    3.8633    0.0473 C.3       1 <0>        -0.1229
      2 C2         -1.2429    3.1328    0.0308 C.ar      1 <0>        -0.0768
      3 C3         -1.2197    1.7500    0.0174 C.ar      1 <0>        -0.1026
      4 C4         -0.0126    1.0758    0.0080 C.ar      1 <0>        -0.1097
      5 C5          1.1746    1.7819    0.0004 C.ar      1 <0>        -0.0537
      6 C6          1.1548    3.1706    0.0081 C.ar      1 <0>         0.0627
      7 C7         -0.0598    3.8449    0.0233 C.ar      1 <0>        -0.1429
      8 N1          2.3534    3.8877    0.0000 N.pl3     1 <0>        -0.4909
      9 C8          2.5066    4.6713    1.2338 C.3       1 <0>         0.0312
     10 C9          3.8643    5.3777    1.2210 C.3       1 <0>        -0.0014
     11 N2          3.9522    6.2431    0.0366 N.4       1 <0>        -0.3994
     12 C10         3.7990    5.4595   -1.1972 C.3       1 <0>        -0.0033
     13 C11         2.4413    4.7532   -1.1845 C.3       1 <0>         0.0298
     14 C12         5.2128    6.9973    0.0281 C.3       1 <0>         0.0467
     15 H1          6.0306    6.2662   -0.0536 H         1 <0>         0.1396
     16 C13         5.2266    7.9542   -1.1657 C.3       1 <0>        -0.1364
     17 C14         6.5395    8.7397   -1.1745 C.3       1 <0>        -0.1177
     18 C15         6.6631    9.5411    0.1230 C.3       1 <0>        -0.1256
     19 C16         6.6493    8.5843    1.3167 C.3       1 <0>        -0.1498
     20 C17         5.3363    7.7987    1.3256 C.3       1 <0>         0.1019
     21 H2          5.2691    7.1438    2.2069 H         1 <0>         0.0744
     22 O1          4.2384    8.7073    1.4306 O.3       1 <0>        -0.6093
     23 C18         2.4897    1.0462   -0.0166 C.3       1 <0>        -0.1179
     24 H3         -3.3843    3.1339    0.0513 H         1 <0>         0.0722
     25 H4         -2.6388    4.4994   -0.8468 H         1 <0>         0.0718
     26 H5         -2.6216    4.4898    0.9494 H         1 <0>         0.0716
     27 H6         -2.1465    1.1955    0.0184 H         1 <0>         0.1295
     28 H7          0.0021   -0.0041    0.0020 H         1 <0>         0.1318
     29 H8         -0.0787    4.9247    0.0289 H         1 <0>         0.1164
     30 H9          1.7031    5.4201    1.2947 H         1 <0>         0.0639
     31 H10         2.4494    4.0005    2.1037 H         1 <0>         0.1236
     32 H11         3.9689    5.9875    2.1305 H         1 <0>         0.1360
     33 H12         4.6678    4.6272    1.1884 H         1 <0>         0.1341
     34 H13         3.8563    6.1303   -2.0671 H         1 <0>         0.1381
     35 H14         4.6024    4.7106   -1.2581 H         1 <0>         0.1354
     36 H15         2.3360    4.1426   -2.0934 H         1 <0>         0.1247
     37 H16         1.6371    5.5030   -1.1513 H         1 <0>         0.0638
     38 H17         5.1378    7.3780   -2.0985 H         1 <0>         0.0853
     39 H18         4.3814    8.6536   -1.0849 H         1 <0>         0.0956
     40 H19         7.3847    8.0403   -1.2554 H         1 <0>         0.0725
     41 H20         6.5495    9.4277   -2.0328 H         1 <0>         0.0855
     42 H21         7.6071   10.1058    0.1166 H         1 <0>         0.0775
     43 H22         5.8180   10.2405    0.2039 H         1 <0>         0.0770
     44 H23         7.4945    7.8849    1.2358 H         1 <0>         0.0808
     45 H24         6.7382    9.1605    2.2495 H         1 <0>         0.0858
     46 H25         4.1562    9.3721    2.3031 H         1 <0>         0.4401
     47 H26         3.3160    1.7723   -0.0206 H         1 <0>         0.0782
     48 H27         2.5477    0.4197   -0.9189 H         1 <0>         0.0701
     49 H28         2.5653    0.4096    0.8773 H         1 <0>         0.0697
     50 H29         3.1262    6.9681    0.0835 H         1 <0>         0.4432
@<TRIPOS>BOND
     1    1    2 1
     2    1   24 1
     3    1   25 1
     4    1   26 1
     5    2    7 ar
     6    2    3 ar
     7    3    4 ar
     8    3   27 1
     9    4    5 ar
    10    4   28 1
    11    5    6 ar
    12    5   23 1
    13    6    7 ar
    14    6    8 1
    15    7   29 1
    16    8   13 1
    17    8    9 1
    18    9   10 1
    19    9   30 1
    20    9   31 1
    21   10   11 1
    22   10   32 1
    23   10   33 1
    24   11   12 1
    25   11   14 1
    26   11   50 1
    27   12   13 1
    28   12   34 1
    29   12   35 1
    30   13   36 1
    31   13   37 1
    32   14   15 1
    33   14   20 1
    34   14   16 1
    35   16   17 1
    36   16   38 1
    37   16   39 1
    38   17   18 1
    39   17   40 1
    40   17   41 1
    41   18   19 1
    42   18   42 1
    43   18   43 1
    44   19   20 1
    45   19   44 1
    46   19   45 1
    47   20   21 1
    48   20   22 1
    49   22   46 1
    50   23   47 1
    51   23   48 1
    52   23   49 1
