@<TRIPOS>MOLECULE
ZINC03875392
   51    53     0     0     0
SMALL
USER_CHARGES

@<TRIPOS>ATOM
      1 C1          0.7663   -0.3656   -1.1344 C.3       1 <0>        -0.1555
      2 C2         -0.0229   -0.0054    0.1259 C.3       1 <0>        -0.0984
      3 C3         -0.0728    1.5161    0.2789 C.3       1 <0>        -0.1529
      4 C4         -1.4467   -0.5533    0.0101 C.3       1 <0>        -0.1203
      5 C5         -1.4056   -2.0828    0.0034 C.3       1 <0>        -0.1630
      6 H1         -0.7426   -2.4294   -0.7894 H         1 <0>         0.1472
      7 C6         -2.8167   -2.6372   -0.2231 C.3       1 <0>         0.0026
      8 N1         -3.6702   -2.2815    0.9182 N.4       1 <0>        -0.3841
      9 C7         -5.0587   -2.6650    0.6257 C.3       1 <0>        -0.0038
     10 C8         -5.9764   -2.0174    1.6630 C.3       1 <0>        -0.1022
     11 C9         -5.4707   -2.3234    3.0500 C.ar      1 <0>        -0.0800
     12 C10        -6.3300   -2.1471    4.1238 C.ar      1 <0>        -0.1666
     13 C11        -5.9025   -2.4151    5.4121 C.ar      1 <0>         0.1352
     14 C12        -4.6025   -2.8641    5.6271 C.ar      1 <0>         0.1199
     15 C13        -3.7502   -3.0389    4.5520 C.ar      1 <0>        -0.1550
     16 C14        -4.1831   -2.7689    3.2612 C.ar      1 <0>        -0.1287
     17 C15        -3.2181   -2.9771    2.1244 C.3       1 <0>         0.0985
     18 H2         -3.1348   -4.0435    1.9144 H         1 <0>         0.1476
     19 C16        -1.8365   -2.4498    2.5325 C.3       1 <0>        -0.1903
     20 C17        -0.9081   -2.5866    1.3424 C.2       1 <0>         0.3497
     21 O1          0.1881   -3.0802    1.4566 O.2       1 <0>        -0.3949
     22 O2         -4.1721   -3.1294    6.8895 O.3       1 <0>        -0.2951
     23 C18        -2.8259   -3.5866    7.0333 C.3       1 <0>         0.0204
     24 O3         -6.7478   -2.2402    6.4630 O.3       1 <0>        -0.2951
     25 C19        -8.0661   -1.7765    6.1649 C.3       1 <0>         0.0205
     26 H3          1.7807    0.0248   -1.0518 H         1 <0>         0.0653
     27 H4          0.8019   -1.4496   -1.2433 H         1 <0>         0.0569
     28 H5          0.2786    0.0713   -2.0058 H         1 <0>         0.0617
     29 H6          0.4648   -0.4423    0.9973 H         1 <0>         0.0717
     30 H7         -0.7081    1.7755    1.1258 H         1 <0>         0.0559
     31 H8          0.9339    1.8974    0.4496 H         1 <0>         0.0651
     32 H9         -0.4800    1.9595   -0.6299 H         1 <0>         0.0615
     33 H10        -2.0385   -0.2095    0.8584 H         1 <0>         0.0660
     34 H11        -1.8985   -0.1980   -0.9160 H         1 <0>         0.0966
     35 H12        -3.2330   -2.2099   -1.1354 H         1 <0>         0.1489
     36 H13        -2.7701   -3.7220   -0.3181 H         1 <0>         0.1385
     37 H14        -5.3314   -2.3180   -0.3710 H         1 <0>         0.1424
     38 H15        -5.1569   -3.7493    0.6770 H         1 <0>         0.1356
     39 H16        -5.9899   -0.9380    1.5118 H         1 <0>         0.1049
     40 H17        -6.9864   -2.4114    1.5501 H         1 <0>         0.1257
     41 H18        -7.3380   -1.7986    3.9537 H         1 <0>         0.1487
     42 H19        -2.7415   -3.3873    4.7179 H         1 <0>         0.1461
     43 H20        -1.9131   -1.4014    2.8207 H         1 <0>         0.1282
     44 H21        -1.4516   -3.0345    3.3681 H         1 <0>         0.1363
     45 H22        -2.6966   -4.5159    6.4784 H         1 <0>         0.0596
     46 H23        -2.1424   -2.8324    6.6432 H         1 <0>         0.0589
     47 H24        -2.6118   -3.7604    8.0878 H         1 <0>         0.1119
     48 H25        -8.0072   -0.8061    5.6719 H         1 <0>         0.0608
     49 H26        -8.5617   -2.4893    5.5059 H         1 <0>         0.0611
     50 H27        -8.6352   -1.6802    7.0896 H         1 <0>         0.1116
     51 H28        -3.6276   -1.2850    1.0705 H         1 <0>         0.4242
@<TRIPOS>BOND
     1    1    2 1
     2    1   26 1
     3    1   27 1
     4    1   28 1
     5    2    3 1
     6    2    4 1
     7    2   29 1
     8    3   30 1
     9    3   31 1
    10    3   32 1
    11    4    5 1
    12    4   33 1
    13    4   34 1
    14    5    6 1
    15    5   20 1
    16    5    7 1
    17    7    8 1
    18    7   35 1
    19    7   36 1
    20    8   17 1
    21    8    9 1
    22    8   51 1
    23    9   10 1
    24    9   37 1
    25    9   38 1
    26   10   11 1
    27   10   39 1
    28   10   40 1
    29   11   16 ar
    30   11   12 ar
    31   12   13 ar
    32   12   41 1
    33   13   14 ar
    34   13   24 1
    35   14   15 ar
    36   14   22 1
    37   15   16 ar
    38   15   42 1
    39   16   17 1
    40   17   18 1
    41   17   19 1
    42   19   20 1
    43   19   43 1
    44   19   44 1
    45   20   21 2
    46   22   23 1
    47   23   45 1
    48   23   46 1
    49   23   47 1
    50   24   25 1
    51   25   48 1
    52   25   49 1
    53   25   50 1
@<TRIPOS>MOLECULE
ZINC03875392
   50    52     0     0     0
SMALL
USER_CHARGES

@<TRIPOS>ATOM
      1 C1          0.7672   -0.3646   -1.1304 C.3       1 <0>        -0.1494
      2 C2         -0.0248   -0.0055    0.1285 C.3       1 <0>        -0.1045
      3 C3         -0.0769    1.5159    0.2815 C.3       1 <0>        -0.1464
      4 C4         -1.4477   -0.5552    0.0099 C.3       1 <0>        -0.0934
      5 C5         -1.4046   -2.0846    0.0033 C.3       1 <0>        -0.1342
      6 H1         -0.7412   -2.4304   -0.7894 H         1 <0>         0.1019
      7 C6         -2.8150   -2.6407   -0.2234 C.3       1 <0>         0.0632
      8 N1         -3.6643   -2.2993    0.9262 N.3       1 <0>        -0.5289
      9 C7         -5.0714   -2.6229    0.6475 C.3       1 <0>         0.0551
     10 C8         -5.9497   -1.9280    1.6878 C.3       1 <0>        -0.0732
     11 C9         -5.4446   -2.2406    3.0734 C.ar      1 <0>        -0.0600
     12 C10        -6.2957   -2.0338    4.1489 C.ar      1 <0>        -0.1743
     13 C11        -5.8729   -2.3052    5.4378 C.ar      1 <0>         0.1066
     14 C12        -4.5851   -2.7881    5.6526 C.ar      1 <0>         0.1007
     15 C13        -3.7410   -2.9929    4.5764 C.ar      1 <0>        -0.1682
     16 C14        -4.1696   -2.7200    3.2844 C.ar      1 <0>        -0.0741
     17 C15        -3.2114   -2.9658    2.1490 C.3       1 <0>         0.1413
     18 H2         -3.1361   -4.0380    1.9675 H         1 <0>         0.0569
     19 C16        -1.8252   -2.4356    2.5374 C.3       1 <0>        -0.1598
     20 C17        -0.9066   -2.5876    1.3422 C.2       1 <0>         0.3668
     21 O1          0.1849   -3.0924    1.4526 O.2       1 <0>        -0.4499
     22 O2         -4.1586   -3.0570    6.9156 O.3       1 <0>        -0.3053
     23 C18        -2.8249   -3.5499    7.0588 C.3       1 <0>         0.0249
     24 O3         -6.7106   -2.1008    6.4894 O.3       1 <0>        -0.3057
     25 C19        -8.0166   -1.6032    6.1914 C.3       1 <0>         0.0257
     26 H3          1.7809    0.0270   -1.0459 H         1 <0>         0.0539
     27 H4          0.8044   -1.4485   -1.2394 H         1 <0>         0.0560
     28 H5          0.2806    0.0718   -2.0026 H         1 <0>         0.0557
     29 H6          0.4619   -0.4419    1.0007 H         1 <0>         0.0648
     30 H7         -0.7140    1.7744    1.1273 H         1 <0>         0.0550
     31 H8          0.9291    1.8984    0.4541 H         1 <0>         0.0541
     32 H9         -0.4829    1.9588   -0.6279 H         1 <0>         0.0559
     33 H10        -2.0415   -0.2121    0.8571 H         1 <0>         0.0809
     34 H11        -1.8982   -0.2004   -0.9170 H         1 <0>         0.0750
     35 H12        -3.2365   -2.2047   -1.1291 H         1 <0>         0.0937
     36 H13        -2.7658   -3.7244   -0.3300 H         1 <0>         0.0419
     37 H14        -5.3370   -2.2707   -0.3492 H         1 <0>         0.0863
     38 H15        -5.2173   -3.7014    0.7076 H         1 <0>         0.0421
     39 H16        -5.9198   -0.8505    1.5258 H         1 <0>         0.0873
     40 H17        -6.9765   -2.2800    1.5885 H         1 <0>         0.0803
     41 H18        -7.2941   -1.6585    3.9791 H         1 <0>         0.1365
     42 H19        -2.7416   -3.3672    4.7422 H         1 <0>         0.1361
     43 H20        -1.8981   -1.3837    2.8135 H         1 <0>         0.1112
     44 H21        -1.4338   -3.0102    3.3769 H         1 <0>         0.0928
     45 H22        -2.7225   -4.4858    6.5096 H         1 <0>         0.0547
     46 H23        -2.1222   -2.8171    6.6621 H         1 <0>         0.0553
     47 H24        -2.6128   -3.7226    8.1139 H         1 <0>         0.1022
     48 H25        -7.9323   -0.6379    5.6922 H         1 <0>         0.0556
     49 H26        -8.5329   -2.3064    5.5379 H         1 <0>         0.0551
     50 H27        -8.5806   -1.4857    7.1167 H         1 <0>         0.1016
@<TRIPOS>BOND
     1    1    2 1
     2    1   26 1
     3    1   27 1
     4    1   28 1
     5    2    3 1
     6    2    4 1
     7    2   29 1
     8    3   30 1
     9    3   31 1
    10    3   32 1
    11    4    5 1
    12    4   33 1
    13    4   34 1
    14    5    6 1
    15    5   20 1
    16    5    7 1
    17    7    8 1
    18    7   35 1
    19    7   36 1
    20    8   17 1
    21    8    9 1
    22    9   10 1
    23    9   37 1
    24    9   38 1
    25   10   11 1
    26   10   39 1
    27   10   40 1
    28   11   16 ar
    29   11   12 ar
    30   12   13 ar
    31   12   41 1
    32   13   14 ar
    33   13   24 1
    34   14   15 ar
    35   14   22 1
    36   15   16 ar
    37   15   42 1
    38   16   17 1
    39   17   18 1
    40   17   19 1
    41   19   20 1
    42   19   43 1
    43   19   44 1
    44   20   21 2
    45   22   23 1
    46   23   45 1
    47   23   46 1
    48   23   47 1
    49   24   25 1
    50   25   48 1
    51   25   49 1
    52   25   50 1
@<TRIPOS>MOLECULE
ZINC03875393
   51    53     0     0     0
SMALL
USER_CHARGES

@<TRIPOS>ATOM
      1 C1         -0.0187    1.5258    0.0104 C.3       1 <0>        -0.1493
      2 C2          0.0021   -0.0041    0.0020 C.3       1 <0>        -0.1072
      3 C3          0.7421   -0.5109    1.2415 C.3       1 <0>        -0.1542
      4 C4         -1.4333   -0.5336    0.0129 C.3       1 <0>        -0.1011
      5 C5         -1.4157   -2.0577   -0.1212 C.3       1 <0>        -0.1619
      6 H1         -0.7900   -2.4884    0.6606 H         1 <0>         0.1330
      7 C6         -2.8429   -2.6040   -0.0013 C.3       1 <0>         0.0026
      8 N1         -2.8370   -4.0484   -0.2684 N.4       1 <0>        -0.3828
      9 C7         -4.1704   -4.6003    0.0105 C.3       1 <0>        -0.0032
     10 C8         -4.0754   -6.1262    0.0359 C.3       1 <0>        -0.1017
     11 C9         -3.3929   -6.6134   -1.2170 C.ar      1 <0>        -0.0801
     12 C10        -3.5217   -7.9490   -1.5665 C.ar      1 <0>        -0.1668
     13 C11        -2.9093   -8.4346   -2.7082 C.ar      1 <0>         0.1351
     14 C12        -2.1605   -7.5750   -3.5070 C.ar      1 <0>         0.1197
     15 C13        -2.0356   -6.2438   -3.1533 C.ar      1 <0>        -0.1550
     16 C14        -2.6523   -5.7605   -2.0077 C.ar      1 <0>        -0.1288
     17 C15        -2.4889   -4.3030   -1.6674 C.3       1 <0>         0.0987
     18 H2         -3.1358   -3.7085   -2.3126 H         1 <0>         0.1466
     19 C16        -1.0336   -3.8867   -1.9173 C.3       1 <0>        -0.1894
     20 C17        -0.8731   -2.4448   -1.4813 C.2       1 <0>         0.3442
     21 O1         -0.3330   -1.6326   -2.1934 O.2       1 <0>        -0.3886
     22 O2         -1.5538   -8.0425   -4.6307 O.3       1 <0>        -0.2952
     23 C18        -0.8021   -7.1024   -5.4010 C.3       1 <0>         0.0205
     24 O3         -3.0378   -9.7452   -3.0480 O.3       1 <0>        -0.2952
     25 C19        -3.8210  -10.5667   -2.1798 C.3       1 <0>         0.0206
     26 H3          1.0039    1.9031    0.0027 H         1 <0>         0.0614
     27 H4         -0.5459    1.8868   -0.8726 H         1 <0>         0.0574
     28 H5         -0.5289    1.8773    0.9072 H         1 <0>         0.0565
     29 H6          0.5123   -0.3556   -0.8948 H         1 <0>         0.0906
     30 H7          0.7568   -1.6008    1.2356 H         1 <0>         0.0471
     31 H8          1.7647   -0.1336    1.2338 H         1 <0>         0.0629
     32 H9          0.2319   -0.1594    2.1383 H         1 <0>         0.0592
     33 H10        -1.9156   -0.2570    0.9504 H         1 <0>         0.0845
     34 H11        -1.9862   -0.1019   -0.8214 H         1 <0>         0.0789
     35 H12        -3.2183   -2.4222    1.0058 H         1 <0>         0.1483
     36 H13        -3.4859   -2.1031   -0.7250 H         1 <0>         0.1369
     37 H14        -4.5202   -4.2398    0.9778 H         1 <0>         0.1423
     38 H15        -4.8649   -4.2904   -0.7704 H         1 <0>         0.1349
     39 H16        -3.5003   -6.4392    0.9074 H         1 <0>         0.1053
     40 H17        -5.0776   -6.5511    0.0918 H         1 <0>         0.1252
     41 H18        -4.1033   -8.6134   -0.9447 H         1 <0>         0.1485
     42 H19        -1.4549   -5.5761   -3.7726 H         1 <0>         0.1461
     43 H20        -0.3644   -4.5224   -1.3375 H         1 <0>         0.1281
     44 H21        -0.8017   -3.9784   -2.9783 H         1 <0>         0.1359
     45 H22        -1.4586   -6.2991   -5.7353 H         1 <0>         0.0596
     46 H23        -0.0026   -6.6869   -4.7877 H         1 <0>         0.0589
     47 H24        -0.3718   -7.6044   -6.2677 H         1 <0>         0.1118
     48 H25        -3.3808  -10.5644   -1.1826 H         1 <0>         0.0608
     49 H26        -4.8374  -10.1762   -2.1291 H         1 <0>         0.0611
     50 H27        -3.8421  -11.5860   -2.5653 H         1 <0>         0.1116
     51 H28        -2.1614   -4.4973    0.3317 H         1 <0>         0.4259
@<TRIPOS>BOND
     1    1    2 1
     2    1   26 1
     3    1   27 1
     4    1   28 1
     5    2    3 1
     6    2    4 1
     7    2   29 1
     8    3   30 1
     9    3   31 1
    10    3   32 1
    11    4    5 1
    12    4   33 1
    13    4   34 1
    14    5    6 1
    15    5   20 1
    16    5    7 1
    17    7    8 1
    18    7   35 1
    19    7   36 1
    20    8   17 1
    21    8    9 1
    22    8   51 1
    23    9   10 1
    24    9   37 1
    25    9   38 1
    26   10   11 1
    27   10   39 1
    28   10   40 1
    29   11   16 ar
    30   11   12 ar
    31   12   13 ar
    32   12   41 1
    33   13   14 ar
    34   13   24 1
    35   14   15 ar
    36   14   22 1
    37   15   16 ar
    38   15   42 1
    39   16   17 1
    40   17   18 1
    41   17   19 1
    42   19   20 1
    43   19   43 1
    44   19   44 1
    45   20   21 2
    46   22   23 1
    47   23   45 1
    48   23   46 1
    49   23   47 1
    50   24   25 1
    51   25   48 1
    52   25   49 1
    53   25   50 1
@<TRIPOS>MOLECULE
ZINC03875393
   50    52     0     0     0
SMALL
USER_CHARGES

@<TRIPOS>ATOM
      1 C1         -0.0187    1.5258    0.0104 C.3       1 <0>        -0.1448
      2 C2          0.0021   -0.0041    0.0020 C.3       1 <0>        -0.1080
      3 C3          0.7421   -0.5109    1.2415 C.3       1 <0>        -0.1500
      4 C4         -1.4333   -0.5336    0.0129 C.3       1 <0>        -0.1005
      5 C5         -1.4157   -2.0577   -0.1212 C.3       1 <0>        -0.1353
      6 H1         -0.7900   -2.4883    0.6606 H         1 <0>         0.1174
      7 C6         -2.8429   -2.6040   -0.0011 C.3       1 <0>         0.0657
      8 N1         -2.8384   -4.0459   -0.2843 N.3       1 <0>        -0.5329
      9 C7         -4.1440   -4.6425    0.0344 C.3       1 <0>         0.0552
     10 C8         -3.9901   -6.1626    0.0819 C.3       1 <0>        -0.0737
     11 C9         -3.3131   -6.6468   -1.1751 C.ar      1 <0>        -0.0605
     12 C10        -3.4164   -7.9899   -1.5055 C.ar      1 <0>        -0.1742
     13 C11        -2.8090   -8.4778   -2.6486 C.ar      1 <0>         0.1066
     14 C12        -2.0906   -7.6128   -3.4692 C.ar      1 <0>         0.1007
     15 C13        -1.9915   -6.2744   -3.1351 C.ar      1 <0>        -0.1680
     16 C14        -2.6032   -5.7888   -1.9873 C.ar      1 <0>        -0.0747
     17 C15        -2.4674   -4.3222   -1.6738 C.3       1 <0>         0.1412
     18 H2         -3.1144   -3.7506   -2.3392 H         1 <0>         0.0572
     19 C16        -1.0148   -3.8898   -1.9113 C.3       1 <0>        -0.1603
     20 C17        -0.8730   -2.4447   -1.4811 C.2       1 <0>         0.3632
     21 O1         -0.3459   -1.6285   -2.1983 O.2       1 <0>        -0.4424
     22 O2         -1.4883   -8.0819   -4.5946 O.3       1 <0>        -0.3053
     23 C18        -0.7686   -7.1359   -5.3878 C.3       1 <0>         0.0249
     24 O3         -2.9127   -9.7955   -2.9687 O.3       1 <0>        -0.3056
     25 C19        -3.6654  -10.6220   -2.0786 C.3       1 <0>         0.0256
     26 H3          1.0039    1.9031    0.0027 H         1 <0>         0.0538
     27 H4         -0.5459    1.8868   -0.8726 H         1 <0>         0.0533
     28 H5         -0.5289    1.8773    0.9072 H         1 <0>         0.0518
     29 H6          0.5123   -0.3556   -0.8948 H         1 <0>         0.0894
     30 H7          0.7568   -1.6008    1.2356 H         1 <0>         0.0524
     31 H8          1.7647   -0.1336    1.2338 H         1 <0>         0.0538
     32 H9          0.2319   -0.1594    2.1383 H         1 <0>         0.0541
     33 H10        -1.9156   -0.2570    0.9504 H         1 <0>         0.0707
     34 H11        -1.9862   -0.1019   -0.8214 H         1 <0>         0.0652
     35 H12        -3.2138   -2.4330    1.0095 H         1 <0>         0.0926
     36 H13        -3.4885   -2.0949   -0.7167 H         1 <0>         0.0421
     37 H14        -4.4851   -4.2792    1.0038 H         1 <0>         0.0865
     38 H15        -4.8671   -4.3721   -0.7350 H         1 <0>         0.0425
     39 H16        -3.3878   -6.4390    0.9473 H         1 <0>         0.0874
     40 H17        -4.9741   -6.6241    0.1642 H         1 <0>         0.0808
     41 H18        -3.9739   -8.6587   -0.8665 H         1 <0>         0.1367
     42 H19        -1.4340   -5.6027   -3.7711 H         1 <0>         0.1364
     43 H20        -0.3441   -4.5154   -1.3224 H         1 <0>         0.1104
     44 H21        -0.7716   -3.9838   -2.9697 H         1 <0>         0.0937
     45 H22        -1.4476   -6.3523   -5.7239 H         1 <0>         0.0547
     46 H23         0.0294   -6.6939   -4.7911 H         1 <0>         0.0553
     47 H24        -0.3386   -7.6399   -6.2533 H         1 <0>         0.1022
     48 H25        -3.2119  -10.5962   -1.0878 H         1 <0>         0.0556
     49 H26        -4.6895  -10.2536   -2.0192 H         1 <0>         0.0552
     50 H27        -3.6689  -11.6468   -2.4499 H         1 <0>         0.1016
@<TRIPOS>BOND
     1    1    2 1
     2    1   26 1
     3    1   27 1
     4    1   28 1
     5    2    3 1
     6    2    4 1
     7    2   29 1
     8    3   30 1
     9    3   31 1
    10    3   32 1
    11    4    5 1
    12    4   33 1
    13    4   34 1
    14    5    6 1
    15    5   20 1
    16    5    7 1
    17    7    8 1
    18    7   35 1
    19    7   36 1
    20    8   17 1
    21    8    9 1
    22    9   10 1
    23    9   37 1
    24    9   38 1
    25   10   11 1
    26   10   39 1
    27   10   40 1
    28   11   16 ar
    29   11   12 ar
    30   12   13 ar
    31   12   41 1
    32   13   14 ar
    33   13   24 1
    34   14   15 ar
    35   14   22 1
    36   15   16 ar
    37   15   42 1
    38   16   17 1
    39   17   18 1
    40   17   19 1
    41   19   20 1
    42   19   43 1
    43   19   44 1
    44   20   21 2
    45   22   23 1
    46   23   45 1
    47   23   46 1
    48   23   47 1
    49   24   25 1
    50   25   48 1
    51   25   49 1
    52   25   50 1
@<TRIPOS>MOLECULE
ZINC04245692
   57    61     0     0     0
SMALL
USER_CHARGES

@<TRIPOS>ATOM
      1 C1          0.9569    1.7636    0.2918 C.3       1 <0>         0.0275
      2 O1          0.8865    0.3382    0.2191 O.3       1 <0>        -0.3193
      3 C2          1.3916   -0.3592    1.2710 C.ar      1 <0>         0.1466
      4 C3          1.9340    0.3395    2.3430 C.ar      1 <0>        -0.2248
      5 C4          2.4610   -0.2997    3.4369 C.ar      1 <0>        -0.0308
      6 C5          2.4295   -1.6981    3.4313 C.ar      1 <0>        -0.1198
      7 C6          1.8776   -2.4186    2.3400 C.ar      1 <0>         0.1368
      8 C7          1.3441   -1.7466    1.2427 C.ar      1 <0>        -0.1682
      9 N1          1.9933   -3.7488    2.6290 N.pl3     1 <0>        -0.5662
     10 H1          1.6976   -4.4723    2.0546 H         1 <0>         0.4195
     11 C8          2.5893   -3.9068    3.8513 C.2       1 <0>         0.0907
     12 C9          2.8750   -2.6941    4.3802 C.2       1 <0>        -0.1994
     13 C10         3.5367   -2.5110    5.7229 C.3       1 <0>        -0.0587
     14 C11         3.4575   -3.8457    6.4783 C.3       1 <0>         0.0093
     15 N2          3.9093   -4.9307    5.6016 N.4       1 <0>        -0.3422
     16 C12         2.9075   -5.1986    4.5607 C.3       1 <0>        -0.1207
     17 H2          2.0017   -5.5937    5.0207 H         1 <0>         0.3142
     18 C13         3.4663   -6.2207    3.5697 C.3       1 <0>        -0.1168
     19 C14         3.7670   -7.5232    4.3230 C.3       1 <0>        -0.0648
     20 H3          4.2038   -8.2499    3.6381 H         1 <0>         0.0945
     21 C15         4.7524   -7.2271    5.4553 C.3       1 <0>        -0.0787
     22 H4          5.6914   -6.8712    5.0313 H         1 <0>         0.0612
     23 C16         4.1472   -6.1518    6.3798 C.3       1 <0>        -0.2177
     24 C17         5.0138   -8.4950    6.2660 C.3       1 <0>        -0.1232
     25 C18         3.6985   -9.0149    6.8494 C.3       1 <0>         0.0256
     26 H5          3.8886   -9.9210    7.4246 H         1 <0>         0.0458
     27 C19         2.7281   -9.3282    5.7083 C.3       1 <0>         0.1143
     28 H6          1.7922   -9.7059    6.1202 H         1 <0>         0.0696
     29 C20         2.4602   -8.0771    4.8958 C.3       1 <0>        -0.1508
     30 H7          1.7719   -8.2991    4.0802 H         1 <0>         0.0956
     31 C21         1.8393   -7.0528    5.8103 C.2       1 <0>         0.4891
     32 O2          1.0417   -6.2440    5.3674 O.co2     1 <0>        -0.5715
     33 O3          2.1346   -7.0329    6.9930 O.co2     1 <0>        -0.4504
     34 O4          3.3039  -10.3151    4.8502 O.3       1 <0>        -0.3795
     35 C22         2.9953  -11.6600    5.2218 C.3       1 <0>         0.0276
     36 O5          3.1284   -8.0196    7.7018 O.3       1 <0>        -0.4008
     37 H8          1.9991    2.0721    0.3744 H         1 <0>         0.0557
     38 H9          0.5205    2.1954   -0.6089 H         1 <0>         0.1003
     39 H10         0.4050    2.1106    1.1653 H         1 <0>         0.0566
     40 H11         1.9414    1.4191    2.3140 H         1 <0>         0.1273
     41 H12         2.8814    0.2520    4.2648 H         1 <0>         0.1330
     42 H13         0.9169   -2.2802    0.4065 H         1 <0>         0.1369
     43 H14         4.5801   -2.2279    5.5837 H         1 <0>         0.0813
     44 H15         3.0166   -1.7370    6.2873 H         1 <0>         0.1054
     45 H16         4.0956   -3.8021    7.3609 H         1 <0>         0.1171
     46 H17         2.4275   -4.0300    6.7833 H         1 <0>         0.1310
     47 H18         2.7310   -6.4118    2.7880 H         1 <0>         0.0911
     48 H19         4.3838   -5.8351    3.1253 H         1 <0>         0.0623
     49 H20         4.8446   -5.9374    7.1896 H         1 <0>         0.0887
     50 H21         3.2045   -6.5084    6.7949 H         1 <0>         0.3132
     51 H22         5.4491   -9.2561    5.6185 H         1 <0>         0.0766
     52 H23         5.7065   -8.2706    7.0770 H         1 <0>         0.0636
     53 H24         3.4690  -12.3482    4.5218 H         1 <0>         0.0859
     54 H25         3.3664  -11.8530    6.2284 H         1 <0>         0.0416
     55 H26         1.9152  -11.8046    5.1988 H         1 <0>         0.0433
     56 H27         3.6919   -7.7702    8.4469 H         1 <0>         0.2550
     57 H28         4.7701   -4.6541    5.1538 H         1 <0>         0.3703
@<TRIPOS>BOND
     1    1    2 1
     2    1   37 1
     3    1   38 1
     4    1   39 1
     5    2    3 1
     6    3    8 ar
     7    3    4 ar
     8    4    5 ar
     9    4   40 1
    10    5    6 ar
    11    5   41 1
    12    6   12 1
    13    6    7 ar
    14    7    8 ar
    15    7    9 1
    16    8   42 1
    17    9   10 1
    18    9   11 1
    19   11   16 1
    20   11   12 2
    21   12   13 1
    22   13   14 1
    23   13   43 1
    24   13   44 1
    25   14   15 1
    26   14   45 1
    27   14   46 1
    28   15   23 1
    29   15   16 1
    30   15   57 1
    31   16   17 1
    32   16   18 1
    33   18   19 1
    34   18   47 1
    35   18   48 1
    36   19   20 1
    37   19   29 1
    38   19   21 1
    39   21   22 1
    40   21   23 1
    41   21   24 1
    42   23   49 1
    43   23   50 1
    44   24   25 1
    45   24   51 1
    46   24   52 1
    47   25   26 1
    48   25   27 1
    49   25   36 1
    50   27   28 1
    51   27   29 1
    52   27   34 1
    53   29   30 1
    54   29   31 1
    55   31   32 2
    56   31   33 1
    57   34   35 1
    58   35   53 1
    59   35   54 1
    60   35   55 1
    61   36   56 1
