@<TRIPOS>MOLECULE
ZINC18164784
   26    28     0     0     0
SMALL
USER_CHARGES

@<TRIPOS>ATOM
      1 C1         -0.0167    1.3785    0.0096 C.ar      1 <0>        -0.1749
      2 C2          1.1816    2.0721    0.0019 C.ar      1 <0>        -0.0394
      3 C3          2.3712    1.3395   -0.0134 C.ar      1 <0>        -0.0729
      4 C4          2.3056   -0.0522   -0.0202 C.ar      1 <0>         0.1473
      5 N1          1.1416   -0.6686   -0.0124 N.ar      1 <0>        -0.4839
      6 C5          0.0021   -0.0041    0.0020 C.ar      1 <0>         0.1148
      7 C6          3.6836    2.0326   -0.0227 C.2       1 <0>         0.2782
      8 N2          4.8785    1.4333   -0.0374 N.2       1 <0>        -0.5105
      9 H1          5.6951    4.4213   -0.0302 H         1 <0>         0.4457
     10 C7          5.8308    2.3414   -0.0420 C.2       1 <0>         0.3293
     11 N3          5.2458    3.5616   -0.0302 N.pl3     1 <0>        -0.4671
     12 N4          3.8596    3.3370   -0.0235 N.2       1 <0>        -0.2895
     13 C8          7.2869    2.0748   -0.0576 C.ar      1 <0>         0.0098
     14 C9          8.2100    3.1258   -0.0549 C.ar      1 <0>        -0.1540
     15 C10         9.5583    2.8321   -0.0698 C.ar      1 <0>         0.1077
     16 N5          9.9790    1.5820   -0.0864 N.ar      1 <0>        -0.4707
     17 C11         9.1425    0.5621   -0.0895 C.ar      1 <0>         0.1065
     18 C12         7.7777    0.7650   -0.0695 C.ar      1 <0>        -0.1188
     19 H2         -0.9558    1.9115    0.0259 H         1 <0>         0.1436
     20 H3          1.1964    3.1519    0.0072 H         1 <0>         0.1431
     21 H4          3.2174   -0.6308   -0.0324 H         1 <0>         0.1687
     22 H5         -0.9307   -0.5484    0.0084 H         1 <0>         0.1624
     23 H6          7.8727    4.1517   -0.0418 H         1 <0>         0.1360
     24 H7         10.2787    3.6367   -0.0683 H         1 <0>         0.1660
     25 H8          9.5311   -0.4455   -0.1033 H         1 <0>         0.1683
     26 H9          7.0987   -0.0749   -0.0675 H         1 <0>         0.1541
@<TRIPOS>BOND
     1    1    6 ar
     2    1    2 ar
     3    1   19 1
     4    2    3 ar
     5    2   20 1
     6    3    4 ar
     7    3    7 1
     8    4    5 ar
     9    4   21 1
    10    5    6 ar
    11    6   22 1
    12    7    8 1
    13    7   12 2
    14    8   10 2
    15    9   11 1
    16   10   13 1
    17   10   11 1
    18   11   12 1
    19   13   18 ar
    20   13   14 ar
    21   14   15 ar
    22   14   23 1
    23   15   16 ar
    24   15   24 1
    25   16   17 ar
    26   17   18 ar
    27   17   25 1
    28   18   26 1
@<TRIPOS>MOLECULE
ZINC08048404
   26    28     0     0     0
SMALL
USER_CHARGES
4-[3-(4-pyridyl)-1H-1,2,4-triazol-5-yl]pyridine
@<TRIPOS>ATOM
      1 C1         -0.0169    1.3946    0.0097 C.ar      1 <0>        -0.1209
      2 C2          1.1807    2.0800    0.0020 C.ar      1 <0>         0.1074
      3 N1          2.3307    1.4341   -0.0129 N.ar      1 <0>        -0.4716
      4 C3          2.3932    0.1165   -0.0202 C.ar      1 <0>         0.1087
      5 C4          1.2441   -0.6474   -0.0133 C.ar      1 <0>        -0.1564
      6 C5          0.0021   -0.0041    0.0020 C.ar      1 <0>         0.0133
      7 C6         -1.2575   -0.7820    0.0103 C.2       1 <0>         0.3108
      8 N2         -1.3588   -2.1317    0.0041 N.pl3     1 <0>        -0.4751
      9 H1         -0.4501   -2.7514   -0.0088 H         1 <0>         0.4767
     10 N3         -2.7318   -2.4265    0.0170 N.2       1 <0>        -0.2682
     11 C7         -3.3698   -1.2754    0.0300 C.2       1 <0>         0.2615
     12 N4         -2.4744   -0.2826    0.0309 N.2       1 <0>        -0.5107
     13 C8         -4.8441   -1.1068    0.0465 C.ar      1 <0>         0.0296
     14 C9         -5.4208    0.1660    0.0659 C.ar      1 <0>        -0.1305
     15 C10        -6.7961    0.2777    0.0761 C.ar      1 <0>         0.0995
     16 N5         -7.5626   -0.7960    0.0779 N.ar      1 <0>        -0.4755
     17 C11        -7.0584   -2.0150    0.0650 C.ar      1 <0>         0.1003
     18 C12        -5.6934   -2.2166    0.0490 C.ar      1 <0>        -0.1398
     19 H2         -0.9548    1.9300    0.0171 H         1 <0>         0.1527
     20 H3          1.1764    3.1600    0.0074 H         1 <0>         0.1677
     21 H4          3.3569   -0.3710   -0.0320 H         1 <0>         0.1661
     22 H5          1.3028   -1.7258   -0.0193 H         1 <0>         0.1358
     23 H6         -4.7993    1.0493    0.0688 H         1 <0>         0.1478
     24 H7         -7.2511    1.2571    0.0870 H         1 <0>         0.1640
     25 H8         -7.7227   -2.8665    0.0674 H         1 <0>         0.1634
     26 H9         -5.2875   -3.2174    0.0381 H         1 <0>         0.1434
@<TRIPOS>BOND
     1    1    6 ar
     2    1    2 ar
     3    1   19 1
     4    2    3 ar
     5    2   20 1
     6    3    4 ar
     7    4    5 ar
     8    4   21 1
     9    5    6 ar
    10    5   22 1
    11    6    7 1
    12    7   12 2
    13    7    8 1
    14    8    9 1
    15    8   10 1
    16   10   11 2
    17   11   12 1
    18   11   13 1
    19   13   18 ar
    20   13   14 ar
    21   14   15 ar
    22   14   23 1
    23   15   16 ar
    24   15   24 1
    25   16   17 ar
    26   17   18 ar
    27   17   25 1
    28   18   26 1
@<TRIPOS>MOLECULE
ZINC49019597
   33    35     0     0     0
SMALL
USER_CHARGES

@<TRIPOS>ATOM
      1 C1         -0.0173    1.4248    0.0099 C.3       1 <0>         0.0159
      2 O1          0.0021   -0.0041    0.0020 O.3       1 <0>        -0.2779
      3 C2          0.6057   -0.6070   -1.0555 C.ar      1 <0>         0.2121
      4 C3          1.1725    0.1639   -2.0617 C.ar      1 <0>        -0.2148
      5 C4          1.7857   -0.4452   -3.1361 C.ar      1 <0>         0.0166
      6 C5          1.8362   -1.8361   -3.2114 C.ar      1 <0>        -0.0533
      7 C6          1.2665   -2.6071   -2.2002 C.ar      1 <0>         0.0162
      8 C7          0.6594   -1.9923   -1.1250 C.ar      1 <0>        -0.0893
      9 N1          0.0593   -2.8105   -0.0473 N.pl3     1 <0>         0.0411
     10 O2          0.1058   -4.0171   -0.1073 O.2       1 <0>        -0.1716
     11 O3         -0.4773   -2.2722    0.8928 O.3       1 <0>        -0.1308
     12 C8          2.4950   -2.4946   -4.3666 C.2       1 <0>         0.2754
     13 N2          3.0786   -1.8642   -5.3910 N.2       1 <0>        -0.5119
     14 C9          3.5625   -2.7473   -6.2383 C.2       1 <0>         0.3321
     15 N3          3.2894   -3.9822   -5.7574 N.pl3     1 <0>        -0.4636
     16 H1          3.5236   -4.8299   -6.1668 H         1 <0>         0.4475
     17 N4          2.6045   -3.7940   -4.5460 N.2       1 <0>        -0.2848
     18 C10         4.2799   -2.4429   -7.4969 C.ar      1 <0>         0.0087
     19 C11         4.7458   -3.4695   -8.3250 C.ar      1 <0>        -0.1530
     20 C12         5.4096   -3.1408   -9.4892 C.ar      1 <0>         0.1087
     21 N5          5.6064   -1.8801   -9.8239 N.ar      1 <0>        -0.4699
     22 C13         5.1837   -0.8822   -9.0718 C.ar      1 <0>         0.1064
     23 C14         4.5057   -1.1206   -7.8938 C.ar      1 <0>        -0.1192
     24 H2          1.0053    1.8021    0.0021 H         1 <0>         0.0659
     25 H3         -0.5445    1.7859   -0.8732 H         1 <0>         0.0659
     26 H4         -0.5275    1.7763    0.9067 H         1 <0>         0.1153
     27 H5          1.1327    1.2415   -2.0030 H         1 <0>         0.1605
     28 H6          2.2261    0.1548   -3.9186 H         1 <0>         0.1592
     29 H7          1.3041   -3.6850   -2.2559 H         1 <0>         0.1679
     30 H8          4.5885   -4.5038   -8.0571 H         1 <0>         0.1369
     31 H9          5.7734   -3.9263  -10.1350 H         1 <0>         0.1667
     32 H10         5.3667    0.1352   -9.3845 H         1 <0>         0.1681
     33 H11         4.1580   -0.2988   -7.2855 H         1 <0>         0.1531
@<TRIPOS>BOND
     1    1    2 1
     2    1   24 1
     3    1   25 1
     4    1   26 1
     5    2    3 1
     6    3    8 ar
     7    3    4 ar
     8    4    5 ar
     9    4   27 1
    10    5    6 ar
    11    5   28 1
    12    6    7 ar
    13    6   12 1
    14    7    8 ar
    15    7   29 1
    16    8    9 1
    17    9   10 2
    18    9   11 1
    19   12   17 2
    20   12   13 1
    21   13   14 2
    22   14   15 1
    23   14   18 1
    24   15   16 1
    25   15   17 1
    26   18   23 ar
    27   18   19 ar
    28   19   20 ar
    29   19   30 1
    30   20   21 ar
    31   20   31 1
    32   21   22 ar
    33   22   23 ar
    34   22   32 1
    35   23   33 1
@<TRIPOS>MOLECULE
ZINC40169658
   29    31     0     0     0
SMALL
USER_CHARGES

@<TRIPOS>ATOM
      1 C1         -0.0168    1.3889    0.0097 C.ar      1 <0>        -0.0137
      2 C2          1.1703    2.0930    0.0021 C.ar      1 <0>        -0.1116
      3 C3          2.3782    1.4172   -0.0130 C.ar      1 <0>         0.0267
      4 C4          2.4021    0.0328   -0.0207 C.ar      1 <0>        -0.0485
      5 C5          1.2207   -0.6798   -0.0132 C.ar      1 <0>        -0.0108
      6 C6          0.0021   -0.0041    0.0020 C.ar      1 <0>        -0.0083
      7 C7         -1.2716   -0.7659    0.0106 C.2       1 <0>         0.2663
      8 N1         -2.4966   -0.2309    0.0203 N.2       1 <0>        -0.5087
      9 C8         -3.3993   -1.1883    0.0259 C.2       1 <0>         0.3349
     10 N2         -2.7503   -2.3757    0.0197 N.pl3     1 <0>        -0.4613
     11 H1         -3.1533   -3.2581    0.0214 H         1 <0>         0.4488
     12 N3         -1.3781   -2.0778    0.0041 N.2       1 <0>        -0.2785
     13 C9         -4.8676   -0.9995    0.0377 C.ar      1 <0>         0.0068
     14 C10        -5.7335   -2.0982    0.0492 C.ar      1 <0>        -0.1525
     15 C11        -7.0954   -1.8765    0.0599 C.ar      1 <0>         0.1090
     16 N4         -7.5822   -0.6505    0.0591 N.ar      1 <0>        -0.4690
     17 C12        -6.8012    0.4125    0.0485 C.ar      1 <0>         0.1070
     18 C13        -5.4274    0.2824    0.0436 C.ar      1 <0>        -0.1184
     19 N5          3.6972   -0.6837   -0.0374 N.pl3     1 <0>         0.0316
     20 O1          3.7192   -1.8925   -0.0441 O.2       1 <0>        -0.1546
     21 O2          4.7330   -0.0602   -0.0443 O.3       1 <0>        -0.1288
     22 Cl1         3.8680    2.3084   -0.0231 Cl        1 <0>         0.0043
     23 H2         -0.9588    1.9170    0.0260 H         1 <0>         0.1661
     24 H3          1.1566    3.1729    0.0077 H         1 <0>         0.1667
     25 H4          1.2404   -1.7596   -0.0196 H         1 <0>         0.1701
     26 H5         -5.3419   -3.1047    0.0492 H         1 <0>         0.1370
     27 H6         -7.7720   -2.7183    0.0688 H         1 <0>         0.1670
     28 H7         -7.2429    1.3980    0.0479 H         1 <0>         0.1686
     29 H8         -4.7940    1.1571    0.0400 H         1 <0>         0.1536
@<TRIPOS>BOND
     1    1    6 ar
     2    1    2 ar
     3    1   23 1
     4    2    3 ar
     5    2   24 1
     6    3    4 ar
     7    3   22 1
     8    4    5 ar
     9    4   19 1
    10    5    6 ar
    11    5   25 1
    12    6    7 1
    13    7   12 2
    14    7    8 1
    15    8    9 2
    16    9   10 1
    17    9   13 1
    18   10   11 1
    19   10   12 1
    20   13   18 ar
    21   13   14 ar
    22   14   15 ar
    23   14   26 1
    24   15   16 ar
    25   15   27 1
    26   16   17 ar
    27   17   18 ar
    28   17   28 1
    29   18   29 1
    30   19   20 2
    31   19   21 1
@<TRIPOS>MOLECULE
ZINC00005423
   37    38     0     0     0
SMALL
USER_CHARGES

@<TRIPOS>ATOM
      1 C1         -0.0184    1.5028    0.0103 C.3       1 <0>        -0.0698
      2 C2          0.0021   -0.0041    0.0020 C.2       1 <0>         0.0737
      3 C3          0.0061   -0.7320   -1.1851 C.2       1 <0>        -0.1974
      4 S1          0.0326   -2.3999   -0.5472 S.3       1 <0>         0.1540
      5 C4          0.0358   -2.0223    1.0928 C.2       1 <0>         0.0188
      6 N1          0.0225   -0.6984    1.1072 N.2       1 <0>        -0.5051
      7 C5          0.0538   -2.9482    2.2433 C.ar      1 <0>        -0.0234
      8 C6          0.0472   -2.4431    3.5478 C.ar      1 <0>        -0.0090
      9 C7          0.0640   -3.3020    4.6244 C.ar      1 <0>        -0.2087
     10 C8          0.0875   -4.6754    4.4231 C.ar      1 <0>         0.1817
     11 C9          0.0939   -5.1934    3.1190 C.ar      1 <0>        -0.0588
     12 C10         0.0716   -4.3245    2.0295 C.ar      1 <0>        -0.0183
     13 C11         0.1182   -6.6096    2.9084 C.1       1 <0>         0.2680
     14 N2          0.1375   -7.7331    2.7413 N.1       1 <0>        -0.4184
     15 O1          0.1048   -5.5164    5.4868 O.3       1 <0>        -0.3051
     16 C12         0.0976   -4.9202    6.7855 C.3       1 <0>         0.0586
     17 C13         0.1194   -6.0181    7.8509 C.3       1 <0>        -0.0954
     18 C14         0.2373   -5.3813    9.2370 C.3       1 <0>        -0.1462
     19 C15        -1.1741   -6.8314    7.7716 C.3       1 <0>        -0.1489
     20 C16        -0.0074   -0.2760   -2.5264 C.2       1 <0>         0.5531
     21 O2         -0.0258    0.9256   -2.7648 O.co2     1 <0>        -0.6595
     22 O3         -0.0008   -1.0833   -3.4480 O.co2     1 <0>        -0.6770
     23 H1          1.0042    1.8801    0.0026 H         1 <0>         0.0659
     24 H2         -0.5455    1.8639   -0.8728 H         1 <0>         0.0988
     25 H3         -0.5286    1.8543    0.9071 H         1 <0>         0.0571
     26 H4          0.0293   -1.3757    3.7114 H         1 <0>         0.1459
     27 H5          0.0591   -2.9055    5.6290 H         1 <0>         0.1425
     28 H6          0.0723   -4.7167    1.0233 H         1 <0>         0.1451
     29 H7          0.9768   -4.2861    6.8991 H         1 <0>         0.0691
     30 H8         -0.8028   -4.3173    6.9034 H         1 <0>         0.0694
     31 H9          0.9724   -6.6744    7.6788 H         1 <0>         0.0819
     32 H10        -0.6157   -4.7249    9.4091 H         1 <0>         0.0591
     33 H11         0.2529   -6.1634    9.9960 H         1 <0>         0.0646
     34 H12         1.1588   -4.8019    9.2935 H         1 <0>         0.0589
     35 H13        -1.2581   -7.2850    6.7841 H         1 <0>         0.0623
     36 H14        -1.1586   -7.6135    8.5306 H         1 <0>         0.0569
     37 H15        -2.0271   -6.1750    7.9437 H         1 <0>         0.0555
@<TRIPOS>BOND
     1    1    2 1
     2    1   23 1
     3    1   24 1
     4    1   25 1
     5    2    6 1
     6    2    3 2
     7    3    4 1
     8    3   20 1
     9    4    5 1
    10    5    6 2
    11    5    7 1
    12    7   12 ar
    13    7    8 ar
    14    8    9 ar
    15    8   26 1
    16    9   10 ar
    17    9   27 1
    18   10   11 ar
    19   10   15 1
    20   11   12 ar
    21   11   13 1
    22   12   28 1
    23   13   14 3
    24   15   16 1
    25   16   17 1
    26   16   29 1
    27   16   30 1
    28   17   18 1
    29   17   19 1
    30   17   31 1
    31   18   32 1
    32   18   33 1
    33   18   34 1
    34   19   35 1
    35   19   36 1
    36   19   37 1
    37   20   21 2
    38   20   22 1
@<TRIPOS>MOLECULE
ZINC13298313
   14    15     0     0     0
SMALL
USER_CHARGES

@<TRIPOS>ATOM
      1 C1         -0.0156    1.3003    0.0092 C.2       1 <0>         0.1322
      2 C2          1.3142    1.7608   -0.0010 C.2       1 <0>        -0.3439
      3 C3          2.1466    0.6305   -0.0151 C.2       1 <0>         0.3388
      4 N1          1.3284   -0.4537   -0.0131 N.pl3     1 <0>        -0.4509
      5 H1          1.6139   -1.3807   -0.0211 H         1 <0>         0.4488
      6 N2          0.0021   -0.0041    0.0020 N.2       1 <0>        -0.2651
      7 N3          3.4783    0.7987   -0.0265 N.2       1 <0>        -0.5375
      8 C4          4.0215    1.9806   -0.0249 C.2       1 <0>         0.4222
      9 N4          3.2972    3.1279   -0.0114 N.am      1 <0>        -0.6521
     10 H2          3.7507    3.9854   -0.0108 H         1 <0>         0.4267
     11 C5          1.9444    3.0809    0.0000 C.2       1 <0>         0.5744
     12 O1          1.2768    4.0999    0.0116 O.2       1 <0>        -0.5141
     13 H3         -0.8995    1.9206    0.0250 H         1 <0>         0.2012
     14 H4          5.0991    2.0521   -0.0345 H         1 <0>         0.2194
@<TRIPOS>BOND
     1    1    6 2
     2    1    2 1
     3    1   13 1
     4    2   11 1
     5    2    3 2
     6    3    4 1
     7    3    7 1
     8    4    5 1
     9    4    6 1
    10    7    8 2
    11    8    9 1
    12    8   14 1
    13    9   10 1
    14    9   11 am
    15   11   12 2
@<TRIPOS>MOLECULE
ZINC13298313
   13    14     0     0     0
SMALL
USER_CHARGES

@<TRIPOS>ATOM
      1 C1         -0.0126    1.0758    0.0080 C.2       1 <0>         0.1258
      2 C2          1.1221    1.9168    0.0016 C.ar      1 <0>        -0.3703
      3 C3          0.6506    3.2450    0.0127 C.ar      1 <0>         0.3560
      4 N1         -0.7107    3.1736    0.0251 N.pl3     1 <0>        -0.5016
      5 H1         -1.3194    3.9289    0.0346 H         1 <0>         0.4302
      6 N2         -1.0795    1.8225    0.0165 N.2       1 <0>        -0.3076
      7 N3          1.5352    4.2400    0.0089 N.ar      1 <0>        -0.6359
      8 C4          2.8259    3.9891   -0.0051 C.ar      1 <0>         0.3690
      9 N4          3.3127    2.7605   -0.0163 N.ar      1 <0>        -0.6420
     10 C5          2.5115    1.7032   -0.0128 C.ar      1 <0>         0.4964
     11 O1          3.0197    0.4485   -0.0233 O.3       1 <0>        -0.6778
     12 H2          0.0021   -0.0041    0.0020 H         1 <0>         0.1821
     13 H3          3.5156    4.8201   -0.0078 H         1 <0>         0.1757
@<TRIPOS>BOND
     1    1   12 1
     2    1    2 1
     3    1    6 2
     4    2   10 ar
     5    2    3 ar
     6    3    7 ar
     7    3    4 1
     8    4    5 1
     9    4    6 1
    10    7    8 ar
    11    8    9 ar
    12    8   13 1
    13    9   10 ar
    14   10   11 1
@<TRIPOS>MOLECULE
ZINC13298313
   13    14     0     0     0
SMALL
USER_CHARGES

@<TRIPOS>ATOM
      1 C1         -0.0161    1.3345    0.0094 C.2       1 <0>         0.1294
      2 C2          1.2909    1.7743   -0.0007 C.ar      1 <0>        -0.3581
      3 C3          1.9389    3.0325   -0.0006 C.ar      1 <0>         0.5139
      4 O1          1.2259    4.1812    0.0128 O.3       1 <0>        -0.6761
      5 N1          3.2620    3.0535   -0.0135 N.ar      1 <0>        -0.6737
      6 C4          3.9866    1.9444   -0.0263 C.ar      1 <0>         0.3828
      7 N2          3.4745    0.7401   -0.0275 N.ar      1 <0>        -0.6171
      8 C5          2.1384    0.5690   -0.0153 C.ar      1 <0>         0.3159
      9 N3          1.3242   -0.4640   -0.0131 N.2       1 <0>        -0.3404
     10 N4          0.0021   -0.0041    0.0020 N.pl3     1 <0>        -0.4588
     11 H1         -0.7846   -0.5715    0.0071 H         1 <0>         0.4331
     12 H2         -0.8973    1.9587    0.0252 H         1 <0>         0.1790
     13 H3          5.0624    2.0398   -0.0368 H         1 <0>         0.1700
@<TRIPOS>BOND
     1    1   10 1
     2    1    2 2
     3    1   12 1
     4    2    8 ar
     5    2    3 ar
     6    3    4 1
     7    3    5 ar
     8    5    6 ar
     9    6    7 ar
    10    6   13 1
    11    7    8 ar
    12    8    9 2
    13    9   10 1
    14   10   11 1
@<TRIPOS>MOLECULE
ZINC18185774
   31    33     0     0     0
SMALL
USER_CHARGES

@<TRIPOS>ATOM
      1 C1         -0.0169    1.3929    0.0097 C.ar      1 <0>        -0.0705
      2 C2          1.1675    2.0983    0.0022 C.ar      1 <0>        -0.1309
      3 C3          2.3803    1.4240   -0.0135 C.ar      1 <0>         0.1099
      4 C4          2.4067    0.0300   -0.0212 C.ar      1 <0>         0.0792
      5 C5          1.2240   -0.6832   -0.0138 C.ar      1 <0>        -0.0904
      6 C6          0.0021   -0.0041    0.0020 C.ar      1 <0>        -0.0661
      7 C7         -1.2642   -0.7606    0.0105 C.2       1 <0>         0.2069
      8 C8         -2.4374   -0.0724    0.0203 C.2       1 <0>        -0.3067
      9 C9         -3.6620   -0.7813    0.0286 C.2       1 <0>         0.4226
     10 O1         -4.7331   -0.1964    0.0371 O.2       1 <0>        -0.4521
     11 C10        -3.5935   -2.2524    0.0260 C.ar      1 <0>        -0.2661
     12 C11        -4.7554   -3.0344    0.0332 C.ar      1 <0>         0.2196
     13 C12        -4.6484   -4.4128    0.0300 C.ar      1 <0>        -0.2046
     14 C13        -3.3955   -5.0163    0.0203 C.ar      1 <0>         0.1928
     15 C14        -2.2415   -4.2483    0.0131 C.ar      1 <0>        -0.1829
     16 C15        -2.3286   -2.8648    0.0157 C.ar      1 <0>         0.1832
     17 O2         -1.2147   -2.1022    0.0028 O.3       1 <0>        -0.2181
     18 O3         -3.3016   -6.3705    0.0182 O.3       1 <0>        -0.4872
     19 O4         -5.9771   -2.4436    0.0436 O.3       1 <0>        -0.4722
     20 O5          3.5971   -0.6274   -0.0366 O.3       1 <0>        -0.4831
     21 O6          3.5446    2.1239   -0.0217 O.3       1 <0>        -0.4848
     22 H1         -0.9593    1.9201    0.0260 H         1 <0>         0.1451
     23 H2          1.1515    3.1781    0.0081 H         1 <0>         0.1468
     24 H3          1.2430   -1.7630   -0.0205 H         1 <0>         0.1466
     25 H4         -2.4342    1.0076    0.0222 H         1 <0>         0.1649
     26 H5         -5.5400   -5.0224    0.0355 H         1 <0>         0.1504
     27 H6         -1.2739   -4.7281    0.0059 H         1 <0>         0.1535
     28 H7         -3.2809   -6.7620   -0.8658 H         1 <0>         0.4041
     29 H8         -6.3379   -2.2705   -0.8367 H         1 <0>         0.4034
     30 H9          3.9502   -0.8223    0.8423 H         1 <0>         0.3919
     31 H10         3.8907    2.3221    0.8592 H         1 <0>         0.3948
@<TRIPOS>BOND
     1    1    6 ar
     2    1    2 ar
     3    1   22 1
     4    2    3 ar
     5    2   23 1
     6    3    4 ar
     7    3   21 1
     8    4    5 ar
     9    4   20 1
    10    5    6 ar
    11    5   24 1
    12    6    7 1
    13    7   17 1
    14    7    8 2
    15    8    9 1
    16    8   25 1
    17    9   10 2
    18    9   11 1
    19   11   16 ar
    20   11   12 ar
    21   12   13 ar
    22   12   19 1
    23   13   14 ar
    24   13   26 1
    25   14   15 ar
    26   14   18 1
    27   15   16 ar
    28   15   27 1
    29   16   17 1
    30   18   28 1
    31   19   29 1
    32   20   30 1
    33   21   31 1
@<TRIPOS>MOLECULE
ZINC12981580
   30    32     0     0     0
SMALL
USER_CHARGES
2-[(2-bromophenoxy)methyl]-7-methyl-[1,3,4]thiadiazolo[2,3-b]pyrimidin-5-one
@<TRIPOS>ATOM
      1 C1         -3.4850    3.4796    6.6025 C.3       1 <0>        -0.1063
      2 C2         -3.0778    3.1984    5.1790 C.2       1 <0>         0.2012
      3 C3         -3.8125    3.7019    4.1265 C.2       1 <0>        -0.2810
      4 C4         -3.4198    3.4302    2.8157 C.2       1 <0>         0.5412
      5 O1         -4.0662    3.8736    1.8792 O.2       1 <0>        -0.4926
      6 N1         -2.3113    2.6679    2.5816 N.am      1 <0>        -0.3832
      7 C5         -1.6416    2.2091    3.6827 C.2       1 <0>         0.3194
      8 N2         -2.0031    2.4593    4.9156 N.2       1 <0>        -0.4817
      9 S1         -0.3059    1.2811    2.9608 S.3       1 <0>         0.1313
     10 C6         -0.7181    1.5718    1.2479 C.2       1 <0>         0.1146
     11 N3         -1.7852    2.3050    1.3456 N.2       1 <0>        -0.2088
     12 C7         -0.0127    1.0858    0.0080 C.3       1 <0>         0.1554
     13 O2         -0.7038    1.5592   -1.1497 O.3       1 <0>        -0.2840
     14 C8         -0.1940    1.2075   -2.3595 C.ar      1 <0>         0.1517
     15 C9          0.9511    0.4278   -2.4309 C.ar      1 <0>        -0.2045
     16 C10         1.4645    0.0672   -3.6617 C.ar      1 <0>        -0.0627
     17 C11         0.8441    0.4914   -4.8224 C.ar      1 <0>        -0.1464
     18 C12        -0.2940    1.2733   -4.7548 C.ar      1 <0>        -0.0516
     19 C13        -0.8149    1.6326   -3.5258 C.ar      1 <0>        -0.1212
     20 Br1        -2.3713    2.7027   -3.4336 Br        1 <0>        -0.0260
     21 H1         -4.1650    2.7004    6.9466 H         1 <0>         0.0952
     22 H2         -2.5992    3.4952    7.2374 H         1 <0>         0.0892
     23 H3         -3.9853    4.4467    6.6529 H         1 <0>         0.0912
     24 H4         -4.6888    4.3041    4.3162 H         1 <0>         0.1737
     25 H5          0.0021   -0.0041    0.0020 H         1 <0>         0.1169
     26 H6          1.0099    1.4631    0.0003 H         1 <0>         0.1169
     27 H7          1.4386    0.0995   -1.5248 H         1 <0>         0.1386
     28 H8          2.3536   -0.5432   -3.7174 H         1 <0>         0.1356
     29 H9          1.2495    0.2117   -5.7836 H         1 <0>         0.1361
     30 H10        -0.7763    1.6040   -5.6628 H         1 <0>         0.1416
@<TRIPOS>BOND
     1    1    2 1
     2    1   21 1
     3    1   22 1
     4    1   23 1
     5    2    8 1
     6    2    3 2
     7    3    4 1
     8    3   24 1
     9    4    5 2
    10    4    6 am
    11    6   11 1
    12    6    7 1
    13    7    8 2
    14    7    9 1
    15    9   10 1
    16   10   11 2
    17   10   12 1
    18   12   13 1
    19   12   25 1
    20   12   26 1
    21   13   14 1
    22   14   19 ar
    23   14   15 ar
    24   15   16 ar
    25   15   27 1
    26   16   17 ar
    27   16   28 1
    28   17   18 ar
    29   17   29 1
    30   18   19 ar
    31   18   30 1
    32   19   20 1
@<TRIPOS>MOLECULE
ZINC66079020
   32    34     0     0     0
SMALL
USER_CHARGES

@<TRIPOS>ATOM
      1 C1         -0.0184    1.5028    0.0103 C.3       1 <0>        -0.1637
      2 C2          0.0021   -0.0041    0.0020 C.2       1 <0>         0.5518
      3 O1          0.0203   -0.6163    1.0493 O.2       1 <0>        -0.5129
      4 N1          0.0001   -0.6716   -1.1688 N.am      1 <0>        -0.4625
      5 C3          0.0127   -2.1353   -1.3192 C.3       1 <0>         0.1458
      6 H1         -0.8763   -2.5748   -0.8669 H         1 <0>         0.1103
      7 C4          0.0033   -2.3433   -2.8465 C.3       1 <0>        -0.1220
      8 C5         -0.0140   -0.9387   -3.4059 C.2       1 <0>         0.1777
      9 N2         -0.0203   -0.0882   -2.4340 N.2       1 <0>        -0.2193
     10 C6         -0.0271   -0.5953   -4.8311 C.2       1 <0>         0.0216
     11 C7         -0.0373    0.6662   -5.3518 C.2       1 <0>        -0.1360
     12 C8         -0.0478    0.5259   -6.7518 C.2       1 <0>        -0.2181
     13 C9         -0.0436   -0.7964   -7.0179 C.2       1 <0>        -0.0062
     14 O2         -0.0252   -1.4704   -5.8566 O.3       1 <0>        -0.1646
     15 C10         1.2603   -2.7201   -0.7090 C.ar      1 <0>        -0.0472
     16 C11         2.4789   -2.0688   -0.8236 C.ar      1 <0>        -0.1571
     17 C12         3.6019   -2.6356   -0.2510 C.ar      1 <0>         0.1039
     18 N3          3.5233   -3.7812    0.3974 N.ar      1 <0>        -0.4801
     19 C13         2.3815   -4.4282    0.5261 C.ar      1 <0>         0.1041
     20 C14         1.2158   -3.9195   -0.0147 C.ar      1 <0>        -0.1528
     21 H2          1.0042    1.8801    0.0026 H         1 <0>         0.0983
     22 H3         -0.5455    1.8639   -0.8728 H         1 <0>         0.0921
     23 H4         -0.5286    1.8543    0.9071 H         1 <0>         0.0963
     24 H5          0.9020   -2.8709   -3.1660 H         1 <0>         0.1111
     25 H6         -0.8900   -2.8877   -3.1527 H         1 <0>         0.1154
     26 H7         -0.0375    1.5927   -4.7969 H         1 <0>         0.1598
     27 H8         -0.0580    1.3262   -7.4768 H         1 <0>         0.1581
     28 H9         -0.0494   -1.2399   -8.0026 H         1 <0>         0.2131
     29 H10         2.5498   -1.1307   -1.3539 H         1 <0>         0.1272
     30 H11         4.5549   -2.1345   -0.3357 H         1 <0>         0.1576
     31 H12         2.3562   -5.3644    1.0639 H         1 <0>         0.1603
     32 H13         0.2828   -4.4516    0.0983 H         1 <0>         0.1380
@<TRIPOS>BOND
     1    1    2 1
     2    1   21 1
     3    1   22 1
     4    1   23 1
     5    2    3 2
     6    2    4 am
     7    4    9 1
     8    4    5 1
     9    5    6 1
    10    5    7 1
    11    5   15 1
    12    7    8 1
    13    7   24 1
    14    7   25 1
    15    8    9 2
    16    8   10 1
    17   10   14 1
    18   10   11 2
    19   11   12 1
    20   11   26 1
    21   12   13 2
    22   12   27 1
    23   13   14 1
    24   13   28 1
    25   15   20 ar
    26   15   16 ar
    27   16   17 ar
    28   16   29 1
    29   17   18 ar
    30   17   30 1
    31   18   19 ar
    32   19   20 ar
    33   19   31 1
    34   20   32 1
@<TRIPOS>MOLECULE
ZINC66079022
   32    34     0     0     0
SMALL
USER_CHARGES

@<TRIPOS>ATOM
      1 C1         -0.0184    1.5028    0.0103 C.3       1 <0>        -0.1637
      2 C2          0.0021   -0.0041    0.0020 C.2       1 <0>         0.5519
      3 O1          0.0203   -0.6163    1.0493 O.2       1 <0>        -0.5130
      4 N1          0.0001   -0.6716   -1.1688 N.am      1 <0>        -0.4625
      5 C3          0.0127   -2.1353   -1.3192 C.3       1 <0>         0.1458
      6 H1          0.9163   -2.5580   -0.8802 H         1 <0>         0.1104
      7 C4          0.0033   -2.3433   -2.8465 C.3       1 <0>        -0.1221
      8 C5         -0.0140   -0.9387   -3.4059 C.2       1 <0>         0.1777
      9 N2         -0.0203   -0.0882   -2.4340 N.2       1 <0>        -0.2193
     10 C6         -0.0271   -0.5953   -4.8311 C.2       1 <0>         0.0216
     11 C7         -0.0373    0.6662   -5.3518 C.2       1 <0>        -0.1360
     12 C8         -0.0478    0.5259   -6.7518 C.2       1 <0>        -0.2181
     13 C9         -0.0436   -0.7964   -7.0179 C.2       1 <0>        -0.0062
     14 O2         -0.0252   -1.4704   -5.8566 O.3       1 <0>        -0.1646
     15 C10        -1.2146   -2.7433   -0.6906 C.ar      1 <0>        -0.0473
     16 C11        -2.4489   -2.1207   -0.7968 C.ar      1 <0>        -0.1574
     17 C12        -3.5524   -2.7081   -0.2073 C.ar      1 <0>         0.1040
     18 N3         -3.4405   -3.8459    0.4499 N.ar      1 <0>        -0.4802
     19 C13        -2.2829   -4.4658    0.5710 C.ar      1 <0>         0.1043
     20 C14        -1.1374   -3.9415    0.0027 C.ar      1 <0>        -0.1529
     21 H2          1.0042    1.8801    0.0026 H         1 <0>         0.0991
     22 H3         -0.5455    1.8639   -0.8728 H         1 <0>         0.0917
     23 H4         -0.5286    1.8543    0.9071 H         1 <0>         0.0960
     24 H5          0.9020   -2.8709   -3.1660 H         1 <0>         0.1152
     25 H6         -0.8900   -2.8877   -3.1527 H         1 <0>         0.1113
     26 H7         -0.0375    1.5927   -4.7969 H         1 <0>         0.1598
     27 H8         -0.0580    1.3262   -7.4768 H         1 <0>         0.1581
     28 H9         -0.0494   -1.2399   -8.0026 H         1 <0>         0.2131
     29 H10        -2.5468   -1.1884   -1.3331 H         1 <0>         0.1273
     30 H11        -4.5174   -2.2295   -0.2854 H         1 <0>         0.1577
     31 H12        -2.2302   -5.3960    1.1171 H         1 <0>         0.1603
     32 H13        -0.1931   -4.4564    0.1012 H         1 <0>         0.1379
@<TRIPOS>BOND
     1    1    2 1
     2    1   21 1
     3    1   22 1
     4    1   23 1
     5    2    3 2
     6    2    4 am
     7    4    9 1
     8    4    5 1
     9    5    6 1
    10    5    7 1
    11    5   15 1
    12    7    8 1
    13    7   24 1
    14    7   25 1
    15    8    9 2
    16    8   10 1
    17   10   14 1
    18   10   11 2
    19   11   12 1
    20   11   26 1
    21   12   13 2
    22   12   27 1
    23   13   14 1
    24   13   28 1
    25   15   20 ar
    26   15   16 ar
    27   16   17 ar
    28   16   29 1
    29   17   18 ar
    30   17   30 1
    31   18   19 ar
    32   19   20 ar
    33   19   31 1
    34   20   32 1
@<TRIPOS>MOLECULE
ZINC27988410
   34    35     0     0     0
SMALL
USER_CHARGES
1-(4-isobutoxyphenyl)pyrazole-4-carboxylic acid
@<TRIPOS>ATOM
      1 C1         -4.8927    4.7207   -1.2356 C.3       1 <0>        -0.1491
      2 C2         -4.8364    3.9206    0.0673 C.3       1 <0>        -0.0946
      3 C3         -6.1034    3.0733    0.2006 C.3       1 <0>        -0.1482
      4 C4         -3.6103    3.0056    0.0513 C.3       1 <0>         0.0600
      5 O1         -2.4228    3.8004    0.0442 O.3       1 <0>        -0.3125
      6 C5         -1.2363    3.1372    0.0297 C.ar      1 <0>         0.1093
      7 C6         -1.2174    1.7499    0.0173 C.ar      1 <0>        -0.1838
      8 C7         -0.0126    1.0758    0.0080 C.ar      1 <0>        -0.0852
      9 C8          1.1802    1.7865    0.0004 C.ar      1 <0>         0.1411
     10 C9          1.1607    3.1748    0.0075 C.ar      1 <0>        -0.1069
     11 C10        -0.0446    3.8479    0.0222 C.ar      1 <0>        -0.1217
     12 N1          2.4044    1.1022   -0.0140 N.pl3     1 <0>        -0.3279
     13 C11         3.6226    1.6714   -0.0279 C.2       1 <0>         0.0705
     14 C12         4.5545    0.6512   -0.0363 C.2       1 <0>        -0.2421
     15 C13         3.8384   -0.5677   -0.0358 C.2       1 <0>         0.0998
     16 N2          2.5641   -0.2879   -0.0225 N.2       1 <0>        -0.3198
     17 C14         6.0190    0.8048   -0.0492 C.2       1 <0>         0.5215
     18 O2          6.5136    1.9149   -0.0487 O.co2     1 <0>        -0.6399
     19 O3          6.8108   -0.2856   -0.0616 O.co2     1 <0>        -0.7580
     20 H1         -3.9818    5.3299   -1.3314 H         1 <0>         0.0640
     21 H2         -5.7742    5.3786   -1.2241 H         1 <0>         0.0561
     22 H3         -4.9625    4.0289   -2.0880 H         1 <0>         0.0543
     23 H4         -4.7665    4.6124    0.9197 H         1 <0>         0.0816
     24 H5         -6.0629    2.4981    1.1373 H         1 <0>         0.0583
     25 H6         -6.1732    2.3815   -0.6518 H         1 <0>         0.0584
     26 H7         -6.9849    3.7312    0.2121 H         1 <0>         0.0644
     27 H8         -3.6182    2.3663    0.9464 H         1 <0>         0.0624
     28 H9         -3.6349    2.3752   -0.8498 H         1 <0>         0.0629
     29 H10        -2.1453    1.1973    0.0187 H         1 <0>         0.1325
     30 H11         0.0021   -0.0041    0.0020 H         1 <0>         0.1402
     31 H12         2.0882    3.7280    0.0013 H         1 <0>         0.1398
     32 H13        -0.0599    4.9277    0.0281 H         1 <0>         0.1386
     33 H14         3.8337    2.7305   -0.0297 H         1 <0>         0.1801
     34 H15         4.2706   -1.5574   -0.0442 H         1 <0>         0.1937
@<TRIPOS>BOND
     1    1    2 1
     2    1   20 1
     3    1   21 1
     4    1   22 1
     5    2    3 1
     6    2    4 1
     7    2   23 1
     8    3   24 1
     9    3   25 1
    10    3   26 1
    11    4    5 1
    12    4   27 1
    13    4   28 1
    14    5    6 1
    15    6   11 ar
    16    6    7 ar
    17    7    8 ar
    18    7   29 1
    19    8    9 ar
    20    8   30 1
    21    9   10 ar
    22    9   12 1
    23   10   11 ar
    24   10   31 1
    25   11   32 1
    26   12   16 1
    27   12   13 1
    28   13   14 2
    29   13   33 1
    30   14   15 1
    31   14   17 1
    32   15   16 2
    33   15   34 1
    34   17   18 2
    35   17   19 1
@<TRIPOS>MOLECULE
ZINC00007343
   38    39     0     0     0
SMALL
USER_CHARGES
1-(3-cyano-4-neopentyloxy-phenyl)pyrazole-4-carboxylic acid
@<TRIPOS>ATOM
      1 C1          1.4167    2.0553   -0.0004 C.3       1 <0>        -0.1424
      2 C2         -0.0187    1.5258    0.0104 C.3       1 <0>        -0.0661
      3 C3         -0.7587    2.0326   -1.2291 C.3       1 <0>        -0.1418
      4 C4         -0.7348    2.0192    1.2692 C.3       1 <0>        -0.1425
      5 C5          0.0021   -0.0041    0.0020 C.3       1 <0>         0.0640
      6 O1          0.6932   -0.4774    1.1597 O.3       1 <0>        -0.3021
      7 C6          0.8019   -1.8226    1.3055 C.ar      1 <0>         0.1593
      8 C7          0.2502   -2.6712    0.3577 C.ar      1 <0>        -0.1791
      9 C8          0.3646   -4.0391    0.5012 C.ar      1 <0>        -0.0746
     10 C9          1.0231   -4.5771    1.6018 C.ar      1 <0>         0.1448
     11 C10         1.5739   -3.7425    2.5590 C.ar      1 <0>        -0.0410
     12 C11         1.4670   -2.3573    2.4174 C.ar      1 <0>        -0.0393
     13 C12         2.0338   -1.4874    3.4036 C.1       1 <0>         0.2694
     14 N1          2.4834   -0.7973    4.1860 N.1       1 <0>        -0.4168
     15 N2          1.1298   -5.9686    1.7419 N.pl3     1 <0>        -0.3314
     16 C13         0.6362   -6.8843    0.8899 C.2       1 <0>         0.0702
     17 C14         0.9588   -8.1308    1.3914 C.2       1 <0>        -0.2375
     18 C15         1.6672   -7.9244    2.5973 C.2       1 <0>         0.1044
     19 N3          1.7626   -6.6383    2.7951 N.2       1 <0>        -0.3178
     20 C16         0.6231   -9.4306    0.7860 C.2       1 <0>         0.5208
     21 O2          0.0058   -9.4724   -0.2600 O.co2     1 <0>        -0.6392
     22 H1          1.9269    1.7038   -0.8972 H         1 <0>         0.0554
     23 H2          1.4019    3.1452    0.0056 H         1 <0>         0.0566
     24 H3          1.9439    1.6943    0.8826 H         1 <0>         0.0633
     25 H4         -1.7813    1.6553   -1.2214 H         1 <0>         0.0592
     26 H5         -0.7734    3.1225   -1.2231 H         1 <0>         0.0648
     27 H6         -0.2485    1.6811   -2.1259 H         1 <0>         0.0592
     28 H7         -0.2076    1.6581    2.1523 H         1 <0>         0.0633
     29 H8         -0.7496    3.1091    1.2752 H         1 <0>         0.0567
     30 H9         -1.7574    1.6419    1.2770 H         1 <0>         0.0554
     31 H10        -1.0205   -0.3814    0.0098 H         1 <0>         0.0687
     32 H11         0.5123   -0.3556   -0.8948 H         1 <0>         0.0688
     33 H12        -0.2668   -2.2606   -0.4970 H         1 <0>         0.1467
     34 H13        -0.0635   -4.6951   -0.2423 H         1 <0>         0.1449
     35 H14         2.0853   -4.1615    3.4130 H         1 <0>         0.1548
     36 H15         0.0903   -6.6827   -0.0199 H         1 <0>         0.1816
     37 H16         2.0610   -8.6964    3.2417 H         1 <0>         0.1953
     38 O3          1.0003  -10.5736    1.3920 O.co2     1 <0>        -0.7561
@<TRIPOS>BOND
     1    1    2 1
     2    1   22 1
     3    1   23 1
     4    1   24 1
     5    2    3 1
     6    2    4 1
     7    2    5 1
     8    3   25 1
     9    3   26 1
    10    3   27 1
    11    4   28 1
    12    4   29 1
    13    4   30 1
    14    5    6 1
    15    5   31 1
    16    5   32 1
    17    6    7 1
    18    7   12 ar
    19    7    8 ar
    20    8    9 ar
    21    8   33 1
    22    9   10 ar
    23    9   34 1
    24   10   11 ar
    25   10   15 1
    26   11   12 ar
    27   11   35 1
    28   12   13 1
    29   13   14 3
    30   15   19 1
    31   15   16 1
    32   16   17 2
    33   16   36 1
    34   17   18 1
    35   17   20 1
    36   18   19 2
    37   18   37 1
    38   20   21 2
    39   20   38 1
@<TRIPOS>MOLECULE
ZINC27990140
   22    23     0     0     0
SMALL
USER_CHARGES
1-(3-cyanophenyl)pyrazole-4-carboxylic acid
@<TRIPOS>ATOM
      1 C1         -1.2169    1.7497    0.0173 C.ar      1 <0>        -0.0882
      2 C2         -0.0126    1.0758    0.0080 C.ar      1 <0>        -0.0935
      3 C3          1.1870    1.7906    0.0003 C.ar      1 <0>        -0.0059
      4 C4          1.1621    3.1858    0.0076 C.ar      1 <0>        -0.0813
      5 C5         -0.0525    3.8523    0.0223 C.ar      1 <0>         0.1826
      6 C6         -1.2408    3.1317    0.0298 C.ar      1 <0>        -0.1198
      7 N1         -0.0828    5.2537    0.0301 N.pl3     1 <0>        -0.3362
      8 C7         -1.1909    6.0159    0.0389 C.2       1 <0>         0.0712
      9 C8         -0.7835    7.3359    0.0466 C.2       1 <0>        -0.2357
     10 C9          0.6302    7.3361    0.0336 C.2       1 <0>         0.1065
     11 N2          1.0347    6.0959    0.0239 N.2       1 <0>        -0.3174
     12 C10        -1.6580    8.5208    0.0604 C.2       1 <0>         0.5205
     13 O1         -2.8656    8.3847    0.0704 O.co2     1 <0>        -0.6380
     14 O2         -1.1191    9.7560    0.0619 O.co2     1 <0>        -0.7553
     15 C11         2.4382    1.0943   -0.0144 C.1       1 <0>         0.2601
     16 N3          3.4308    0.5419   -0.0260 N.1       1 <0>        -0.4163
     17 H1         -2.1438    1.1954    0.0190 H         1 <0>         0.1430
     18 H2          0.0021   -0.0041    0.0020 H         1 <0>         0.1360
     19 H3          2.0865    3.7443    0.0014 H         1 <0>         0.1473
     20 H4         -2.1864    3.6534    0.0416 H         1 <0>         0.1412
     21 H5         -2.2111    5.6614    0.0418 H         1 <0>         0.1831
     22 H6          1.2645    8.2102    0.0323 H         1 <0>         0.1962
@<TRIPOS>BOND
     1    1    6 ar
     2    1    2 ar
     3    1   17 1
     4    2    3 ar
     5    2   18 1
     6    3    4 ar
     7    3   15 1
     8    4    5 ar
     9    4   19 1
    10    5    6 ar
    11    5    7 1
    12    6   20 1
    13    7   11 1
    14    7    8 1
    15    8    9 2
    16    8   21 1
    17    9   10 1
    18    9   12 1
    19   10   11 2
    20   10   22 1
    21   12   13 2
    22   12   14 1
    23   15   16 3
@<TRIPOS>MOLECULE
ZINC04098600
   32    34     0     0     0
SMALL
USER_CHARGES

@<TRIPOS>ATOM
      1 C1          0.0035    1.4143    0.3090 C.ar      1 <0>        -0.1753
      2 C2          1.1546    2.0982    0.0380 C.ar      1 <0>        -0.0066
      3 C3          2.3728    1.4186    0.0060 C.ar      1 <0>        -0.2364
      4 C4          2.4188    0.0351    0.2513 C.ar      1 <0>         0.1715
      5 C5          1.2411   -0.6453    0.5256 C.ar      1 <0>        -0.1742
      6 C6          0.0397    0.0435    0.5533 C.ar      1 <0>         0.1827
      7 O1         -1.1122   -0.6230    0.8218 O.3       1 <0>        -0.4901
      8 O2          3.6005   -0.6147    0.2177 O.3       1 <0>        -0.1992
      9 C7          4.7589    0.0138   -0.0453 C.2       1 <0>         0.1338
     10 C8          4.8242    1.3523   -0.2962 C.2       1 <0>        -0.0396
     11 C9          3.6345    2.1235   -0.2835 C.2       1 <0>         0.4005
     12 O3          3.6543    3.3238   -0.5035 O.2       1 <0>        -0.4599
     13 O4          6.0219    1.9435   -0.5570 O.3       1 <0>        -0.4480
     14 C10         6.0055   -0.7732   -0.0625 C.ar      1 <0>        -0.0250
     15 C11         7.1319   -0.3160    0.6273 C.ar      1 <0>        -0.0860
     16 C12         8.2993   -1.0565    0.6097 C.ar      1 <0>         0.0962
     17 C13         8.3537   -2.2563   -0.0941 C.ar      1 <0>         0.0757
     18 C14         7.2335   -2.7143   -0.7820 C.ar      1 <0>         0.0946
     19 C15         6.0616   -1.9809   -0.7638 C.ar      1 <0>        -0.1045
     20 O5          7.2905   -3.8868   -1.4688 O.3       1 <0>        -0.4806
     21 O6          9.5033   -2.9822   -0.1099 O.3       1 <0>        -0.4736
     22 O7          9.3959   -0.6120    1.2802 O.3       1 <0>        -0.4791
     23 H1         -0.9393    1.9402    0.3384 H         1 <0>         0.1456
     24 H2          1.1218    3.1610   -0.1511 H         1 <0>         0.1493
     25 H3          1.2610   -1.7082    0.7157 H         1 <0>         0.1532
     26 H4         -1.5562   -0.9727    0.0372 H         1 <0>         0.4040
     27 H5          5.9634    2.8945   -0.7218 H         1 <0>         0.4090
     28 H6          7.0905    0.6150    1.1732 H         1 <0>         0.1468
     29 H7          5.1915   -2.3390   -1.2940 H         1 <0>         0.1440
     30 H8          7.0420   -4.6614   -0.9460 H         1 <0>         0.3916
     31 H9          9.5710   -3.6274    0.6071 H         1 <0>         0.3882
     32 H10         9.4480   -0.9185    2.1959 H         1 <0>         0.3914
@<TRIPOS>BOND
     1    1    6 ar
     2    1    2 ar
     3    1   23 1
     4    2    3 ar
     5    2   24 1
     6    3   11 1
     7    3    4 ar
     8    4    5 ar
     9    4    8 1
    10    5    6 ar
    11    5   25 1
    12    6    7 1
    13    7   26 1
    14    8    9 1
    15    9   10 2
    16    9   14 1
    17   10   11 1
    18   10   13 1
    19   11   12 2
    20   13   27 1
    21   14   19 ar
    22   14   15 ar
    23   15   16 ar
    24   15   28 1
    25   16   17 ar
    26   16   22 1
    27   17   18 ar
    28   17   21 1
    29   18   19 ar
    30   18   20 1
    31   19   29 1
    32   20   30 1
    33   21   31 1
    34   22   32 1
@<TRIPOS>MOLECULE
ZINC28098690
   20    21     0     0     0
SMALL
USER_CHARGES

@<TRIPOS>ATOM
      1 C1         -0.0178    1.4608    0.0101 C.3       1 <0>         0.0745
      2 N1          0.0021   -0.0041    0.0020 N.pl3     1 <0>        -0.4434
      3 C2          0.0080   -0.7841   -1.1269 C.2       1 <0>        -0.0058
      4 C3          0.0279   -2.0816   -0.7792 C.2       1 <0>        -0.1113
      5 C4          0.0351   -2.1249    0.6821 C.2       1 <0>        -0.3232
      6 C5          0.0233   -0.7916    1.1156 C.2       1 <0>         0.3447
      7 N2          0.0317   -0.5323    2.4314 N.2       1 <0>        -0.5909
      8 C6          0.0534   -1.5028    3.3161 C.2       1 <0>         0.6541
      9 N3          0.0687   -2.8165    2.9514 N.am      1 <0>        -0.6631
     10 C7          0.0540   -3.1592    1.6432 C.2       1 <0>         0.5844
     11 O1          0.0686   -4.3296    1.3028 O.2       1 <0>        -0.5318
     12 N4          0.0616   -1.1842    4.6509 N.pl3     1 <0>        -0.8231
     13 H1          1.0048    1.8381    0.0023 H         1 <0>         0.0736
     14 H2         -0.5450    1.8219   -0.8730 H         1 <0>         0.0863
     15 H3         -0.5280    1.8123    0.9069 H         1 <0>         0.0877
     16 H4         -0.0019   -0.4117   -2.1406 H         1 <0>         0.1777
     17 H5          0.0368   -2.9285   -1.4493 H         1 <0>         0.1517
     18 H6          0.0513   -0.2546    4.9278 H         1 <0>         0.4277
     19 H7          0.0776   -1.8886    5.3176 H         1 <0>         0.4159
     20 H8          0.0850   -3.5073    3.6322 H         1 <0>         0.4143
@<TRIPOS>BOND
     1    1    2 1
     2    1   13 1
     3    1   14 1
     4    1   15 1
     5    2    6 1
     6    2    3 1
     7    3    4 2
     8    3   16 1
     9    4    5 1
    10    4   17 1
    11    5   10 1
    12    5    6 2
    13    6    7 1
    14    7    8 2
    15    8    9 1
    16    8   12 1
    17    9   10 am
    18    9   20 1
    19   10   11 2
    20   12   18 1
    21   12   19 1
@<TRIPOS>MOLECULE
ZINC18187616
   17    18     0     0     0
SMALL
USER_CHARGES

@<TRIPOS>ATOM
      1 C1         -0.0177    1.4577    0.0101 C.2       1 <0>        -0.1128
      2 C2          1.2635    1.8612   -0.0000 C.2       1 <0>        -0.0034
      3 N1          2.0916    0.7671   -0.0138 N.pl3     1 <0>        -0.5493
      4 H1          3.0609    0.8037   -0.0224 H         1 <0>         0.4206
      5 C3          1.3527   -0.3796   -0.0129 C.2       1 <0>         0.3463
      6 C4          0.0021   -0.0041    0.0020 C.2       1 <0>        -0.3228
      7 C5         -0.9899   -1.0091    0.0054 C.2       1 <0>         0.5837
      8 O1         -2.1740   -0.7197    0.0178 O.2       1 <0>        -0.5309
      9 N2         -0.5912   -2.3013   -0.0060 N.am      1 <0>        -0.6627
     10 H2         -1.2521   -3.0114   -0.0040 H         1 <0>         0.4148
     11 C6          0.7370   -2.6088   -0.0207 C.2       1 <0>         0.6555
     12 N3          1.6686   -1.6829   -0.0236 N.2       1 <0>        -0.5931
     13 N4          1.1129   -3.9287   -0.0320 N.pl3     1 <0>        -0.8224
     14 H3         -0.8928    2.0905    0.0258 H         1 <0>         0.1515
     15 H4          1.5919    2.8901    0.0018 H         1 <0>         0.1805
     16 H5          0.4378   -4.6252   -0.0295 H         1 <0>         0.4162
     17 H6          2.0536   -4.1650   -0.0426 H         1 <0>         0.4282
@<TRIPOS>BOND
     1    1    6 1
     2    1    2 2
     3    1   14 1
     4    2    3 1
     5    2   15 1
     6    3    4 1
     7    3    5 1
     8    5   12 1
     9    5    6 2
    10    6    7 1
    11    7    8 2
    12    7    9 am
    13    9   10 1
    14    9   11 1
    15   11   12 2
    16   11   13 1
    17   13   16 1
    18   13   17 1
@<TRIPOS>MOLECULE
ZINC18187616
   17    18     0     0     0
SMALL
USER_CHARGES

@<TRIPOS>ATOM
      1 C1         -0.0184    1.5029    0.0103 C.2       1 <0>        -0.0867
      2 C2          1.2645    1.8693    0.0000 C.2       1 <0>        -0.0172
      3 N1          2.1042    0.8034   -0.0532 N.pl3     1 <0>        -0.4926
      4 C3          1.4869   -0.3017   -0.2249 C.cat     1 <0>         0.4743
      5 C4          0.0021   -0.0041    0.0020 C.3       1 <0>        -0.1646
      6 H1         -0.3603   -0.4197    0.9423 H         1 <0>         0.1936
      7 C5         -0.7012   -0.5984   -1.1916 C.2       1 <0>         0.5320
      8 O1         -1.7711   -0.1558   -1.5613 O.2       1 <0>        -0.5230
      9 N2         -0.1311   -1.6161   -1.8350 N.2       1 <0>        -0.7073
     10 C6          1.0538   -2.1270   -1.5624 C.2       1 <0>         0.5746
     11 N3          1.8639   -1.5767   -0.5835 N.pl3     1 <0>        -0.6223
     12 N4          1.4885   -3.2155   -2.2562 N.2       1 <0>        -0.7826
     13 H2         -0.8849    2.1473    0.0259 H         1 <0>         0.1955
     14 H3          1.5972    2.8964    0.0306 H         1 <0>         0.2046
     15 H4          2.6194   -2.0414   -0.1910 H         1 <0>         0.4348
     16 H5          0.9280   -3.6079   -2.9438 H         1 <0>         0.3519
     17 H6          3.0681    0.8736    0.0298 H         1 <0>         0.4351
@<TRIPOS>BOND
     1    1    5 1
     2    1    2 2
     3    1   13 1
     4    2    3 1
     5    2   14 1
     6    3    4 2
     7    3   17 1
     8    4   11 1
     9    4    5 1
    10    5    6 1
    11    5    7 1
    12    7    8 2
    13    7    9 1
    14    9   10 2
    15   10   11 1
    16   10   12 1
    17   11   15 1
    18   12   16 1
@<TRIPOS>MOLECULE
ZINC18187616
   17    18     0     0     0
SMALL
USER_CHARGES

@<TRIPOS>ATOM
      1 C1         -0.0184    1.5029    0.0103 C.2       1 <0>        -0.0868
      2 C2          1.2645    1.8693    0.0000 C.2       1 <0>        -0.0171
      3 N1          2.1050    0.8030    0.0258 N.pl3     1 <0>        -0.4926
      4 C3          1.4909   -0.3040    0.1973 C.cat     1 <0>         0.4743
      5 C4          0.0021   -0.0041    0.0020 C.3       1 <0>        -0.1646
      6 H1         -0.3782   -0.4096   -0.9356 H         1 <0>         0.1936
      7 C5         -0.6784   -0.6112    1.2024 C.2       1 <0>         0.5320
      8 O1         -1.7413   -0.1733    1.5967 O.2       1 <0>        -0.5230
      9 N2         -0.0962   -1.6357    1.8238 N.2       1 <0>        -0.7073
     10 C6          1.0833   -2.1435    1.5231 C.2       1 <0>         0.5745
     11 N3          1.8746   -1.5827    0.5350 N.pl3     1 <0>        -0.6222
     12 N4          1.5310   -3.2394    2.1969 N.2       1 <0>        -0.7827
     13 H2         -0.8849    2.1473    0.0259 H         1 <0>         0.1955
     14 H3          1.5966    2.8967   -0.0258 H         1 <0>         0.2046
     15 H4          2.6221   -2.0434    0.1227 H         1 <0>         0.4348
     16 H5          0.9837   -3.6393    2.8908 H         1 <0>         0.3519
     17 H6          3.0671    0.8741   -0.0754 H         1 <0>         0.4351
@<TRIPOS>BOND
     1    1    5 1
     2    1    2 2
     3    1   13 1
     4    2    3 1
     5    2   14 1
     6    3    4 2
     7    3   17 1
     8    4   11 1
     9    4    5 1
    10    5    6 1
    11    5    7 1
    12    7    8 2
    13    7    9 1
    14    9   10 2
    15   10   11 1
    16   10   12 1
    17   11   15 1
    18   12   16 1
@<TRIPOS>MOLECULE
ZINC18187616
   17    18     0     0     0
SMALL
USER_CHARGES

@<TRIPOS>ATOM
      1 C1         -0.0184    1.5054    0.0103 C.3       1 <0>        -0.0959
      2 C2          1.4540    1.8671   -0.0018 C.2       1 <0>         0.1940
      3 N1          2.1224    0.7667   -0.0141 N.2       1 <0>        -0.4814
      4 C3          1.3477   -0.3543   -0.0127 C.2       1 <0>         0.3807
      5 C4          0.0021   -0.0041    0.0020 C.2       1 <0>        -0.3786
      6 C5         -0.9772   -0.9935    0.0057 C.2       1 <0>         0.5742
      7 O1         -2.1617   -0.6996    0.0181 O.2       1 <0>        -0.5356
      8 N2         -0.5854   -2.2880   -0.0054 N.am      1 <0>        -0.6536
      9 H1         -1.2474   -2.9970   -0.0035 H         1 <0>         0.4176
     10 C6          0.7412   -2.5922   -0.0197 C.2       1 <0>         0.6548
     11 N3          1.6691   -1.6613   -0.0232 N.2       1 <0>        -0.5724
     12 N4          1.1207   -3.9082   -0.0308 N.pl3     1 <0>        -0.8156
     13 H2         -0.4997    1.8793    0.9140 H         1 <0>         0.1263
     14 H3         -0.5168    1.8889   -0.8799 H         1 <0>         0.1263
     15 H4          1.8666    2.8651   -0.0007 H         1 <0>         0.2096
     16 H5          0.4480   -4.6070   -0.0284 H         1 <0>         0.4179
     17 H6          2.0622   -4.1414   -0.0410 H         1 <0>         0.4317
@<TRIPOS>BOND
     1    1    5 1
     2    1    2 1
     3    1   13 1
     4    1   14 1
     5    2    3 2
     6    2   15 1
     7    3    4 1
     8    4   11 1
     9    4    5 2
    10    5    6 1
    11    6    7 2
    12    6    8 am
    13    8    9 1
    14    8   10 1
    15   10   11 2
    16   10   12 1
    17   12   16 1
    18   12   17 1
@<TRIPOS>MOLECULE
ZINC03870887
   38    40     0     0     0
SMALL
USER_CHARGES
5,7-dihydroxy-2-(4-hydroxyphenyl)-3,6-dimethoxy-chromen-4-one
@<TRIPOS>ATOM
      1 C1         -5.3015    7.9554    0.9531 C.3       1 <0>         0.0285
      2 O1         -4.0573    7.9279    0.2506 O.3       1 <0>        -0.3035
      3 C2         -3.0641    7.1634    0.7823 C.ar      1 <0>        -0.0307
      4 C3         -2.1721    7.7195    1.6982 C.ar      1 <0>         0.2526
      5 C4         -1.1565    6.9541    2.2476 C.ar      1 <0>        -0.2754
      6 C5         -1.0182    5.6216    1.8891 C.ar      1 <0>         0.2231
      7 C6         -1.9158    5.0567    0.9661 C.ar      1 <0>        -0.3513
      8 C7         -2.9413    5.8341    0.4130 C.ar      1 <0>         0.2861
      9 O2         -3.8085    5.2887   -0.4791 O.3       1 <0>        -0.4884
     10 C8         -1.7506    3.6406    0.6010 C.2       1 <0>         0.4298
     11 O3         -2.5015    3.0992   -0.1948 O.2       1 <0>        -0.4761
     12 C9         -0.6852    2.9291    1.2103 C.2       1 <0>        -0.0916
     13 C10         0.1269    3.5687    2.0982 C.2       1 <0>         0.2010
     14 O4         -0.0334    4.8642    2.4177 O.3       1 <0>        -0.2041
     15 C11         1.2255    2.8129    2.7275 C.ar      1 <0>        -0.1252
     16 C12         0.9782    1.5611    3.2982 C.ar      1 <0>        -0.0121
     17 C13         2.0087    0.8562    3.8803 C.ar      1 <0>        -0.1689
     18 C14         3.2902    1.3925    3.9100 C.ar      1 <0>         0.1892
     19 C15         3.5395    2.6390    3.3490 C.ar      1 <0>        -0.2227
     20 C16         2.5162    3.3487    2.7601 C.ar      1 <0>        -0.0339
     21 O5          4.3020    0.6964    4.4895 O.3       1 <0>        -0.5038
     22 O6         -0.4792    1.6167    0.9146 O.3       1 <0>        -0.2943
     23 C17         0.2966    1.3282   -0.2503 C.3       1 <0>         0.0257
     24 O7         -2.3004    9.0237    2.0555 O.3       1 <0>        -0.4791
     25 H1         -6.0098    8.6059    0.4190 H         1 <0>         0.0956
     26 H2         -5.1404    8.3449    1.9691 H         1 <0>         0.0451
     27 H3         -5.7120    6.9366    1.0118 H         1 <0>         0.0457
     28 H4         -0.4717    7.3957    2.9565 H         1 <0>         0.1549
     29 H5         -3.7071    4.2326   -0.7694 H         1 <0>         0.4506
     30 H6         -0.0183    1.1453    3.2791 H         1 <0>         0.1429
     31 H7          1.8194   -0.1129    4.3178 H         1 <0>         0.1394
     32 H8          4.5371    3.0520    3.3744 H         1 <0>         0.1359
     33 H9          2.7108    4.3176    2.3246 H         1 <0>         0.1324
     34 H10         5.3171    1.1193    4.5140 H         1 <0>         0.4400
     35 H11         0.3850    0.2385   -0.3713 H         1 <0>         0.1007
     36 H12         1.2991    1.7675   -0.1412 H         1 <0>         0.0457
     37 H13        -0.1972    1.7566   -1.1350 H         1 <0>         0.0508
     38 H14        -1.5994    9.4676    2.7777 H         1 <0>         0.4452
@<TRIPOS>BOND
     1    1    2 1
     2    1   25 1
     3    1   26 1
     4    1   27 1
     5    2    3 1
     6    3    8 ar
     7    3    4 ar
     8    4    5 ar
     9    4   24 1
    10    5    6 ar
    11    5   28 1
    12    6   14 1
    13    6    7 ar
    14    7    8 ar
    15    7   10 1
    16    8    9 1
    17    9   29 1
    18   10   11 2
    19   10   12 1
    20   12   13 2
    21   12   22 1
    22   13   14 1
    23   13   15 1
    24   15   20 ar
    25   15   16 ar
    26   16   17 ar
    27   16   30 1
    28   17   18 ar
    29   17   31 1
    30   18   19 ar
    31   18   21 1
    32   19   20 ar
    33   19   32 1
    34   20   33 1
    35   21   34 1
    36   22   23 1
    37   23   35 1
    38   23   36 1
    39   23   37 1
    40   24   38 1
@<TRIPOS>MOLECULE
ZINC03869685
   32    34     0     0     0
SMALL
USER_CHARGES

@<TRIPOS>ATOM
      1 C1          0.9741   -0.2755   -0.9644 C.ar      1 <0>        -0.0748
      2 C2          2.1569    0.4329   -0.9701 C.ar      1 <0>        -0.1346
      3 C3          2.3856    1.4156   -0.0177 C.ar      1 <0>         0.1032
      4 C4          1.4203    1.6918    0.9495 C.ar      1 <0>         0.0788
      5 C5          0.2328    0.9863    0.9617 C.ar      1 <0>        -0.0762
      6 C6          0.0021   -0.0041    0.0020 C.ar      1 <0>        -0.0447
      7 C7         -1.2637   -0.7605    0.0100 C.2       1 <0>         0.1350
      8 C8         -2.4363   -0.0759    0.1235 C.2       1 <0>        -0.0429
      9 C9         -3.6628   -0.7894    0.1327 C.2       1 <0>         0.4011
     10 O1         -4.7327   -0.2102    0.2323 O.2       1 <0>        -0.4484
     11 C10        -3.5946   -2.2549    0.0170 C.ar      1 <0>        -0.2690
     12 C11        -4.7561   -3.0387    0.0170 C.ar      1 <0>         0.2244
     13 C12        -4.6504   -4.4123   -0.0941 C.ar      1 <0>        -0.2081
     14 C13        -3.3994   -5.0103   -0.2044 C.ar      1 <0>         0.2000
     15 C14        -2.2463   -4.2416   -0.2047 C.ar      1 <0>        -0.1854
     16 C15        -2.3316   -2.8618   -0.0952 C.ar      1 <0>         0.1876
     17 O2         -1.2182   -2.0992   -0.1003 O.3       1 <0>        -0.1970
     18 O3         -3.3070   -6.3605   -0.3125 O.3       1 <0>        -0.4866
     19 O4         -5.9758   -2.4535    0.1257 O.3       1 <0>        -0.4726
     20 O5         -2.4312    1.2810    0.2275 O.3       1 <0>        -0.4502
     21 O6          1.6480    2.6557    1.8815 O.3       1 <0>        -0.4836
     22 O7          3.5534    2.1101   -0.0273 O.3       1 <0>        -0.4861
     23 H1          0.7971   -1.0371   -1.7094 H         1 <0>         0.1379
     24 H2          2.9075    0.2221   -1.7176 H         1 <0>         0.1421
     25 H3         -0.5155    1.1988    1.7108 H         1 <0>         0.1429
     26 H4         -5.5413   -5.0229   -0.0948 H         1 <0>         0.1515
     27 H5         -1.2805   -4.7174   -0.2903 H         1 <0>         0.1559
     28 H6         -3.3257   -6.6843   -1.2235 H         1 <0>         0.4050
     29 H7         -6.3751   -2.2160   -0.7224 H         1 <0>         0.4036
     30 H8         -3.3120    1.6729    0.3033 H         1 <0>         0.4079
     31 H9          1.3508    3.5370    1.6166 H         1 <0>         0.3905
     32 H10         3.5287    2.9137   -0.5647 H         1 <0>         0.3924
@<TRIPOS>BOND
     1    1    6 ar
     2    1    2 ar
     3    1   23 1
     4    2    3 ar
     5    2   24 1
     6    3    4 ar
     7    3   22 1
     8    4    5 ar
     9    4   21 1
    10    5    6 ar
    11    5   25 1
    12    6    7 1
    13    7   17 1
    14    7    8 2
    15    8    9 1
    16    8   20 1
    17    9   10 2
    18    9   11 1
    19   11   16 ar
    20   11   12 ar
    21   12   13 ar
    22   12   19 1
    23   13   14 ar
    24   13   26 1
    25   14   15 ar
    26   14   18 1
    27   15   16 ar
    28   15   27 1
    29   16   17 1
    30   18   28 1
    31   19   29 1
    32   20   30 1
    33   21   31 1
    34   22   32 1
@<TRIPOS>MOLECULE
ZINC03869685
   31    33     0     0     0
SMALL
USER_CHARGES

@<TRIPOS>ATOM
      1 C1          0.1390    1.1246   -0.8120 C.ar      1 <0>        -0.0626
      2 C2          1.3229    1.8301   -0.8179 C.ar      1 <0>        -0.1333
      3 C3          2.3812    1.4233   -0.0172 C.ar      1 <0>         0.0878
      4 C4          2.2522    0.2984    0.7970 C.ar      1 <0>         0.0757
      5 C5          1.0694   -0.4139    0.8086 C.ar      1 <0>        -0.0997
      6 C6          0.0021   -0.0041    0.0020 C.ar      1 <0>        -0.0194
      7 C7         -1.2620   -0.7597    0.0100 C.2       1 <0>         0.1007
      8 C8         -2.4587   -0.0763    0.1245 C.2       1 <0>        -0.0038
      9 C9         -3.6655   -0.7872    0.1324 C.2       1 <0>         0.3349
     10 C10        -3.6167   -2.1939    0.0219 C.2       1 <0>        -0.3331
     11 C11        -4.8018   -2.9593    0.0240 C.2       1 <0>         0.2664
     12 C12        -4.7326   -4.3182   -0.0844 C.2       1 <0>        -0.3749
     13 C13        -3.4871   -4.9570   -0.1979 C.2       1 <0>         0.3648
     14 O1         -3.4307   -6.2860   -0.3033 O.2       1 <0>        -0.6598
     15 C14        -2.3054   -4.2086   -0.2016 C.2       1 <0>        -0.3143
     16 C15        -2.3616   -2.8325   -0.0921 C.2       1 <0>         0.2118
     17 O2         -1.2290   -2.0988   -0.0996 O.3       1 <0>        -0.2018
     18 O3         -6.0073   -2.3463    0.1339 O.3       1 <0>        -0.4482
     19 O4         -4.8484   -0.1420    0.2437 O.3       1 <0>        -0.5747
     20 O5         -2.4638    1.2803    0.2294 O.3       1 <0>        -0.4649
     21 O6          3.2919   -0.0973    1.5794 O.3       1 <0>        -0.4856
     22 O7          3.5458    2.1225   -0.0269 O.3       1 <0>        -0.4881
     23 H1         -0.6843    1.4460   -1.4327 H         1 <0>         0.1397
     24 H2          1.4276    2.7014   -1.4473 H         1 <0>         0.1381
     25 H3          0.9685   -1.2854    1.4384 H         1 <0>         0.1410
     26 H4         -5.6395   -4.9047   -0.0825 H         1 <0>         0.1180
     27 H5         -1.3506   -4.7057   -0.2895 H         1 <0>         0.1230
     28 H6         -6.7597   -2.9537    0.1258 H         1 <0>         0.3847
     29 H7         -3.3475    1.6656    0.3047 H         1 <0>         0.4058
     30 H8          3.2925    0.2977    2.4620 H         1 <0>         0.3855
     31 H9          3.5825    2.8346    0.6263 H         1 <0>         0.3863
@<TRIPOS>BOND
     1    1    6 ar
     2    1    2 ar
     3    1   23 1
     4    2    3 ar
     5    2   24 1
     6    3    4 ar
     7    3   22 1
     8    4    5 ar
     9    4   21 1
    10    5    6 ar
    11    5   25 1
    12    6    7 1
    13    7   17 1
    14    7    8 2
    15    8    9 1
    16    8   20 1
    17    9   10 2
    18    9   19 1
    19   10   16 1
    20   10   11 1
    21   11   12 2
    22   11   18 1
    23   12   13 1
    24   12   26 1
    25   13   14 2
    26   13   15 1
    27   15   16 2
    28   15   27 1
    29   16   17 1
    30   18   28 1
    31   20   29 1
    32   21   30 1
    33   22   31 1
@<TRIPOS>MOLECULE
ZINC03871633
   30    32     0     0     0
SMALL
USER_CHARGES

@<TRIPOS>ATOM
      1 C1         -0.0167    1.3795    0.0096 C.ar      1 <0>        -0.0921
      2 C2          1.1683    2.0940    0.0021 C.ar      1 <0>        -0.1230
      3 C3          2.3774    1.4303   -0.0130 C.ar      1 <0>        -0.0790
      4 C4          2.4038    0.0341   -0.0208 C.ar      1 <0>        -0.0756
      5 C5          1.2040   -0.6806   -0.0131 C.ar      1 <0>        -0.0796
      6 C6          0.0021   -0.0041    0.0020 C.ar      1 <0>        -0.1207
      7 C7          3.6945   -0.6834   -0.0374 C.2       1 <0>         0.2091
      8 C8          3.6864   -2.0423   -0.0503 C.2       1 <0>        -0.3117
      9 C9          4.9141   -2.7479   -0.0669 C.2       1 <0>         0.4234
     10 O1          4.9443   -3.9678   -0.0790 O.2       1 <0>        -0.4507
     11 C10         6.1530   -1.9519   -0.0693 C.ar      1 <0>        -0.2508
     12 C11         6.0489   -0.5496   -0.0552 C.ar      1 <0>         0.1748
     13 O2          4.8301    0.0318   -0.0449 O.3       1 <0>        -0.2163
     14 C12         7.2014    0.2203   -0.0572 C.ar      1 <0>        -0.1662
     15 C13         8.4452   -0.3910   -0.0736 C.ar      1 <0>         0.1647
     16 C14         8.5528   -1.7804   -0.0881 C.ar      1 <0>         0.0244
     17 C15         7.4110   -2.5656   -0.0858 C.ar      1 <0>         0.1934
     18 O3          7.5117   -3.9201   -0.0990 O.3       1 <0>        -0.4665
     19 O4          9.7814   -2.3670   -0.1045 O.3       1 <0>        -0.4726
     20 O5          9.5696    0.3710   -0.0759 O.3       1 <0>        -0.4763
     21 H1         -0.9606    1.9042    0.0260 H         1 <0>         0.1310
     22 H2          1.1464    3.1737    0.0078 H         1 <0>         0.1327
     23 H3          3.3016    1.9892   -0.0192 H         1 <0>         0.1352
     24 H4          1.2173   -1.7605   -0.0194 H         1 <0>         0.1363
     25 H5         -0.9265   -0.5555    0.0079 H         1 <0>         0.1348
     26 H6          2.7501   -2.5805   -0.0475 H         1 <0>         0.1647
     27 H7          7.1302    1.2979   -0.0464 H         1 <0>         0.1582
     28 H8          7.5333   -4.3043   -0.9861 H         1 <0>         0.4056
     29 H9         10.1439   -2.5451    0.7741 H         1 <0>         0.3918
     30 H10         9.9027    0.5834    0.8067 H         1 <0>         0.4008
@<TRIPOS>BOND
     1    1    6 ar
     2    1    2 ar
     3    1   21 1
     4    2    3 ar
     5    2   22 1
     6    3    4 ar
     7    3   23 1
     8    4    5 ar
     9    4    7 1
    10    5    6 ar
    11    5   24 1
    12    6   25 1
    13    7   13 1
    14    7    8 2
    15    8    9 1
    16    8   26 1
    17    9   10 2
    18    9   11 1
    19   11   17 ar
    20   11   12 ar
    21   12   13 1
    22   12   14 ar
    23   14   15 ar
    24   14   27 1
    25   15   16 ar
    26   15   20 1
    27   16   17 ar
    28   16   19 1
    29   17   18 1
    30   18   28 1
    31   19   29 1
    32   20   30 1
