@<TRIPOS>MOLECULE
ZINC00020245
   46    48     0     0     0
SMALL
USER_CHARGES

@<TRIPOS>ATOM
      1 C1         -5.6836    1.3838    0.0162 C.3       1 <0>        -0.0473
      2 N1         -5.6620   -0.0833   -0.0564 N.4       1 <0>        -0.3868
      3 C2         -6.3713   -0.5242   -1.2649 C.3       1 <0>        -0.0522
      4 C3         -4.2702   -0.5505   -0.1076 C.3       1 <0>        -0.0086
      5 C4         -4.2434   -2.0795   -0.0575 C.3       1 <0>        -0.1781
      6 C5         -2.7938   -2.5661   -0.1108 C.3       1 <0>         0.1490
      7 N2         -2.7704   -4.0309   -0.1190 N.pl3     1 <0>        -0.6108
      8 C6         -2.7295   -4.7451   -1.3212 C.ar      1 <0>         0.1758
      9 C7         -1.6865   -4.4783   -2.2022 C.ar      1 <0>        -0.1411
     10 C8         -1.5734   -5.1772   -3.3856 C.ar      1 <0>        -0.1022
     11 C9         -2.5089   -6.1508   -3.6854 C.ar      1 <0>        -0.1266
     12 C10        -3.5489   -6.4041   -2.8209 C.ar      1 <0>        -0.1101
     13 C11        -3.6933   -5.6947   -1.6266 C.ar      1 <0>        -0.0998
     14 C12        -4.9357   -6.0340   -0.8354 C.3       1 <0>        -0.0687
     15 C13        -5.1005   -5.1892    0.4158 C.3       1 <0>        -0.0773
     16 C14        -3.9592   -5.4030    1.3779 C.ar      1 <0>        -0.0996
     17 C15        -2.7824   -4.7590    1.0748 C.ar      1 <0>         0.1523
     18 C16        -1.6837   -4.8488    1.9126 C.ar      1 <0>        -0.1184
     19 C17        -1.7825   -5.6251    3.0560 C.ar      1 <0>        -0.1094
     20 C18        -2.9565   -6.2950    3.3488 C.ar      1 <0>        -0.1165
     21 C19        -4.0679   -6.1865    2.5030 C.ar      1 <0>        -0.1028
     22 H1         -6.7163    1.7305    0.0542 H         1 <0>         0.1245
     23 H2         -5.1573    1.7109    0.9129 H         1 <0>         0.1235
     24 H3         -5.1933    1.7984   -0.8646 H         1 <0>         0.1221
     25 H4         -6.3552   -1.6128   -1.3188 H         1 <0>         0.1231
     26 H5         -7.4040   -0.1775   -1.2269 H         1 <0>         0.1246
     27 H6         -5.8810   -0.1096   -2.1457 H         1 <0>         0.1227
     28 H7         -3.8061   -0.2091   -1.0329 H         1 <0>         0.1308
     29 H8         -3.7207   -0.1494    0.7440 H         1 <0>         0.1320
     30 H9         -4.7075   -2.4209    0.8678 H         1 <0>         0.0908
     31 H10        -4.7929   -2.4806   -0.9091 H         1 <0>         0.0915
     32 H11        -2.3174   -2.1901   -1.0161 H         1 <0>         0.0824
     33 H12        -2.2550   -2.1990    0.7627 H         1 <0>         0.0801
     34 H13        -0.9599   -3.7176   -1.9576 H         1 <0>         0.1215
     35 H14        -0.7646   -4.9667   -4.0697 H         1 <0>         0.1276
     36 H15        -2.4229   -6.7145   -4.6025 H         1 <0>         0.1250
     37 H16        -4.2693   -7.1687   -3.0712 H         1 <0>         0.1222
     38 H17        -5.8074   -5.8880   -1.4734 H         1 <0>         0.0793
     39 H18        -4.8898   -7.0837   -0.5452 H         1 <0>         0.0765
     40 H19        -5.1365   -4.1371    0.1334 H         1 <0>         0.0724
     41 H20        -6.0358   -5.4578    0.9068 H         1 <0>         0.0709
     42 H21        -0.7686   -4.3248    1.6795 H         1 <0>         0.1257
     43 H22        -0.9372   -5.7074    3.7231 H         1 <0>         0.1275
     44 H23        -3.0178   -6.9071    4.2365 H         1 <0>         0.1269
     45 H24        -4.9880   -6.7067    2.7249 H         1 <0>         0.1290
     46 H25        -6.1159   -0.4671    0.7589 H         1 <0>         0.4268
@<TRIPOS>BOND
     1    1    2 1
     2    1   22 1
     3    1   23 1
     4    1   24 1
     5    2    3 1
     6    2    4 1
     7    2   46 1
     8    3   25 1
     9    3   26 1
    10    3   27 1
    11    4    5 1
    12    4   28 1
    13    4   29 1
    14    5    6 1
    15    5   30 1
    16    5   31 1
    17    6    7 1
    18    6   32 1
    19    6   33 1
    20    7   17 1
    21    7    8 1
    22    8   13 ar
    23    8    9 ar
    24    9   10 ar
    25    9   34 1
    26   10   11 ar
    27   10   35 1
    28   11   12 ar
    29   11   36 1
    30   12   13 ar
    31   12   37 1
    32   13   14 1
    33   14   15 1
    34   14   38 1
    35   14   39 1
    36   15   16 1
    37   15   40 1
    38   15   41 1
    39   16   21 ar
    40   16   17 ar
    41   17   18 ar
    42   18   19 ar
    43   18   42 1
    44   19   20 ar
    45   19   43 1
    46   20   21 ar
    47   20   44 1
    48   21   45 1
@<TRIPOS>MOLECULE
ZINC12356413
   61    65     0     0     0
SMALL
USER_CHARGES
N-[4-[4-(1,2-benzothiazol-3-yl)piperazin-1-yl]butyl]indoline-7-carboxamide
@<TRIPOS>ATOM
      1 C1         -4.1463  -13.4774   -4.5456 C.ar      1 <0>        -0.1220
      2 C2         -4.0861  -14.8519   -4.3506 C.ar      1 <0>        -0.0630
      3 C3         -3.8220  -15.3521   -3.1030 C.ar      1 <0>        -0.0770
      4 C4         -3.6184  -14.4825   -2.0523 C.ar      1 <0>        -0.1172
      5 C5         -3.6735  -13.0800   -2.2210 C.ar      1 <0>        -0.1301
      6 C6         -3.9486  -12.6041   -3.5217 C.ar      1 <0>        -0.0380
      7 C7         -3.4295  -12.3533   -0.9842 C.2       1 <0>         0.2994
      8 N1         -3.1887  -13.0095    0.1141 N.2       1 <0>        -0.4560
      9 S1         -3.2604  -14.6585   -0.3256 S.3       1 <0>         0.2211
     10 N2         -3.4477  -10.9577   -0.9766 N.pl3     1 <0>        -0.4716
     11 C8         -4.0299  -10.4454    0.2717 C.3       1 <0>         0.0277
     12 C9         -4.1048   -8.9181    0.2074 C.3       1 <0>         0.0055
     13 C10        -2.1745   -8.8849   -1.2526 C.3       1 <0>         0.0019
     14 C11        -2.0996  -10.4122   -1.1884 C.3       1 <0>         0.0292
     15 C12        -2.7759   -6.9038    0.0037 C.3       1 <0>        -0.0027
     16 C13        -1.3404   -6.3751    0.0316 C.3       1 <0>        -0.1477
     17 C14        -1.3604   -4.8453    0.0399 C.3       1 <0>        -0.1298
     18 C15         0.0751   -4.3166    0.0679 C.3       1 <0>         0.1215
     19 N3          0.0560   -2.8518    0.0758 N.am      1 <0>        -0.7379
     20 C16         1.2141   -2.1628    0.0999 C.2       1 <0>         0.5616
     21 O1          2.2749   -2.7571    0.1149 O.2       1 <0>        -0.5140
     22 C17         1.1948   -0.6886    0.1079 C.ar      1 <0>        -0.1506
     23 C18        -0.0218   -0.0049    0.0906 C.ar      1 <0>        -0.0703
     24 C19        -0.0404    1.3724    0.0982 C.ar      1 <0>        -0.1432
     25 C20         1.1494    2.0838    0.1203 C.ar      1 <0>        -0.0547
     26 C21         2.3577    1.4223    0.1348 C.ar      1 <0>        -0.1550
     27 C22         2.4037    0.0327    0.1325 C.ar      1 <0>         0.1648
     28 N4          3.7177   -0.4254    0.1655 N.pl3     1 <0>        -0.6172
     29 C23         4.5997    0.6853   -0.2540 C.3       1 <0>         0.0496
     30 C24         3.7845    1.9348    0.1522 C.3       1 <0>        -0.1141
     31 H1         -4.3552  -13.0935   -5.5333 H         1 <0>         0.1380
     32 H2         -4.2475  -15.5241   -5.1804 H         1 <0>         0.1447
     33 H3         -3.7733  -16.4191   -2.9435 H         1 <0>         0.1428
     34 H4         -4.0017  -11.5410   -3.7045 H         1 <0>         0.1342
     35 H5         -3.4052  -10.7438    1.1136 H         1 <0>         0.0795
     36 H6         -5.0324  -10.8536    0.3998 H         1 <0>         0.1258
     37 H7         -4.5094   -8.5341    1.1439 H         1 <0>         0.1395
     38 H8         -4.7515   -8.6198   -0.6177 H         1 <0>         0.1421
     39 H9         -2.7993   -8.5866   -2.0945 H         1 <0>         0.1437
     40 H10        -1.1720   -8.4767   -1.3807 H         1 <0>         0.1411
     41 H11        -1.4530  -10.7102   -0.3630 H         1 <0>         0.0726
     42 H12        -1.6948  -10.7965   -2.1246 H         1 <0>         0.1285
     43 H13        -3.3098   -6.5522    0.8865 H         1 <0>         0.1322
     44 H14        -3.2789   -6.5421   -0.8931 H         1 <0>         0.1347
     45 H15        -0.8065   -6.7267   -0.8513 H         1 <0>         0.0914
     46 H16        -0.8374   -6.7368    0.9284 H         1 <0>         0.0913
     47 H17        -1.8943   -4.4937    0.9228 H         1 <0>         0.0822
     48 H18        -1.8634   -4.4836   -0.8569 H         1 <0>         0.0826
     49 H19         0.6090   -4.6682   -0.8150 H         1 <0>         0.0708
     50 H20         0.5781   -4.6783    0.9647 H         1 <0>         0.0704
     51 H21        -0.7902   -2.3777    0.0638 H         1 <0>         0.3995
     52 H22        -0.9500   -0.5565    0.0717 H         1 <0>         0.1267
     53 H23        -0.9833    1.8990    0.0824 H         1 <0>         0.1340
     54 H24         1.1288    3.1636    0.1263 H         1 <0>         0.1294
     55 H25         3.9632   -0.7536    1.0874 H         1 <0>         0.3644
     56 H26         4.7633    0.6636   -1.3315 H         1 <0>         0.0911
     57 H27         5.5476    0.6505    0.2830 H         1 <0>         0.0907
     58 H28         3.9164    2.7355   -0.5755 H         1 <0>         0.0919
     59 H29         4.0616    2.2726    1.1507 H         1 <0>         0.0868
     60 N5         -2.7406   -8.3818    0.0166 N.4       1 <0>        -0.3996
     61 H30        -2.1471   -8.6946    0.7939 H         1 <0>         0.4267
@<TRIPOS>BOND
     1    1    6 ar
     2    1    2 ar
     3    1   31 1
     4    2    3 ar
     5    2   32 1
     6    3    4 ar
     7    3   33 1
     8    4    9 1
     9    4    5 ar
    10    5    6 ar
    11    5    7 1
    12    6   34 1
    13    7    8 2
    14    7   10 1
    15    8    9 1
    16   10   14 1
    17   10   11 1
    18   11   12 1
    19   11   35 1
    20   11   36 1
    21   12   37 1
    22   12   38 1
    23   12   60 1
    24   13   14 1
    25   13   39 1
    26   13   40 1
    27   13   60 1
    28   14   41 1
    29   14   42 1
    30   15   16 1
    31   15   43 1
    32   15   44 1
    33   15   60 1
    34   16   17 1
    35   16   45 1
    36   16   46 1
    37   17   18 1
    38   17   47 1
    39   17   48 1
    40   18   19 1
    41   18   49 1
    42   18   50 1
    43   19   20 am
    44   19   51 1
    45   20   21 2
    46   20   22 1
    47   22   27 ar
    48   22   23 ar
    49   23   24 ar
    50   23   52 1
    51   24   25 ar
    52   24   53 1
    53   25   26 ar
    54   25   54 1
    55   26   30 1
    56   26   27 ar
    57   27   28 1
    58   28   29 1
    59   28   55 1
    60   29   30 1
    61   29   56 1
    62   29   57 1
    63   30   58 1
    64   30   59 1
    65   60   61 1
@<TRIPOS>MOLECULE
ZINC03860825
   53    57     0     0     0
SMALL
USER_CHARGES

@<TRIPOS>ATOM
      1 C1         -0.0173    1.4248    0.0099 C.3       1 <0>         0.0327
      2 O1          0.0021   -0.0041    0.0020 O.3       1 <0>        -0.3479
      3 C2          0.5984   -0.5997   -1.0427 C.2       1 <0>         0.4737
      4 O2          1.0877    0.0699   -1.9214 O.2       1 <0>        -0.5039
      5 C3          0.6575   -2.1036   -1.1196 C.3       1 <0>        -0.0650
      6 H1          1.1947   -2.4917   -0.2542 H         1 <0>         0.1260
      7 C4         -0.7643   -2.6714   -1.1364 C.3       1 <0>         0.1104
      8 H2         -1.2823   -2.3789   -0.2230 H         1 <0>         0.0803
      9 C5         -0.7098   -4.1973   -1.2238 C.3       1 <0>        -0.1531
     10 C6          0.0283   -4.6160   -2.4980 C.3       1 <0>        -0.1090
     11 C7          1.4478   -4.0496   -2.4652 C.3       1 <0>        -0.1066
     12 H3          1.9678   -4.4265   -1.5844 H         1 <0>         0.0984
     13 C8          1.3811   -2.5214   -2.3995 C.3       1 <0>        -0.0762
     14 H4          0.8340   -2.1460   -3.2643 H         1 <0>         0.1112
     15 C9          2.8021   -1.9525   -2.4146 C.3       1 <0>        -0.1520
     16 C10         3.5142   -2.4494   -3.6743 C.3       1 <0>         0.1158
     17 H5          2.9655   -2.1183   -4.5560 H         1 <0>         0.1480
     18 C11         4.9207   -1.9091   -3.7260 C.2       1 <0>         0.0226
     19 C12         5.9775   -2.6629   -4.1115 C.2       1 <0>        -0.1599
     20 C13         7.1508   -1.8219   -4.0411 C.ar      1 <0>        -0.1001
     21 C14         8.5026   -2.0504   -4.3178 C.ar      1 <0>        -0.0652
     22 C15         9.3608   -0.9941   -4.1376 C.ar      1 <0>        -0.1357
     23 C16         8.9212    0.2451   -3.7015 C.ar      1 <0>        -0.0818
     24 C17         7.5903    0.4991   -3.4190 C.ar      1 <0>        -0.1277
     25 C18         6.6952   -0.5542   -3.5938 C.ar      1 <0>         0.1109
     26 N1          5.3444   -0.6471   -3.4127 N.pl3     1 <0>        -0.5612
     27 H6          4.7717    0.0739   -3.1078 H         1 <0>         0.4234
     28 C19         5.8580   -4.1083   -4.5249 C.3       1 <0>        -0.0677
     29 C20         4.3745   -4.4075   -4.7852 C.3       1 <0>        -0.0061
     30 N2          3.5745   -3.9171   -3.6582 N.4       1 <0>        -0.3774
     31 C21         2.2119   -4.4657   -3.7230 C.3       1 <0>         0.0006
     32 O3         -1.4686   -2.1563   -2.2680 O.3       1 <0>        -0.5638
     33 H7          1.0053    1.8021    0.0021 H         1 <0>         0.0628
     34 H8         -0.5445    1.7859   -0.8732 H         1 <0>         0.0656
     35 H9         -0.5275    1.7763    0.9067 H         1 <0>         0.1087
     36 H10        -0.1842   -4.5917   -0.3542 H         1 <0>         0.0829
     37 H11        -1.7242   -4.5957   -1.2448 H         1 <0>         0.0871
     38 H12         0.0713   -5.7038   -2.5532 H         1 <0>         0.0818
     39 H13        -0.4991   -4.2269   -3.3690 H         1 <0>         0.0847
     40 H14         2.7600   -0.8634   -2.4237 H         1 <0>         0.1318
     41 H15         3.3419   -2.2929   -1.5309 H         1 <0>         0.0903
     42 H16         8.8550   -3.0132   -4.6571 H         1 <0>         0.1348
     43 H17        10.4120   -1.1338   -4.3420 H         1 <0>         0.1279
     44 H18         9.6417    1.0401   -3.5774 H         1 <0>         0.1311
     45 H19         7.2605    1.4697   -3.0791 H         1 <0>         0.1352
     46 H20         6.4334   -4.2800   -5.4346 H         1 <0>         0.1209
     47 H21         6.2289   -4.7515   -3.7269 H         1 <0>         0.0998
     48 H22         4.0584   -3.9085   -5.7013 H         1 <0>         0.1319
     49 H23         4.2337   -5.4833   -4.8902 H         1 <0>         0.1399
     50 H24         2.2638   -5.5532   -3.7749 H         1 <0>         0.1399
     51 H25         1.6991   -4.0815   -4.6048 H         1 <0>         0.1347
     52 H26        -2.3787   -2.4743   -2.3430 H         1 <0>         0.3915
     53 H27         4.0031   -4.2176   -2.7956 H         1 <0>         0.4231
@<TRIPOS>BOND
     1    1    2 1
     2    1   33 1
     3    1   34 1
     4    1   35 1
     5    2    3 1
     6    3    4 2
     7    3    5 1
     8    5    6 1
     9    5   13 1
    10    5    7 1
    11    7    8 1
    12    7    9 1
    13    7   32 1
    14    9   10 1
    15    9   36 1
    16    9   37 1
    17   10   11 1
    18   10   38 1
    19   10   39 1
    20   11   12 1
    21   11   31 1
    22   11   13 1
    23   13   14 1
    24   13   15 1
    25   15   16 1
    26   15   40 1
    27   15   41 1
    28   16   17 1
    29   16   30 1
    30   16   18 1
    31   18   26 1
    32   18   19 2
    33   19   20 1
    34   19   28 1
    35   20   25 ar
    36   20   21 ar
    37   21   22 ar
    38   21   42 1
    39   22   23 ar
    40   22   43 1
    41   23   24 ar
    42   23   44 1
    43   24   25 ar
    44   24   45 1
    45   25   26 1
    46   26   27 1
    47   28   29 1
    48   28   46 1
    49   28   47 1
    50   29   30 1
    51   29   48 1
    52   29   49 1
    53   30   31 1
    54   30   53 1
    55   31   50 1
    56   31   51 1
    57   32   52 1
@<TRIPOS>MOLECULE
ZINC00538314
   60    64     0     0     0
SMALL
USER_CHARGES

@<TRIPOS>ATOM
      1 C1         -0.0184    1.5028    0.0103 C.3       1 <0>        -0.1174
      2 C2          0.0021   -0.0041    0.0020 C.2       1 <0>         0.2445
      3 C3         -1.1751   -0.7216    0.0036 C.2       1 <0>        -0.3147
      4 C4         -1.1361   -2.1161   -0.0047 C.2       1 <0>         0.5359
      5 O1         -2.1756   -2.7567   -0.0037 O.2       1 <0>        -0.5241
      6 N1          0.0668   -2.7644   -0.0143 N.am      1 <0>        -0.4737
      7 C5          0.2679   -4.1238   -0.0236 C.2       1 <0>         0.0266
      8 C6          1.4978   -4.6373   -0.0325 C.2       1 <0>        -0.1636
      9 S1          2.5089   -3.1651   -0.0288 S.3       1 <0>         0.1803
     10 C7          1.1857   -1.9749   -0.0151 C.2       1 <0>         0.3350
     11 N2          1.1565   -0.6654   -0.0126 N.2       1 <0>        -0.4984
     12 C8         -2.4993   -0.0022    0.0147 C.3       1 <0>        -0.0635
     13 C9         -3.0147    0.1395   -1.4188 C.3       1 <0>        -0.0075
     14 N3         -4.3055    0.8408   -1.4080 N.4       1 <0>        -0.3819
     15 C10        -4.1121    2.2079   -0.9103 C.3       1 <0>        -0.0097
     16 C11        -5.4758    2.8853   -0.7337 C.3       1 <0>        -0.1045
     17 C12        -6.2228    2.7941   -2.0481 C.2       1 <0>        -0.1537
     18 C13        -6.8154    3.8677   -2.5843 C.2       1 <0>         0.0201
     19 C14        -7.5400    3.7487   -3.8726 C.ar      1 <0>        -0.0793
     20 C15        -6.8454    3.4297   -5.0384 C.ar      1 <0>        -0.0814
     21 C16        -7.5238    3.3196   -6.2346 C.ar      1 <0>        -0.1518
     22 C17        -8.8933    3.5256   -6.2784 C.ar      1 <0>         0.1146
     23 C18        -9.5877    3.8433   -5.1223 C.ar      1 <0>        -0.1473
     24 C19        -8.9186    3.9499   -3.9205 C.ar      1 <0>        -0.0659
     25 F1         -9.5535    3.4167   -7.4521 F         1 <0>        -0.1311
     26 C20        -6.7474    5.1762   -1.8900 C.ar      1 <0>        -0.0818
     27 C21        -7.3566    5.3406   -0.6469 C.ar      1 <0>        -0.0760
     28 C22        -7.2903    6.5596   -0.0045 C.ar      1 <0>        -0.1515
     29 C23        -6.6196    7.6197   -0.5929 C.ar      1 <0>         0.1154
     30 C24        -6.0130    7.4611   -1.8286 C.ar      1 <0>        -0.1500
     31 C25        -6.0692    6.2440   -2.4758 C.ar      1 <0>        -0.0670
     32 F2         -6.5572    8.8117    0.0399 F         1 <0>        -0.1311
     33 C26        -6.2752    1.4449   -2.7346 C.3       1 <0>        -0.1083
     34 C27        -4.8545    0.8700   -2.7688 C.3       1 <0>        -0.0019
     35 H1          1.0042    1.8801    0.0026 H         1 <0>         0.0964
     36 H2         -0.5455    1.8639   -0.8728 H         1 <0>         0.0880
     37 H3         -0.5286    1.8543    0.9071 H         1 <0>         0.0967
     38 H4         -0.5845   -4.7869   -0.0233 H         1 <0>         0.1919
     39 H5          1.8032   -5.6732   -0.0394 H         1 <0>         0.2293
     40 H6         -3.2174   -0.5721    0.6044 H         1 <0>         0.1000
     41 H7         -2.3717    0.9869    0.4545 H         1 <0>         0.0983
     42 H8         -2.2966    0.7094   -2.0085 H         1 <0>         0.1284
     43 H9         -3.1423   -0.8496   -1.8586 H         1 <0>         0.1316
     44 H10        -3.5955    2.1756    0.0490 H         1 <0>         0.1348
     45 H11        -3.5151    2.7739   -1.6255 H         1 <0>         0.1309
     46 H12        -6.0411    2.3760    0.0468 H         1 <0>         0.1010
     47 H13        -5.3343    3.9317   -0.4629 H         1 <0>         0.1205
     48 H14        -5.7779    3.2693   -5.0053 H         1 <0>         0.1324
     49 H15        -6.9865    3.0728   -7.1384 H         1 <0>         0.1419
     50 H16       -10.6551    4.0034   -5.1612 H         1 <0>         0.1431
     51 H17        -9.4614    4.1929   -3.0190 H         1 <0>         0.1358
     52 H18        -7.8799    4.5149   -0.1877 H         1 <0>         0.1352
     53 H19        -7.7622    6.6880    0.9585 H         1 <0>         0.1425
     54 H20        -5.4916    8.2902   -2.2837 H         1 <0>         0.1424
     55 H21        -5.5921    6.1199   -3.4367 H         1 <0>         0.1346
     56 H22        -6.9300    0.7743   -2.1783 H         1 <0>         0.1009
     57 H23        -6.6483    1.5640   -3.7518 H         1 <0>         0.1217
     58 H24        -4.2246    1.4954   -3.4014 H         1 <0>         0.1291
     59 H25        -4.8820   -0.1426   -3.1713 H         1 <0>         0.1328
     60 H26        -4.9458    0.3531   -0.7995 H         1 <0>         0.4242
@<TRIPOS>BOND
     1    1    2 1
     2    1   35 1
     3    1   36 1
     4    1   37 1
     5    2   11 1
     6    2    3 2
     7    3    4 1
     8    3   12 1
     9    4    5 2
    10    4    6 am
    11    6   10 1
    12    6    7 1
    13    7    8 2
    14    7   38 1
    15    8    9 1
    16    8   39 1
    17    9   10 1
    18   10   11 2
    19   12   13 1
    20   12   40 1
    21   12   41 1
    22   13   14 1
    23   13   42 1
    24   13   43 1
    25   14   34 1
    26   14   15 1
    27   14   60 1
    28   15   16 1
    29   15   44 1
    30   15   45 1
    31   16   17 1
    32   16   46 1
    33   16   47 1
    34   17   18 2
    35   17   33 1
    36   18   19 1
    37   18   26 1
    38   19   24 ar
    39   19   20 ar
    40   20   21 ar
    41   20   48 1
    42   21   22 ar
    43   21   49 1
    44   22   23 ar
    45   22   25 1
    46   23   24 ar
    47   23   50 1
    48   24   51 1
    49   26   31 ar
    50   26   27 ar
    51   27   28 ar
    52   27   52 1
    53   28   29 ar
    54   28   53 1
    55   29   30 ar
    56   29   32 1
    57   30   31 ar
    58   30   54 1
    59   31   55 1
    60   33   34 1
    61   33   56 1
    62   33   57 1
    63   34   58 1
    64   34   59 1
@<TRIPOS>MOLECULE
ZINC22920326
   52    55     0     0     0
SMALL
USER_CHARGES

@<TRIPOS>ATOM
      1 C1         -0.0187    1.5258    0.0104 C.3       1 <0>        -0.1827
      2 C2          0.0021   -0.0041    0.0020 C.3       1 <0>         0.0324
      3 H1          0.5123   -0.3556   -0.8948 H         1 <0>         0.1471
      4 C3         -1.4336   -0.5337    0.0128 C.3       1 <0>         0.0302
      5 N1         -1.4105   -2.0032    0.0241 N.3       1 <0>        -0.5388
      6 C4         -0.6807   -2.5048    1.1971 C.3       1 <0>         0.0254
      7 C5          0.7488   -1.9589    1.1765 C.3       1 <0>         0.0324
      8 H2          1.2551   -2.3004    0.2737 H         1 <0>         0.1469
      9 N2          0.7126   -0.4906    1.1920 N.4       1 <0>        -0.5065
     10 C6          1.5050   -2.4634    2.4072 C.3       1 <0>        -0.1830
     11 C7         -2.7725   -2.5515   -0.0226 C.3       1 <0>         0.0584
     12 C8         -2.7066   -4.0615   -0.2601 C.3       1 <0>        -0.1372
     13 C9         -4.1252   -4.6325   -0.3086 C.3       1 <0>         0.1179
     14 N3         -4.0621   -6.0784   -0.5361 N.pl3     1 <0>        -0.5074
     15 C10        -4.0541   -6.6836   -1.7801 C.ar      1 <0>         0.1407
     16 C11        -4.0985   -6.1695   -3.0725 C.ar      1 <0>        -0.1448
     17 C12        -4.0764   -7.0219   -4.1553 C.ar      1 <0>        -0.0811
     18 C13        -4.0101   -8.3944   -3.9712 C.ar      1 <0>        -0.1474
     19 C14        -3.9653   -8.9226   -2.6989 C.ar      1 <0>        -0.0594
     20 C15        -3.9865   -8.0726   -1.5959 C.ar      1 <0>        -0.1043
     21 C16        -3.9523   -8.3002   -0.1394 C.ar      1 <0>        -0.1029
     22 C17        -3.9960   -7.0338    0.4624 C.ar      1 <0>         0.1405
     23 C18        -3.9715   -6.9383    1.8504 C.ar      1 <0>        -0.1477
     24 C19        -3.9014   -8.0799    2.6195 C.ar      1 <0>        -0.0822
     25 C20        -3.8544   -9.3304    2.0229 C.ar      1 <0>        -0.1486
     26 C21        -3.8863   -9.4459    0.6497 C.ar      1 <0>        -0.0582
     27 H3          1.0039    1.9031    0.0027 H         1 <0>         0.0866
     28 H4         -0.5459    1.8868   -0.8726 H         1 <0>         0.1092
     29 H5         -0.5289    1.8773    0.9072 H         1 <0>         0.0810
     30 H6         -1.9483   -0.1712    0.9026 H         1 <0>         0.0620
     31 H7         -1.9566   -0.1850   -0.8777 H         1 <0>         0.1241
     32 H8         -1.1830   -2.1748    2.1064 H         1 <0>         0.0623
     33 H9         -0.6544   -3.5942    1.1706 H         1 <0>         0.1243
     34 H10         1.6553   -0.1311    1.1910 H         1 <0>         0.4302
     35 H11         1.5320   -3.5530    2.3957 H         1 <0>         0.1089
     36 H12         2.5232   -2.0745    2.3925 H         1 <0>         0.0870
     37 H13         0.9987   -2.1220    3.3100 H         1 <0>         0.0811
     38 H14        -3.2762   -2.3542    0.9237 H         1 <0>         0.0503
     39 H15        -3.3265   -2.0799   -0.8342 H         1 <0>         0.0927
     40 H16        -2.2029   -4.2588   -1.2064 H         1 <0>         0.0839
     41 H17        -2.1527   -4.5331    0.5516 H         1 <0>         0.0704
     42 H18        -4.6289   -4.4352    0.6377 H         1 <0>         0.0866
     43 H19        -4.6792   -4.1609   -1.1203 H         1 <0>         0.0898
     44 H20        -4.1507   -5.1019   -3.2271 H         1 <0>         0.1199
     45 H21        -4.1115   -6.6172   -5.1560 H         1 <0>         0.1299
     46 H22        -3.9937   -9.0520   -4.8277 H         1 <0>         0.1294
     47 H23        -3.9144   -9.9921   -2.5578 H         1 <0>         0.1270
     48 H24        -4.0070   -5.9689    2.3254 H         1 <0>         0.1171
     49 H25        -3.8827   -7.9995    3.6964 H         1 <0>         0.1287
     50 H26        -3.7989  -10.2175    2.6363 H         1 <0>         0.1291
     51 H27        -3.8488  -10.4210    0.1871 H         1 <0>         0.1273
     52 H28         0.2335   -0.1749    2.0220 H         1 <0>         0.4215
@<TRIPOS>BOND
     1    1    2 1
     2    1   27 1
     3    1   28 1
     4    1   29 1
     5    2    3 1
     6    2    9 1
     7    2    4 1
     8    4    5 1
     9    4   30 1
    10    4   31 1
    11    5    6 1
    12    5   11 1
    13    6    7 1
    14    6   32 1
    15    6   33 1
    16    7    8 1
    17    7    9 1
    18    7   10 1
    19    9   34 1
    20    9   52 1
    21   10   35 1
    22   10   36 1
    23   10   37 1
    24   11   12 1
    25   11   38 1
    26   11   39 1
    27   12   13 1
    28   12   40 1
    29   12   41 1
    30   13   14 1
    31   13   42 1
    32   13   43 1
    33   14   22 1
    34   14   15 1
    35   15   20 ar
    36   15   16 ar
    37   16   17 ar
    38   16   44 1
    39   17   18 ar
    40   17   45 1
    41   18   19 ar
    42   18   46 1
    43   19   20 ar
    44   19   47 1
    45   20   21 1
    46   21   26 ar
    47   21   22 ar
    48   22   23 ar
    49   23   24 ar
    50   23   48 1
    51   24   25 ar
    52   24   49 1
    53   25   26 ar
    54   25   50 1
    55   26   51 1
@<TRIPOS>MOLECULE
ZINC00005994
   38    41     0     0     0
SMALL
USER_CHARGES

@<TRIPOS>ATOM
      1 C1          0.0058    1.4607    0.0093 C.3       1 <0>         0.0786
      2 N1          0.0188   -0.0042    0.0014 N.pl3     1 <0>        -0.4896
      3 C2          0.0187   -0.7844   -1.1224 C.2       1 <0>         0.0569
      4 C3          0.0329   -2.0819   -0.7790 C.2       1 <0>        -0.2038
      5 C4          0.0429   -2.1385    0.6854 C.ar      1 <0>        -0.0817
      6 C5          0.0390   -0.8025    1.1254 C.ar      1 <0>         0.0824
      7 C6          0.0520   -0.5352    2.4891 C.ar      1 <0>        -0.0899
      8 C7          0.0719   -1.5711    3.3981 C.ar      1 <0>        -0.1088
      9 C8          0.0793   -2.8962    2.9739 C.ar      1 <0>         0.1289
     10 C9          0.0590   -3.1785    1.6134 C.ar      1 <0>        -0.0819
     11 N2          0.0994   -3.7826    4.0589 N.am      1 <0>        -0.5605
     12 C10         0.1065   -3.0344    5.3184 C.3       1 <0>         0.0956
     13 C11         0.0884   -1.5526    4.9109 C.3       1 <0>        -0.0798
     14 C12         0.1106   -5.1266    3.9586 C.2       1 <0>         0.7167
     15 O1          0.1033   -5.6545    2.8632 O.2       1 <0>        -0.5529
     16 N3          0.1298   -5.8854    5.0722 N.am      1 <0>        -0.6756
     17 C13         0.0425   -7.2787    4.9714 C.ar      1 <0>         0.1098
     18 C14         0.6369   -7.9485    3.9047 C.ar      1 <0>        -0.0763
     19 C15         0.5236   -9.3278    3.8487 C.ar      1 <0>        -0.1510
     20 C16        -0.1700   -9.9895    4.8451 C.ar      1 <0>         0.0814
     21 N4         -0.7218   -9.3257    5.8419 N.ar      1 <0>        -0.4653
     22 C17        -0.6329   -8.0139    5.9363 C.ar      1 <0>         0.0780
     23 H1          1.0301    1.8332   -0.0007 H         1 <0>         0.0689
     24 H2         -0.5216    1.8241   -0.8727 H         1 <0>         0.0833
     25 H3         -0.5008    1.8147    0.9071 H         1 <0>         0.0798
     26 H4          0.0083   -0.4115   -2.1359 H         1 <0>         0.1700
     27 H5          0.0357   -2.9248   -1.4542 H         1 <0>         0.1485
     28 H6          0.0469    0.4870    2.8377 H         1 <0>         0.1233
     29 H7          0.0662   -4.2040    1.2748 H         1 <0>         0.1418
     30 H8         -0.7795   -3.2754    5.9058 H         1 <0>         0.0840
     31 H9          1.0095   -3.2590    5.8861 H         1 <0>         0.0833
     32 H10         0.9832   -1.0477    5.2748 H         1 <0>         0.0939
     33 H11        -0.8072   -1.0640    5.2946 H         1 <0>         0.0940
     34 H12         0.2042   -5.4660    5.9437 H         1 <0>         0.4106
     35 H13         1.1725   -7.4058    3.1399 H         1 <0>         0.1513
     36 H14         0.9716   -9.8801    3.0358 H         1 <0>         0.1401
     37 H15        -0.2613  -11.0649    4.8063 H         1 <0>         0.1592
     38 H16        -1.0942   -7.5054    6.7700 H         1 <0>         0.1568
@<TRIPOS>BOND
     1    1    2 1
     2    1   23 1
     3    1   24 1
     4    1   25 1
     5    2    6 1
     6    2    3 1
     7    3    4 2
     8    3   26 1
     9    4    5 1
    10    4   27 1
    11    5   10 ar
    12    5    6 ar
    13    6    7 ar
    14    7    8 ar
    15    7   28 1
    16    8   13 1
    17    8    9 ar
    18    9   10 ar
    19    9   11 1
    20   10   29 1
    21   11   12 1
    22   11   14 am
    23   12   13 1
    24   12   30 1
    25   12   31 1
    26   13   32 1
    27   13   33 1
    28   14   15 2
    29   14   16 am
    30   16   17 1
    31   16   34 1
    32   17   22 ar
    33   17   18 ar
    34   18   19 ar
    35   18   35 1
    36   19   20 ar
    37   19   36 1
    38   20   21 ar
    39   20   37 1
    40   21   22 ar
    41   22   38 1
@<TRIPOS>MOLECULE
ZINC00016912
   34    36     0     0     0
SMALL
USER_CHARGES

@<TRIPOS>ATOM
      1 C1          2.1048    1.3944   -0.5513 C.3       1 <0>        -0.0860
      2 C2          1.9432   -0.1034   -0.5125 C.2       1 <0>         0.1199
      3 C3          1.2841   -0.7792   -1.5170 C.2       1 <0>        -0.2747
      4 C4          1.2086   -2.1337   -1.3597 C.2       1 <0>         0.0423
      5 S1          2.0105   -2.3894    0.0922 S.3       1 <0>         0.4007
      6 N1          2.4281   -0.8150    0.4740 N.2       1 <0>        -0.4968
      7 N2          0.6112   -3.0735   -2.1991 N.am      1 <0>        -0.6296
      8 C5          0.6381   -4.3811   -1.8738 C.2       1 <0>         0.6995
      9 O1          1.1832   -4.7414   -0.8484 O.2       1 <0>        -0.5390
     10 N3          0.0606   -5.2894   -2.6851 N.am      1 <0>        -0.6695
     11 C6          0.1717   -6.6567   -2.3976 C.ar      1 <0>         0.1283
     12 C7          0.1734   -7.0899   -1.0726 C.ar      1 <0>        -0.0928
     13 C8          0.2822   -8.4290   -0.7733 C.ar      1 <0>        -0.1101
     14 C9          0.3914   -9.3644   -1.7974 C.ar      1 <0>         0.0890
     15 C10         0.3896   -8.9313   -3.1353 C.ar      1 <0>        -0.0922
     16 C11         0.2735   -7.5710   -3.4288 C.ar      1 <0>        -0.0935
     17 C12         0.5175  -10.1402   -3.9530 C.2       1 <0>        -0.2063
     18 C13         0.5858  -11.1808   -3.1077 C.2       1 <0>         0.0554
     19 N4          0.5121  -10.7379   -1.8155 N.pl3     1 <0>        -0.4890
     20 C14         0.5555  -11.5949   -0.6281 C.3       1 <0>         0.0770
     21 H1          3.0278    1.6469   -1.0731 H         1 <0>         0.0812
     22 H2          1.2581    1.8377   -1.0754 H         1 <0>         0.0782
     23 H3          2.1452    1.7819    0.4667 H         1 <0>         0.0785
     24 H4          0.8565   -0.2723   -2.3694 H         1 <0>         0.1532
     25 H5          0.1763   -2.7860   -3.0171 H         1 <0>         0.4178
     26 H6         -0.4318   -4.9968   -3.4679 H         1 <0>         0.4105
     27 H7          0.0890   -6.3682   -0.2736 H         1 <0>         0.1448
     28 H8          0.2832   -8.7536    0.2567 H         1 <0>         0.1240
     29 H9          0.2674   -7.2351   -4.4552 H         1 <0>         0.1269
     30 H10         0.5506  -10.1855   -5.0315 H         1 <0>         0.1479
     31 H11         0.6840  -12.2147   -3.4040 H         1 <0>         0.1693
     32 H12        -0.4571  -11.8970   -0.3609 H         1 <0>         0.0701
     33 H13         1.1547  -12.4803   -0.8407 H         1 <0>         0.0837
     34 H14         1.0012  -11.0450    0.2008 H         1 <0>         0.0813
@<TRIPOS>BOND
     1    1    2 1
     2    1   21 1
     3    1   22 1
     4    1   23 1
     5    2    6 2
     6    2    3 1
     7    3    4 2
     8    3   24 1
     9    4    5 1
    10    4    7 1
    11    5    6 1
    12    7    8 am
    13    7   25 1
    14    8    9 2
    15    8   10 am
    16   10   11 1
    17   10   26 1
    18   11   16 ar
    19   11   12 ar
    20   12   13 ar
    21   12   27 1
    22   13   14 ar
    23   13   28 1
    24   14   19 1
    25   14   15 ar
    26   15   16 ar
    27   15   17 1
    28   16   29 1
    29   17   18 2
    30   17   30 1
    31   18   19 1
    32   18   31 1
    33   19   20 1
    34   20   32 1
    35   20   33 1
    36   20   34 1
@<TRIPOS>MOLECULE
ZINC00057058
   26    27     0     0     0
SMALL
USER_CHARGES

@<TRIPOS>ATOM
      1 C1         -0.0168    1.3880    0.0097 C.ar      1 <0>        -0.1182
      2 C2          1.1587    2.1055    0.0023 C.ar      1 <0>        -0.1024
      3 C3          2.3795    1.4398   -0.0129 C.ar      1 <0>         0.0862
      4 C4          2.4019    0.0334   -0.0206 C.ar      1 <0>        -0.0842
      5 C5          1.2039   -0.6838   -0.0130 C.ar      1 <0>        -0.1143
      6 C6          0.0021   -0.0041    0.0020 C.ar      1 <0>         0.0953
      7 O1         -1.1679   -0.6972    0.0094 O.3       1 <0>        -0.4959
      8 C7          3.8159   -0.3493   -0.0361 C.2       1 <0>        -0.2101
      9 C8          4.5307    0.7870   -0.0369 C.2       1 <0>         0.0918
     10 N1          3.6908    1.8667   -0.0231 N.pl3     1 <0>        -0.5866
     11 H1          3.9751    2.7941   -0.0208 H         1 <0>         0.4248
     12 C9          4.3642   -1.7530   -0.0489 C.3       1 <0>        -0.0616
     13 C10         4.4190   -2.2661   -1.4892 C.3       1 <0>        -0.0080
     14 N2          4.9535   -3.6343   -1.5017 N.4       1 <0>        -0.6389
     15 H2         -0.9621    1.9101    0.0260 H         1 <0>         0.1389
     16 H3          1.1325    3.1852    0.0080 H         1 <0>         0.1315
     17 H4          1.2172   -1.7637   -0.0192 H         1 <0>         0.1256
     18 H5         -1.5147   -0.8930   -0.8718 H         1 <0>         0.3922
     19 H6          5.6093    0.8408   -0.0472 H         1 <0>         0.1750
     20 H7          5.3681   -1.7548    0.3759 H         1 <0>         0.0927
     21 H8          3.7180   -2.4009    0.5433 H         1 <0>         0.0925
     22 H9          3.4152   -2.2643   -1.9140 H         1 <0>         0.1329
     23 H10         5.0652   -1.6182   -2.0814 H         1 <0>         0.1331
     24 H11         5.8827   -3.6360   -1.1085 H         1 <0>         0.4347
     25 H12         4.3553   -4.2341   -0.9535 H         1 <0>         0.4353
     26 H13         4.9896   -3.9727   -2.4515 H         1 <0>         0.4379
@<TRIPOS>BOND
     1    1    6 ar
     2    1    2 ar
     3    1   15 1
     4    2    3 ar
     5    2   16 1
     6    3   10 1
     7    3    4 ar
     8    4    5 ar
     9    4    8 1
    10    5    6 ar
    11    5   17 1
    12    6    7 1
    13    7   18 1
    14    8    9 2
    15    8   12 1
    16    9   10 1
    17    9   19 1
    18   10   11 1
    19   12   13 1
    20   12   20 1
    21   12   21 1
    22   13   14 1
    23   13   22 1
    24   13   23 1
    25   14   24 1
    26   14   25 1
    27   14   26 1
@<TRIPOS>MOLECULE
ZINC19796155
   42    45     0     0     0
SMALL
USER_CHARGES

@<TRIPOS>ATOM
      1 C1         -0.0670    1.4396   -0.3852 C.3       1 <0>         0.0243
      2 N1         -0.0229   -0.0169   -0.1987 N.3       1 <0>        -0.5428
      3 C2          0.3808   -0.6943   -1.4380 C.3       1 <0>         0.0399
      4 C3          0.2401   -2.2095   -1.2572 C.3       1 <0>         0.1263
      5 N2          0.9912   -2.6085   -0.0572 N.pl3     1 <0>        -0.5953
      6 C4          0.7394   -1.8803    1.1955 C.3       1 <0>         0.1122
      7 C5          0.8604   -0.3781    0.9181 C.3       1 <0>         0.0393
      8 C6          1.9051   -3.6365   -0.1053 C.2       1 <0>         0.5098
      9 N3          2.1670   -4.1290   -1.2643 N.2       1 <0>        -0.6041
     10 C7          3.0130   -5.1503   -1.5719 C.ar      1 <0>         0.1655
     11 C8          2.6280   -6.0848   -2.5372 C.ar      1 <0>        -0.1058
     12 C9          3.4872   -7.1047   -2.8991 C.ar      1 <0>        -0.0230
     13 C10         4.7348   -7.2069   -2.3106 C.ar      1 <0>        -0.1209
     14 C11         5.1212   -6.2977   -1.3402 C.ar      1 <0>        -0.1017
     15 C12         4.2618   -5.2835   -0.9546 C.ar      1 <0>         0.1117
     16 N4          4.6314   -4.4326    0.1003 N.pl3     1 <0>        -0.7261
     17 C13         3.8434   -4.4184    1.2519 C.ar      1 <0>         0.2140
     18 C14         2.4943   -4.0640    1.1729 C.ar      1 <0>        -0.1453
     19 C15         1.7072   -4.1133    2.3240 C.ar      1 <0>        -0.0723
     20 C16         2.2727   -4.4729    3.5311 C.ar      1 <0>        -0.1389
     21 C17         3.6189   -4.7825    3.6069 C.ar      1 <0>        -0.0765
     22 C18         4.3974   -4.7629    2.4751 C.ar      1 <0>        -0.1433
     23 Cl1         2.9987   -8.2627   -4.0966 Cl        1 <0>        -0.0679
     24 H1          0.9359    1.8090   -0.5992 H         1 <0>         0.0255
     25 H2         -0.7279    1.6794   -1.2181 H         1 <0>         0.0711
     26 H3         -0.4416    1.9111    0.5233 H         1 <0>         0.0709
     27 H4         -0.2581   -0.3649   -2.2574 H         1 <0>         0.0878
     28 H5          1.4186   -0.4499   -1.6647 H         1 <0>         0.0378
     29 H6         -0.8117   -2.4673   -1.1334 H         1 <0>         0.0720
     30 H7          0.6453   -2.7216   -2.1299 H         1 <0>         0.1060
     31 H8         -0.2645   -2.1065    1.5551 H         1 <0>         0.0792
     32 H9          1.4746   -2.1748    1.9444 H         1 <0>         0.0984
     33 H10         1.8915   -0.1381    0.6586 H         1 <0>         0.0379
     34 H11         0.5693    0.1807    1.8075 H         1 <0>         0.0892
     35 H12         1.6558   -6.0097   -3.0016 H         1 <0>         0.1375
     36 H13         5.4083   -7.9971   -2.6081 H         1 <0>         0.1357
     37 H14         6.0961   -6.3802   -0.8829 H         1 <0>         0.1326
     38 H15         5.4169   -3.8679    0.0299 H         1 <0>         0.4097
     39 H16         0.6563   -3.8699    2.2709 H         1 <0>         0.1344
     40 H17         1.6613   -4.5124    4.4205 H         1 <0>         0.1323
     41 H18         4.0571   -5.0467    4.5580 H         1 <0>         0.1317
     42 H19         5.4473   -5.0071    2.5424 H         1 <0>         0.1313
@<TRIPOS>BOND
     1    1    2 1
     2    1   24 1
     3    1   25 1
     4    1   26 1
     5    2    7 1
     6    2    3 1
     7    3    4 1
     8    3   27 1
     9    3   28 1
    10    4    5 1
    11    4   29 1
    12    4   30 1
    13    5    6 1
    14    5    8 1
    15    6    7 1
    16    6   31 1
    17    6   32 1
    18    7   33 1
    19    7   34 1
    20    8   18 1
    21    8    9 2
    22    9   10 1
    23   10   15 ar
    24   10   11 ar
    25   11   12 ar
    26   11   35 1
    27   12   13 ar
    28   12   23 1
    29   13   14 ar
    30   13   36 1
    31   14   15 ar
    32   14   37 1
    33   15   16 1
    34   16   17 1
    35   16   38 1
    36   17   22 ar
    37   17   18 ar
    38   18   19 ar
    39   19   20 ar
    40   19   39 1
    41   20   21 ar
    42   20   40 1
    43   21   22 ar
    44   21   41 1
    45   22   42 1
@<TRIPOS>MOLECULE
ZINC19796155
   44    47     0     0     0
SMALL
USER_CHARGES

@<TRIPOS>ATOM
      1 C1         -1.5703   -0.0018   -1.9302 C.3       1 <0>        -0.0497
      2 N1         -0.7527   -0.7171   -0.9414 N.4       1 <0>        -0.3854
      3 C2         -1.0498   -2.1535   -1.0104 C.3       1 <0>        -0.0252
      4 C3         -0.2839   -2.8861    0.0962 C.3       1 <0>         0.1048
      5 N2          1.1441   -2.5548   -0.0269 N.pl3     1 <0>        -0.7052
      6 C4          1.5202   -1.1363   -0.1296 C.3       1 <0>         0.1049
      7 C5          0.6692   -0.4862   -1.2256 C.3       1 <0>        -0.0251
      8 C6          2.0831   -3.5253   -0.0448 C.2       1 <0>         0.6309
      9 C7          2.6112   -3.9094    1.2074 C.ar      1 <0>        -0.2438
     10 C8          2.0495   -3.1929    2.2728 C.ar      1 <0>         0.0055
     11 C9          2.4602   -3.4528    3.5483 C.ar      1 <0>        -0.1817
     12 C10         3.4265   -4.4148    3.8208 C.ar      1 <0>         0.0489
     13 C11         4.0101   -5.1439    2.8276 C.ar      1 <0>        -0.2233
     14 C12         3.6302   -4.9235    1.4921 C.ar      1 <0>         0.3343
     15 N3          4.2865   -5.7106    0.6358 N.pl3     1 <0>        -0.6131
     16 C13         4.1767   -5.7728   -0.7271 C.ar      1 <0>         0.1589
     17 C14         5.0408   -6.7320   -1.2562 C.ar      1 <0>        -0.1157
     18 C15         5.0795   -6.9478   -2.6222 C.ar      1 <0>        -0.0495
     19 C16         4.2642   -6.2154   -3.4643 C.ar      1 <0>        -0.0338
     20 C17         3.4016   -5.2585   -2.9468 C.ar      1 <0>        -0.0846
     21 C18         3.3520   -5.0321   -1.5848 C.ar      1 <0>         0.0769
     22 N4          2.4115   -4.0290   -1.2719 N.pl3     1 <0>        -0.5773
     23 Cl1         4.3195   -6.4929   -5.1771 Cl        1 <0>        -0.0159
     24 H1         -1.3348   -0.3678   -2.9295 H         1 <0>         0.1246
     25 H2         -2.6262   -0.1724   -1.7203 H         1 <0>         0.1321
     26 H3         -1.3566    1.0656   -1.8745 H         1 <0>         0.1321
     27 H4         -2.1201   -2.3101   -0.8766 H         1 <0>         0.1569
     28 H5         -0.7442   -2.5415   -1.9820 H         1 <0>         0.1344
     29 H6         -0.6518   -2.5648    1.0707 H         1 <0>         0.1155
     30 H7         -0.4211   -3.9618   -0.0138 H         1 <0>         0.1302
     31 H8          1.3345   -0.6383    0.8220 H         1 <0>         0.1155
     32 H9          2.5758   -1.0551   -0.3891 H         1 <0>         0.1302
     33 H10         0.9228   -0.9247   -2.1907 H         1 <0>         0.1344
     34 H11         0.8655    0.5856   -1.2504 H         1 <0>         0.1569
     35 H12         1.2975   -2.4405    2.0860 H         1 <0>         0.1502
     36 H13         2.0243   -2.8976    4.3657 H         1 <0>         0.1496
     37 H14         3.7223   -4.5886    4.8448 H         1 <0>         0.1558
     38 H15         4.7590   -5.8851    3.0650 H         1 <0>         0.1623
     39 H16         5.6790   -7.3052   -0.6001 H         1 <0>         0.1677
     40 H17         5.7487   -7.6901   -3.0316 H         1 <0>         0.1653
     41 H18         2.7675   -4.6896   -3.6107 H         1 <0>         0.1565
     42 H19         1.9393   -3.6432   -2.0263 H         1 <0>         0.4255
     43 H20         4.9278   -6.3202    1.0333 H         1 <0>         0.4372
     44 H21        -0.9695   -0.3754   -0.0171 H         1 <0>         0.4310
@<TRIPOS>BOND
     1    1    2 1
     2    1   24 1
     3    1   25 1
     4    1   26 1
     5    2    7 1
     6    2    3 1
     7    2   44 1
     8    3    4 1
     9    3   27 1
    10    3   28 1
    11    4    5 1
    12    4   29 1
    13    4   30 1
    14    5    6 1
    15    5    8 1
    16    6    7 1
    17    6   31 1
    18    6   32 1
    19    7   33 1
    20    7   34 1
    21    8   22 1
    22    8    9 2
    23    9   14 ar
    24    9   10 ar
    25   10   11 ar
    26   10   35 1
    27   11   12 ar
    28   11   36 1
    29   12   13 ar
    30   12   37 1
    31   13   14 ar
    32   13   38 1
    33   14   15 2
    34   15   16 1
    35   15   43 1
    36   16   21 ar
    37   16   17 ar
    38   17   18 ar
    39   17   39 1
    40   18   19 ar
    41   18   40 1
    42   19   20 ar
    43   19   23 1
    44   20   21 ar
    45   20   41 1
    46   21   22 1
    47   22   42 1
@<TRIPOS>MOLECULE
ZINC19796155
   43    46     0     0     0
SMALL
USER_CHARGES

@<TRIPOS>ATOM
      1 C1         -0.0523    1.4387   -0.3863 C.3       1 <0>        -0.0469
      2 N1         -0.0147   -0.0168   -0.1908 N.4       1 <0>        -0.3852
      3 C2          0.4863   -0.6601   -1.4120 C.3       1 <0>        -0.0213
      4 C3          0.4181   -2.1823   -1.2510 C.3       1 <0>         0.1002
      5 N2          1.1441   -2.5548   -0.0269 N.pl3     1 <0>        -0.6180
      6 C4          0.8178   -1.8405    1.2170 C.3       1 <0>         0.0860
      7 C5          0.8671   -0.3344    0.9395 C.3       1 <0>        -0.0221
      8 C6          2.1017   -3.5432   -0.0451 C.2       1 <0>         0.5019
      9 N3          2.4234   -4.0210   -1.1951 N.2       1 <0>        -0.5760
     10 C7          3.3217   -5.0050   -1.4750 C.ar      1 <0>         0.1390
     11 C8          3.0096   -5.9522   -2.4541 C.ar      1 <0>        -0.0932
     12 C9          3.9229   -6.9340   -2.7877 C.ar      1 <0>        -0.0267
     13 C10         5.1529   -6.9852   -2.1572 C.ar      1 <0>        -0.1032
     14 C11         5.4673   -6.0631   -1.1730 C.ar      1 <0>        -0.1031
     15 C12         4.5533   -5.0871   -0.8155 C.ar      1 <0>         0.1235
     16 N4          4.8505   -4.2243    0.2524 N.pl3     1 <0>        -0.7273
     17 C13         4.0239   -4.2464    1.3765 C.ar      1 <0>         0.2173
     18 C14         2.6645   -3.9489    1.2520 C.ar      1 <0>        -0.1537
     19 C15         1.8414   -4.0345    2.3754 C.ar      1 <0>        -0.0841
     20 C16         2.3802   -4.3733    3.6007 C.ar      1 <0>        -0.1334
     21 C17         3.7349   -4.6261    3.7220 C.ar      1 <0>        -0.0692
     22 C18         4.5500   -4.5705    2.6174 C.ar      1 <0>        -0.1369
     23 Cl1         3.5248   -8.1083   -4.0027 Cl        1 <0>        -0.0551
     24 H1          0.9534    1.8033   -0.5956 H         1 <0>         0.1211
     25 H2         -0.7066    1.6758   -1.2253 H         1 <0>         0.1256
     26 H3         -0.4316    1.9169    0.5167 H         1 <0>         0.1252
     27 H4         -0.1269   -0.3565   -2.2605 H         1 <0>         0.1425
     28 H5          1.5196   -0.3587   -1.5839 H         1 <0>         0.1315
     29 H6         -0.6226   -2.4957   -1.1694 H         1 <0>         0.0898
     30 H7          0.8819   -2.6629   -2.1125 H         1 <0>         0.1431
     31 H8         -0.1827   -2.1194    1.5479 H         1 <0>         0.0960
     32 H9          1.5457   -2.0950    1.9873 H         1 <0>         0.1385
     33 H10         1.8889   -0.0428    0.6965 H         1 <0>         0.1320
     34 H11         0.5345    0.2092    1.8238 H         1 <0>         0.1439
     35 H12         2.0515   -5.9169   -2.9512 H         1 <0>         0.1396
     36 H13         5.8689   -7.7454   -2.4325 H         1 <0>         0.1422
     37 H14         6.4287   -6.1057   -0.6827 H         1 <0>         0.1382
     38 H15         5.6134   -3.6267    0.2096 H         1 <0>         0.4129
     39 H16         0.7836   -3.8354    2.2868 H         1 <0>         0.1314
     40 H17         1.7411   -4.4409    4.4686 H         1 <0>         0.1357
     41 H18         4.1512   -4.8742    4.6872 H         1 <0>         0.1370
     42 H19         5.6063   -4.7705    2.7202 H         1 <0>         0.1363
     43 H20        -0.9456   -0.3526    0.0057 H         1 <0>         0.4250
@<TRIPOS>BOND
     1    1    2 1
     2    1   24 1
     3    1   25 1
     4    1   26 1
     5    2    7 1
     6    2    3 1
     7    2   43 1
     8    3    4 1
     9    3   27 1
    10    3   28 1
    11    4    5 1
    12    4   29 1
    13    4   30 1
    14    5    6 1
    15    5    8 1
    16    6    7 1
    17    6   31 1
    18    6   32 1
    19    7   33 1
    20    7   34 1
    21    8   18 1
    22    8    9 2
    23    9   10 1
    24   10   15 ar
    25   10   11 ar
    26   11   12 ar
    27   11   35 1
    28   12   13 ar
    29   12   23 1
    30   13   14 ar
    31   13   36 1
    32   14   15 ar
    33   14   37 1
    34   15   16 1
    35   16   17 1
    36   16   38 1
    37   17   22 ar
    38   17   18 ar
    39   18   19 ar
    40   19   20 ar
    41   19   39 1
    42   20   21 ar
    43   20   40 1
    44   21   22 ar
    45   21   41 1
    46   22   42 1
@<TRIPOS>MOLECULE
ZINC00968264
   44    47     0     0     0
SMALL
USER_CHARGES

@<TRIPOS>ATOM
      1 C1         -0.0178    1.4648    0.0101 C.3       1 <0>        -0.0478
      2 N1          0.0021   -0.0041    0.0020 N.4       1 <0>        -0.3841
      3 C2          0.6740   -0.4746   -1.2151 C.3       1 <0>        -0.0028
      4 C3          0.5450   -1.9989   -1.3133 C.3       1 <0>        -0.1085
      5 C4          1.0748   -2.6020   -0.0289 C.2       1 <0>        -0.1670
      6 C5          1.9463   -3.6220   -0.0482 C.2       1 <0>         0.0275
      7 C6          2.4250   -4.1895   -1.3301 C.ar      1 <0>        -0.0560
      8 C7          3.0785   -3.3773   -2.2512 C.ar      1 <0>        -0.1121
      9 C8          3.5665   -3.9181   -3.4240 C.ar      1 <0>        -0.1123
     10 C9          3.4131   -5.2699   -3.6864 C.ar      1 <0>        -0.1066
     11 C10         2.7520   -6.0862   -2.7951 C.ar      1 <0>        -0.0999
     12 C11         2.2259   -5.5538   -1.6113 C.ar      1 <0>        -0.0362
     13 C12         1.4464   -6.4065   -0.7195 C.2       1 <0>        -0.1006
     14 C13         1.4561   -6.4157    0.5971 C.2       1 <0>        -0.0999
     15 C14         2.2540   -5.5751    1.4858 C.ar      1 <0>        -0.0373
     16 C15         2.4604   -4.2071    1.2114 C.ar      1 <0>        -0.0565
     17 C16         3.1556   -3.4081    2.1146 C.ar      1 <0>        -0.1114
     18 C17         3.6869   -3.9641    3.2610 C.ar      1 <0>        -0.1127
     19 C18         3.5355   -5.3176    3.5164 C.ar      1 <0>        -0.1067
     20 C19         2.8191   -6.1278    2.6417 C.ar      1 <0>        -0.0996
     21 C20         0.5864   -2.0126    1.2782 C.3       1 <0>        -0.1083
     22 C21         0.7124   -0.4873    1.1920 C.3       1 <0>        -0.0026
     23 H1          1.0047    1.8421    0.0024 H         1 <0>         0.1214
     24 H2         -0.5450    1.8259   -0.8730 H         1 <0>         0.1241
     25 H3         -0.5280    1.8163    0.9069 H         1 <0>         0.1241
     26 H4          0.2103   -0.0138   -2.0873 H         1 <0>         0.1333
     27 H5          1.7283   -0.2009   -1.1770 H         1 <0>         0.1279
     28 H6         -0.5023   -2.2718   -1.4432 H         1 <0>         0.0981
     29 H7          1.1283   -2.3636   -2.1588 H         1 <0>         0.1230
     30 H8          3.2037   -2.3238   -2.0490 H         1 <0>         0.1227
     31 H9          4.0694   -3.2849   -4.1399 H         1 <0>         0.1302
     32 H10         3.8150   -5.6873   -4.5979 H         1 <0>         0.1314
     33 H11         2.6391   -7.1387   -3.0096 H         1 <0>         0.1325
     34 H12         0.7830   -7.1132   -1.1958 H         1 <0>         0.1237
     35 H13         0.7981   -7.1264    1.0749 H         1 <0>         0.1239
     36 H14         3.2796   -2.3534    1.9184 H         1 <0>         0.1227
     37 H15         4.2233   -3.3416    3.9618 H         1 <0>         0.1303
     38 H16         3.9745   -5.7475    4.4045 H         1 <0>         0.1315
     39 H17         2.7036   -7.1817    2.8475 H         1 <0>         0.1336
     40 H18        -0.4562   -2.2871    1.4386 H         1 <0>         0.0981
     41 H19         1.1963   -2.3861    2.1007 H         1 <0>         0.1228
     42 H20         1.7651   -0.2131    1.1231 H         1 <0>         0.1280
     43 H21         0.2770   -0.0359    2.0834 H         1 <0>         0.1333
     44 H22        -0.9452   -0.3513    0.0141 H         1 <0>         0.4247
@<TRIPOS>BOND
     1    1    2 1
     2    1   23 1
     3    1   24 1
     4    1   25 1
     5    2   22 1
     6    2    3 1
     7    2   44 1
     8    3    4 1
     9    3   26 1
    10    3   27 1
    11    4    5 1
    12    4   28 1
    13    4   29 1
    14    5    6 2
    15    5   21 1
    16    6   16 1
    17    6    7 1
    18    7   12 ar
    19    7    8 ar
    20    8    9 ar
    21    8   30 1
    22    9   10 ar
    23    9   31 1
    24   10   11 ar
    25   10   32 1
    26   11   12 ar
    27   11   33 1
    28   12   13 1
    29   13   14 2
    30   13   34 1
    31   14   15 1
    32   14   35 1
    33   15   20 ar
    34   15   16 ar
    35   16   17 ar
    36   17   18 ar
    37   17   36 1
    38   18   19 ar
    39   18   37 1
    40   19   20 ar
    41   19   38 1
    42   20   39 1
    43   21   22 1
    44   21   40 1
    45   21   41 1
    46   22   42 1
    47   22   43 1
@<TRIPOS>MOLECULE
ZINC00537822
   50    52     0     0     0
SMALL
USER_CHARGES

@<TRIPOS>ATOM
      1 C1         -0.0169    1.3952    0.0097 C.ar      1 <0>        -0.0260
      2 C2          1.1683    2.0970    0.0022 C.ar      1 <0>        -0.1650
      3 C3          2.3789    1.4198   -0.0130 C.ar      1 <0>         0.1439
      4 C4          2.4047    0.0329   -0.0212 C.ar      1 <0>        -0.1670
      5 C5          1.2267   -0.6810   -0.0142 C.ar      1 <0>        -0.0432
      6 C6          0.0021   -0.0041    0.0020 C.ar      1 <0>        -0.1967
      7 C7         -1.2591   -0.7596    0.0105 C.2       1 <0>         0.4038
      8 O1         -2.3189   -0.1702    0.0242 O.2       1 <0>        -0.4483
      9 C8         -1.2348   -2.2664    0.0022 C.3       1 <0>        -0.1653
     10 C9         -2.6689   -2.7996    0.0135 C.3       1 <0>        -0.1429
     11 C10        -2.6443   -4.3293    0.0051 C.3       1 <0>        -0.0092
     12 N1         -4.0211   -4.8413    0.0160 N.4       1 <0>        -0.3830
     13 C11        -4.6726   -4.4620    1.2755 C.3       1 <0>        -0.0093
     14 C12        -6.1318   -4.9225    1.2582 C.3       1 <0>        -0.1330
     15 C13        -6.1791   -6.4445    1.0954 C.3       1 <0>         0.1746
     16 C14        -5.4322   -6.8346   -0.1834 C.3       1 <0>        -0.1706
     17 C15        -3.9990   -6.3033   -0.1127 C.3       1 <0>        -0.0017
     18 C16        -7.6135   -6.8966    0.9991 C.ar      1 <0>        -0.1262
     19 C17        -8.5661   -6.0599    0.4482 C.ar      1 <0>        -0.1006
     20 C18        -9.8818   -6.4740    0.3596 C.ar      1 <0>        -0.1039
     21 C19       -10.2453   -7.7262    0.8224 C.ar      1 <0>        -0.0247
     22 C20        -9.2914   -8.5631    1.3735 C.ar      1 <0>        -0.1016
     23 C21        -7.9750   -8.1501    1.4564 C.ar      1 <0>        -0.0934
     24 Cl1       -11.8977   -8.2468    0.7119 Cl        1 <0>        -0.0500
     25 O2         -5.5554   -7.0652    2.2213 O.3       1 <0>        -0.5474
     26 F1          3.5378    2.1141   -0.0204 F         1 <0>        -0.1258
     27 H1         -0.9587    1.9236    0.0260 H         1 <0>         0.1459
     28 H2          1.1551    3.1769    0.0077 H         1 <0>         0.1477
     29 H3          3.3506   -0.4883   -0.0334 H         1 <0>         0.1469
     30 H4          1.2482   -1.7608   -0.0213 H         1 <0>         0.1412
     31 H5         -0.7241   -2.6166   -0.8948 H         1 <0>         0.1127
     32 H6         -0.7064   -2.6261    0.8850 H         1 <0>         0.1127
     33 H7         -3.1796   -2.4493    0.9105 H         1 <0>         0.0952
     34 H8         -3.1973   -2.4398   -0.8693 H         1 <0>         0.0947
     35 H9         -2.1335   -4.6796   -0.8919 H         1 <0>         0.1333
     36 H10        -2.1158   -4.6891    0.8880 H         1 <0>         0.1327
     37 H11        -4.1530   -4.9339    2.1093 H         1 <0>         0.1388
     38 H12        -4.6353   -3.3788    1.3915 H         1 <0>         0.1356
     39 H13        -6.6132   -4.6415    2.1949 H         1 <0>         0.1238
     40 H14        -6.6524   -4.4509    0.4248 H         1 <0>         0.1045
     41 H15        -5.4137   -7.9204   -0.2771 H         1 <0>         0.1175
     42 H16        -5.9384   -6.4027   -1.0467 H         1 <0>         0.1009
     43 H17        -3.4644   -6.5795   -1.0215 H         1 <0>         0.1329
     44 H18        -3.4937   -6.7360    0.7507 H         1 <0>         0.1354
     45 H19        -8.2824   -5.0823    0.0874 H         1 <0>         0.1334
     46 H20       -10.6260   -5.8201   -0.0704 H         1 <0>         0.1408
     47 H21        -9.5746   -9.5405    1.7352 H         1 <0>         0.1414
     48 H22        -7.2294   -8.8051    1.8823 H         1 <0>         0.1323
     49 H23        -5.5495   -8.0314    2.1846 H         1 <0>         0.3907
     50 H24        -4.5327   -4.4442   -0.7578 H         1 <0>         0.4215
@<TRIPOS>BOND
     1    1    6 ar
     2    1    2 ar
     3    1   27 1
     4    2    3 ar
     5    2   28 1
     6    3    4 ar
     7    3   26 1
     8    4    5 ar
     9    4   29 1
    10    5    6 ar
    11    5   30 1
    12    6    7 1
    13    7    8 2
    14    7    9 1
    15    9   10 1
    16    9   31 1
    17    9   32 1
    18   10   11 1
    19   10   33 1
    20   10   34 1
    21   11   12 1
    22   11   35 1
    23   11   36 1
    24   12   17 1
    25   12   13 1
    26   12   50 1
    27   13   14 1
    28   13   37 1
    29   13   38 1
    30   14   15 1
    31   14   39 1
    32   14   40 1
    33   15   16 1
    34   15   18 1
    35   15   25 1
    36   16   17 1
    37   16   41 1
    38   16   42 1
    39   17   43 1
    40   17   44 1
    41   18   23 ar
    42   18   19 ar
    43   19   20 ar
    44   19   45 1
    45   20   21 ar
    46   20   46 1
    47   21   22 ar
    48   21   24 1
    49   22   23 ar
    50   22   47 1
    51   23   48 1
    52   25   49 1
@<TRIPOS>MOLECULE
ZINC00004902
   43    45     0     0     0
SMALL
USER_CHARGES
2-[1-(cyclopropylmethyl)-4-piperidyl]-1-(4-fluorophenyl)-ethanone
@<TRIPOS>ATOM
      1 C1          0.1244    4.3770    0.4529 C.ar      1 <0>        -0.0426
      2 C2          0.2731    5.7438    0.5364 C.ar      1 <0>        -0.1669
      3 C3          1.5348    6.3139    0.4495 C.ar      1 <0>         0.1434
      4 C4          2.6549    5.5124    0.2845 C.ar      1 <0>        -0.1657
      5 C5          2.5207    4.1438    0.2057 C.ar      1 <0>        -0.0266
      6 C6          1.2508    3.5623    0.2922 C.ar      1 <0>        -0.1973
      7 C7          1.1001    2.1023    0.2084 C.2       1 <0>         0.4030
      8 O1          2.0776    1.3991    0.0641 O.2       1 <0>        -0.4504
      9 C8         -0.2690    1.4795    0.3018 C.3       1 <0>        -0.1557
     10 C9         -0.1465   -0.0413    0.1869 C.3       1 <0>        -0.0930
     11 C10         0.3634   -0.4095   -1.2091 C.3       1 <0>        -0.1515
     12 C11         0.4259   -1.9331   -1.3386 C.3       1 <0>         0.0026
     13 C12        -1.4021   -2.1989    0.2298 C.3       1 <0>        -0.0018
     14 C13        -1.5192   -0.6832    0.4061 C.3       1 <0>        -0.1439
     15 C14        -0.9178   -3.9464   -1.3740 C.3       1 <0>         0.0307
     16 C15         0.1284   -4.6238   -0.4865 C.3       1 <0>        -0.2078
     17 C16         1.2961   -5.3268   -1.1816 C.3       1 <0>        -0.1676
     18 C17         0.1947   -6.1521   -0.5132 C.3       1 <0>        -0.1506
     19 F1          1.6733    7.6556    0.5265 F         1 <0>        -0.1260
     20 H1         -0.8588    3.9347    0.5161 H         1 <0>         0.1412
     21 H2         -0.5949    6.3734    0.6652 H         1 <0>         0.1468
     22 H3          3.6344    5.9625    0.2179 H         1 <0>         0.1473
     23 H4          3.3937    3.5209    0.0779 H         1 <0>         0.1455
     24 H5         -0.8435    1.8247   -0.4403 H         1 <0>         0.0969
     25 H6         -0.7203    1.7362    1.2602 H         1 <0>         0.1123
     26 H7          0.5517   -0.4083    0.9392 H         1 <0>         0.0970
     27 H8         -0.3149   -0.0078   -1.9619 H         1 <0>         0.0849
     28 H9          1.3591    0.0093   -1.3551 H         1 <0>         0.1242
     29 H10         1.1149   -2.3328   -0.5946 H         1 <0>         0.1315
     30 H11         0.7750   -2.1987   -2.3364 H         1 <0>         0.1272
     31 H12        -0.7045   -2.5974    0.9665 H         1 <0>         0.1293
     32 H13        -2.3807   -2.6576    0.3710 H         1 <0>         0.1296
     33 H14        -1.8685   -0.4601    1.4142 H         1 <0>         0.1136
     34 H15        -2.2271   -0.2859   -0.3213 H         1 <0>         0.0902
     35 H16        -1.9041   -4.3507   -1.1462 H         1 <0>         0.1305
     36 H17        -0.6815   -4.1334   -2.4215 H         1 <0>         0.1275
     37 H18         0.3321   -4.1277    0.4625 H         1 <0>         0.1226
     38 H19         1.3189   -5.3068   -2.2712 H         1 <0>         0.1056
     39 H20         2.2684   -5.2932   -0.6900 H         1 <0>         0.1092
     40 H21         0.4424   -6.6614    0.4181 H         1 <0>         0.1112
     41 H22        -0.5072   -6.6750   -1.1627 H         1 <0>         0.1071
     42 N1         -0.9302   -2.4874   -1.1413 N.4       1 <0>        -0.3915
     43 H23        -1.5705   -2.0482   -1.8132 H         1 <0>         0.4281
@<TRIPOS>BOND
     1    1    6 ar
     2    1    2 ar
     3    1   20 1
     4    2    3 ar
     5    2   21 1
     6    3    4 ar
     7    3   19 1
     8    4    5 ar
     9    4   22 1
    10    5    6 ar
    11    5   23 1
    12    6    7 1
    13    7    8 2
    14    7    9 1
    15    9   10 1
    16    9   24 1
    17    9   25 1
    18   10   14 1
    19   10   11 1
    20   10   26 1
    21   11   12 1
    22   11   27 1
    23   11   28 1
    24   12   29 1
    25   12   30 1
    26   12   42 1
    27   13   14 1
    28   13   31 1
    29   13   32 1
    30   13   42 1
    31   14   33 1
    32   14   34 1
    33   15   16 1
    34   15   35 1
    35   15   36 1
    36   15   42 1
    37   16   18 1
    38   16   17 1
    39   16   37 1
    40   17   18 1
    41   17   38 1
    42   17   39 1
    43   18   40 1
    44   18   41 1
    45   42   43 1
@<TRIPOS>MOLECULE
ZINC13730124
   54    56     0     0     0
SMALL
USER_CHARGES
methyl 4-[[4-[(4-fluorophenyl)methoxymethyl]-1-piperidyl]methyl]benzoate
@<TRIPOS>ATOM
      1 C1         -7.8265   -6.0645   -8.5432 C.3       1 <0>         0.0353
      2 O1         -6.4871   -6.3766   -8.0776 O.3       1 <0>        -0.3532
      3 C2         -5.5385   -5.4399   -8.2713 C.2       1 <0>         0.4978
      4 O2         -5.8226   -4.3911   -8.8142 O.2       1 <0>        -0.4878
      5 C3         -4.1529   -5.6883   -7.8234 C.ar      1 <0>        -0.0863
      6 C4         -3.1672   -4.7195   -8.0226 C.ar      1 <0>        -0.0519
      7 C5         -1.8754   -4.9578   -7.6015 C.ar      1 <0>        -0.1051
      8 C6         -1.5554   -6.1534   -6.9830 C.ar      1 <0>        -0.1305
      9 C7         -2.5261   -7.1199   -6.7872 C.ar      1 <0>        -0.1048
     10 C8         -3.8230   -6.8926   -7.1986 C.ar      1 <0>        -0.0578
     11 C9         -0.1419   -6.4068   -6.5261 C.3       1 <0>         0.0448
     12 C10         1.3030   -6.3707   -4.5841 C.3       1 <0>         0.0014
     13 C11         1.3733   -5.9843   -3.1049 C.3       1 <0>        -0.1428
     14 C12         1.2295   -4.4657   -2.9718 C.3       1 <0>        -0.0982
     15 C13        -0.0933   -4.0286   -3.6071 C.3       1 <0>        -0.1385
     16 C14        -0.1212   -4.4717   -5.0717 C.3       1 <0>        -0.0084
     17 C15         1.2380   -4.0792   -1.4914 C.3       1 <0>         0.0630
     18 O3          1.2210   -2.6554   -1.3708 O.3       1 <0>        -0.3815
     19 C16         1.2273   -2.1863   -0.0209 C.3       1 <0>         0.1085
     20 C17         1.2082   -0.6795   -0.0127 C.ar      1 <0>        -0.1117
     21 C18         0.0021   -0.0041    0.0020 C.ar      1 <0>        -0.0686
     22 C19        -0.0167    1.3778    0.0096 C.ar      1 <0>        -0.1567
     23 C20         1.1732    2.0858    0.0021 C.ar      1 <0>         0.1124
     24 C21         2.3806    1.4083   -0.0131 C.ar      1 <0>        -0.1558
     25 C22         2.3969    0.0264   -0.0202 C.ar      1 <0>        -0.0673
     26 F1          1.1561    3.4366    0.0090 F         1 <0>        -0.1339
     27 H1         -7.8053   -5.8871   -9.6184 H         1 <0>         0.0695
     28 H2         -8.4908   -6.9009   -8.3260 H         1 <0>         0.1104
     29 H3         -8.1890   -5.1711   -8.0346 H         1 <0>         0.0691
     30 H4         -3.4157   -3.7857   -8.5049 H         1 <0>         0.1515
     31 H5         -1.1121   -4.2092   -7.7546 H         1 <0>         0.1430
     32 H6         -2.2687   -8.0526   -6.3075 H         1 <0>         0.1422
     33 H7         -4.5807   -7.6459   -7.0412 H         1 <0>         0.1523
     34 H8          0.5513   -5.8739   -7.1769 H         1 <0>         0.1408
     35 H9          0.0679   -7.4755   -6.5693 H         1 <0>         0.1396
     36 H10         2.1188   -5.8903   -5.1241 H         1 <0>         0.1328
     37 H11         1.3908   -7.4528   -4.6813 H         1 <0>         0.1318
     38 H12         2.3328   -6.2965   -2.6925 H         1 <0>         0.1155
     39 H13         0.5660   -6.4753   -2.5617 H         1 <0>         0.0905
     40 H14         2.0589   -3.9751   -3.4811 H         1 <0>         0.0987
     41 H15        -0.9238   -4.4889   -3.0718 H         1 <0>         0.0860
     42 H16        -0.1818   -2.9435   -3.5535 H         1 <0>         0.1193
     43 H17         0.7013   -4.0001   -5.6095 H         1 <0>         0.1321
     44 H18        -1.0678   -4.1745   -5.5231 H         1 <0>         0.1291
     45 H19         2.1374   -4.4732   -1.0182 H         1 <0>         0.0606
     46 H20         0.3577   -4.4958   -1.0020 H         1 <0>         0.0559
     47 H21         2.1265   -2.5411    0.4828 H         1 <0>         0.0643
     48 H22         0.3467   -2.5637    0.4990 H         1 <0>         0.0633
     49 H23        -0.9259   -0.5565    0.0079 H         1 <0>         0.1328
     50 H24        -0.9591    1.9052    0.0169 H         1 <0>         0.1398
     51 H25         3.3093    1.9595   -0.0194 H         1 <0>         0.1404
     52 H26         3.3385   -0.5023   -0.0313 H         1 <0>         0.1340
     53 N1         -0.0031   -5.9443   -5.1297 N.4       1 <0>        -0.3936
     54 H27        -0.7521   -6.3611   -4.5645 H         1 <0>         0.4264
@<TRIPOS>BOND
     1    1    2 1
     2    1   27 1
     3    1   28 1
     4    1   29 1
     5    2    3 1
     6    3    4 2
     7    3    5 1
     8    5   10 ar
     9    5    6 ar
    10    6    7 ar
    11    6   30 1
    12    7    8 ar
    13    7   31 1
    14    8    9 ar
    15    8   11 1
    16    9   10 ar
    17    9   32 1
    18   10   33 1
    19   11   34 1
    20   11   35 1
    21   11   53 1
    22   12   13 1
    23   12   36 1
    24   12   37 1
    25   12   53 1
    26   13   14 1
    27   13   38 1
    28   13   39 1
    29   14   15 1
    30   14   17 1
    31   14   40 1
    32   15   16 1
    33   15   41 1
    34   15   42 1
    35   16   43 1
    36   16   44 1
    37   16   53 1
    38   17   18 1
    39   17   45 1
    40   17   46 1
    41   18   19 1
    42   19   20 1
    43   19   47 1
    44   19   48 1
    45   20   25 ar
    46   20   21 ar
    47   21   22 ar
    48   21   49 1
    49   22   23 ar
    50   22   50 1
    51   23   24 ar
    52   23   26 1
    53   24   25 ar
    54   24   51 1
    55   25   52 1
    56   53   54 1
@<TRIPOS>MOLECULE
ZINC00013635
   48    50     0     0     0
SMALL
USER_CHARGES
1-(4-fluorophenyl)-4-[4-(5-fluoropyrimidin-2-yl)piperazin-1-yl]-butan-1-ol
@<TRIPOS>ATOM
      1 C1          1.0412    1.5837    3.0363 C.ar      1 <0>        -0.0821
      2 C2          1.6394    1.0387    4.1565 C.ar      1 <0>        -0.1487
      3 C3          1.1287   -0.1186    4.7195 C.ar      1 <0>         0.1092
      4 C4          0.0154   -0.7251    4.1629 C.ar      1 <0>        -0.1494
      5 C5         -0.5848   -0.1748    3.0463 C.ar      1 <0>        -0.0791
      6 C6         -0.0738    0.9805    2.4848 C.ar      1 <0>        -0.1421
      7 C7         -0.7288    1.5792    1.2668 C.3       1 <0>         0.1541
      8 H1         -1.7755    1.2768    1.2315 H         1 <0>         0.1127
      9 C8         -0.0127    1.0858    0.0080 C.3       1 <0>        -0.1461
     10 C9         -0.7527    1.5927   -1.2315 C.3       1 <0>        -0.1479
     11 C10        -0.0366    1.0992   -2.4903 C.3       1 <0>        -0.0043
     12 C11        -2.0820    0.9798   -3.7813 C.3       1 <0>         0.0008
     13 C12        -2.8179    1.5708   -4.9862 C.3       1 <0>         0.0351
     14 N1         -2.0359    1.3212   -6.2051 N.pl3     1 <0>        -0.4598
     15 C13        -0.7009    1.9272   -6.1043 C.3       1 <0>         0.0392
     16 C14         0.0349    1.3363   -4.8994 C.3       1 <0>         0.0015
     17 C15        -2.7060    1.7802   -7.3275 C.ar      1 <0>         0.4661
     18 N2         -2.1100    2.6561   -8.1225 N.ar      1 <0>        -0.5236
     19 C16        -2.7192    3.1114   -9.2050 C.ar      1 <0>         0.1560
     20 C17        -4.0015    2.6679   -9.4965 C.ar      1 <0>        -0.0098
     21 C18        -4.5973    1.7540   -8.6388 C.ar      1 <0>         0.1581
     22 N3         -3.9289    1.3363   -7.5762 N.ar      1 <0>        -0.4963
     23 F1         -4.6552    3.1161  -10.5905 F         1 <0>        -0.1081
     24 O1         -0.6468    3.0043    1.3339 O.3       1 <0>        -0.5522
     25 F2          1.7165   -0.6559    5.8109 F         1 <0>        -0.1327
     26 H2          1.4424    2.4836    2.5939 H         1 <0>         0.1302
     27 H3          2.5075    1.5128    4.5901 H         1 <0>         0.1407
     28 H4         -0.3836   -1.6280    4.6010 H         1 <0>         0.1411
     29 H5         -1.4532   -0.6477    2.6119 H         1 <0>         0.1345
     30 H6          0.0021   -0.0041    0.0020 H         1 <0>         0.0879
     31 H7          1.0099    1.4631    0.0003 H         1 <0>         0.0808
     32 H8         -1.7753    1.2154   -1.2238 H         1 <0>         0.0887
     33 H9         -0.7675    2.6825   -1.2255 H         1 <0>         0.0946
     34 H10         0.9860    1.4765   -2.4981 H         1 <0>         0.1312
     35 H11        -0.0218    0.0093   -2.4963 H         1 <0>         0.1334
     36 H12        -1.9834   -0.0982   -3.9084 H         1 <0>         0.1445
     37 H13        -2.6460    1.1891   -2.8723 H         1 <0>         0.1430
     38 H14        -2.9406    2.6448   -4.8464 H         1 <0>         0.0716
     39 H15        -3.7974    1.1020   -5.0802 H         1 <0>         0.1406
     40 H16        -0.7996    3.0053   -5.9772 H         1 <0>         0.0805
     41 H17        -0.1369    1.7180   -7.0132 H         1 <0>         0.1355
     42 H18         1.0143    1.8054   -4.8055 H         1 <0>         0.1423
     43 H19         0.1580    0.2623   -5.0390 H         1 <0>         0.1418
     44 H20        -2.2262    3.8222   -9.8517 H         1 <0>         0.1904
     45 H21        -5.5941    1.3881   -8.8363 H         1 <0>         0.1926
     46 H22         0.2576    3.3450    1.3680 H         1 <0>         0.3776
     47 N4         -0.7508    1.6135   -3.6783 N.4       1 <0>        -0.4002
     48 H23        -0.8709    2.6286   -3.5819 H         1 <0>         0.4263
@<TRIPOS>BOND
     1    1    6 ar
     2    1    2 ar
     3    1   26 1
     4    2    3 ar
     5    2   27 1
     6    3    4 ar
     7    3   25 1
     8    4    5 ar
     9    4   28 1
    10    5    6 ar
    11    5   29 1
    12    6    7 1
    13    7    8 1
    14    7    9 1
    15    7   24 1
    16    9   10 1
    17    9   30 1
    18    9   31 1
    19   10   11 1
    20   10   32 1
    21   10   33 1
    22   11   34 1
    23   11   35 1
    24   11   47 1
    25   12   13 1
    26   12   36 1
    27   12   37 1
    28   12   47 1
    29   13   14 1
    30   13   38 1
    31   13   39 1
    32   14   15 1
    33   14   17 1
    34   15   16 1
    35   15   40 1
    36   15   41 1
    37   16   42 1
    38   16   43 1
    39   16   47 1
    40   17   22 ar
    41   17   18 ar
    42   18   19 ar
    43   19   20 ar
    44   19   44 1
    45   20   21 ar
    46   20   23 1
    47   21   22 ar
    48   21   45 1
    49   24   46 1
    50   47   48 1
@<TRIPOS>MOLECULE
ZINC03995923
   48    50     0     0     0
SMALL
USER_CHARGES

@<TRIPOS>ATOM
      1 C1         -0.0167    1.3782    0.0096 C.ar      1 <0>        -0.0781
      2 C2          1.1703    2.0860    0.0021 C.ar      1 <0>        -0.1497
      3 C3          2.3786    1.4101   -0.0131 C.ar      1 <0>         0.1097
      4 C4          2.3962    0.0256   -0.0207 C.ar      1 <0>        -0.1490
      5 C5          1.2079   -0.6800   -0.0132 C.ar      1 <0>        -0.0821
      6 C6          0.0021   -0.0041    0.0020 C.ar      1 <0>        -0.1424
      7 C7         -1.2930   -0.7747    0.0103 C.3       1 <0>         0.1543
      8 H1         -2.0956   -0.1325    0.3729 H         1 <0>         0.1124
      9 C8         -1.6168   -1.2431   -1.4098 C.3       1 <0>        -0.1464
     10 C9         -2.9905   -1.9166   -1.4239 C.3       1 <0>        -0.1466
     11 C10        -3.3143   -2.3850   -2.8440 C.3       1 <0>        -0.0104
     12 N1         -4.6332   -3.0316   -2.8576 N.4       1 <0>        -0.3844
     13 C11        -5.6646   -2.0428   -2.5191 C.3       1 <0>        -0.0257
     14 C12        -7.0258   -2.7393   -2.4206 C.3       1 <0>         0.1070
     15 N2         -7.2699   -3.4658   -3.6763 N.pl3     1 <0>        -0.6032
     16 C13        -6.2137   -4.3590   -4.1770 C.3       1 <0>         0.1066
     17 C14        -4.8909   -3.5860   -4.1926 C.3       1 <0>        -0.0203
     18 C15        -8.4609   -3.3134   -4.3675 C.ar      1 <0>         0.5493
     19 N3         -9.3862   -2.4962   -3.8876 N.ar      1 <0>        -0.5400
     20 C16       -10.5347   -2.3272   -4.5222 C.ar      1 <0>         0.1757
     21 C17       -10.7629   -3.0188   -5.7035 C.ar      1 <0>        -0.0428
     22 C18        -9.7713   -3.8665   -6.1770 C.ar      1 <0>         0.1757
     23 N4         -8.6439   -3.9844   -5.4947 N.ar      1 <0>        -0.5402
     24 F1        -11.9244   -2.8705   -6.3773 F         1 <0>        -0.1137
     25 O1         -1.1663   -1.9098    0.8690 O.3       1 <0>        -0.5517
     26 F2          3.5396    2.1009   -0.0209 F         1 <0>        -0.1326
     27 H2         -0.9592    1.9052    0.0260 H         1 <0>         0.1346
     28 H3          1.1554    3.1659    0.0077 H         1 <0>         0.1412
     29 H4          3.3381   -0.5027   -0.0329 H         1 <0>         0.1407
     30 H5          1.2213   -1.7599   -0.0195 H         1 <0>         0.1299
     31 H6         -1.6258   -0.3852   -2.0822 H         1 <0>         0.0870
     32 H7         -0.8598   -1.9549   -1.7391 H         1 <0>         0.0808
     33 H8         -2.9815   -2.7744   -0.7516 H         1 <0>         0.0962
     34 H9         -3.7475   -1.2048   -1.0947 H         1 <0>         0.0889
     35 H10        -3.3233   -1.5271   -3.5164 H         1 <0>         0.1293
     36 H11        -2.5573   -3.0968   -3.1733 H         1 <0>         0.1327
     37 H12        -5.4236   -1.5790   -1.5626 H         1 <0>         0.1466
     38 H13        -5.7031   -1.2778   -3.2946 H         1 <0>         0.1328
     39 H14        -7.0185   -3.4413   -1.5868 H         1 <0>         0.0945
     40 H15        -7.8080   -1.9952   -2.2699 H         1 <0>         0.1410
     41 H16        -6.1244   -5.2246   -3.5205 H         1 <0>         0.0944
     42 H17        -6.4590   -4.6858   -5.1875 H         1 <0>         0.1412
     43 H18        -4.9528   -2.7743   -4.9175 H         1 <0>         0.1325
     44 H19        -4.0797   -4.2594   -4.4692 H         1 <0>         0.1453
     45 H20       -11.2854   -1.6597   -4.1256 H         1 <0>         0.1886
     46 H21        -9.9165   -4.4199   -7.0930 H         1 <0>         0.1886
     47 H22        -0.4692   -2.5262    0.6060 H         1 <0>         0.3777
     48 H23        -4.6484   -3.7762   -2.1768 H         1 <0>         0.4241
@<TRIPOS>BOND
     1    1    6 ar
     2    1    2 ar
     3    1   27 1
     4    2    3 ar
     5    2   28 1
     6    3    4 ar
     7    3   26 1
     8    4    5 ar
     9    4   29 1
    10    5    6 ar
    11    5   30 1
    12    6    7 1
    13    7    8 1
    14    7    9 1
    15    7   25 1
    16    9   10 1
    17    9   31 1
    18    9   32 1
    19   10   11 1
    20   10   33 1
    21   10   34 1
    22   11   12 1
    23   11   35 1
    24   11   36 1
    25   12   17 1
    26   12   13 1
    27   12   48 1
    28   13   14 1
    29   13   37 1
    30   13   38 1
    31   14   15 1
    32   14   39 1
    33   14   40 1
    34   15   16 1
    35   15   18 1
    36   16   17 1
    37   16   41 1
    38   16   42 1
    39   17   43 1
    40   17   44 1
    41   18   23 ar
    42   18   19 ar
    43   19   20 ar
    44   20   21 ar
    45   20   45 1
    46   21   22 ar
    47   21   24 1
    48   22   23 ar
    49   22   46 1
    50   25   47 1
@<TRIPOS>MOLECULE
ZINC03995923
   47    49     0     0     0
SMALL
USER_CHARGES

@<TRIPOS>ATOM
      1 C1         -0.0167    1.3782    0.0096 C.ar      1 <0>        -0.0807
      2 C2          1.1703    2.0860    0.0021 C.ar      1 <0>        -0.1505
      3 C3          2.3786    1.4101   -0.0131 C.ar      1 <0>         0.0991
      4 C4          2.3962    0.0256   -0.0207 C.ar      1 <0>        -0.1496
      5 C5          1.2079   -0.6800   -0.0132 C.ar      1 <0>        -0.0833
      6 C6          0.0021   -0.0041    0.0020 C.ar      1 <0>        -0.1286
      7 C7         -1.2930   -0.7747    0.0103 C.3       1 <0>         0.1510
      8 H1         -2.0956   -0.1325    0.3729 H         1 <0>         0.1092
      9 C8         -1.6168   -1.2431   -1.4098 C.3       1 <0>        -0.1459
     10 C9         -2.9905   -1.9166   -1.4239 C.3       1 <0>        -0.1128
     11 C10        -3.3143   -2.3850   -2.8440 C.3       1 <0>         0.0557
     12 N1         -4.6332   -3.0316   -2.8576 N.3       1 <0>        -0.5375
     13 C11        -5.6963   -2.0657   -2.5496 C.3       1 <0>         0.0377
     14 C12        -7.0277   -2.8084   -2.3950 C.3       1 <0>         0.1302
     15 N2         -7.2538   -3.6182   -3.6018 N.pl3     1 <0>        -0.5802
     16 C13        -6.1757   -4.5115   -4.0524 C.3       1 <0>         0.1305
     17 C14        -4.8779   -3.7017   -4.1417 C.3       1 <0>         0.0409
     18 C15        -8.4505   -3.5418   -4.2955 C.ar      1 <0>         0.5595
     19 N3         -9.3969   -2.7223   -3.8627 N.ar      1 <0>        -0.5478
     20 C16       -10.5515   -2.6247   -4.5010 C.ar      1 <0>         0.1770
     21 C17       -10.7639   -3.3942   -5.6363 C.ar      1 <0>        -0.0771
     22 C18        -9.7505   -4.2419   -6.0611 C.ar      1 <0>         0.1769
     23 N4         -8.6183   -4.2861   -5.3782 N.ar      1 <0>        -0.5481
     24 F1        -11.9312   -3.3201   -6.3125 F         1 <0>        -0.1263
     25 O1         -1.1663   -1.9098    0.8690 O.3       1 <0>        -0.5504
     26 F2          3.5396    2.1009   -0.0209 F         1 <0>        -0.1381
     27 H2         -0.9592    1.9052    0.0260 H         1 <0>         0.1345
     28 H3          1.1554    3.1659    0.0077 H         1 <0>         0.1378
     29 H4          3.3381   -0.5027   -0.0329 H         1 <0>         0.1376
     30 H5          1.2213   -1.7599   -0.0195 H         1 <0>         0.1309
     31 H6         -1.6258   -0.3852   -2.0822 H         1 <0>         0.0733
     32 H7         -0.8598   -1.9549   -1.7391 H         1 <0>         0.0697
     33 H8         -2.9815   -2.7744   -0.7516 H         1 <0>         0.0813
     34 H9         -3.7475   -1.2048   -1.0947 H         1 <0>         0.0639
     35 H10        -3.3233   -1.5271   -3.5164 H         1 <0>         0.0330
     36 H11        -2.5573   -3.0968   -3.1733 H         1 <0>         0.0762
     37 H12        -5.4589   -1.5475   -1.6204 H         1 <0>         0.0936
     38 H13        -5.7758   -1.3414   -3.3603 H         1 <0>         0.0376
     39 H14        -6.9852   -3.4581   -1.5208 H         1 <0>         0.0769
     40 H15        -7.8377   -2.0881   -2.2804 H         1 <0>         0.1022
     41 H16        -6.0514   -5.3249   -3.3375 H         1 <0>         0.0769
     42 H17        -6.4224   -4.9172   -5.0336 H         1 <0>         0.1024
     43 H18        -4.9687   -2.9547   -4.9303 H         1 <0>         0.0380
     44 H19        -4.0469   -4.3701   -4.3673 H         1 <0>         0.0904
     45 H20       -11.3194   -1.9549   -4.1429 H         1 <0>         0.1795
     46 H21        -9.8830   -4.8548   -6.9404 H         1 <0>         0.1794
     47 H22        -0.4692   -2.5262    0.6060 H         1 <0>         0.3740
@<TRIPOS>BOND
     1    1    6 ar
     2    1    2 ar
     3    1   27 1
     4    2    3 ar
     5    2   28 1
     6    3    4 ar
     7    3   26 1
     8    4    5 ar
     9    4   29 1
    10    5    6 ar
    11    5   30 1
    12    6    7 1
    13    7    8 1
    14    7    9 1
    15    7   25 1
    16    9   10 1
    17    9   31 1
    18    9   32 1
    19   10   11 1
    20   10   33 1
    21   10   34 1
    22   11   12 1
    23   11   35 1
    24   11   36 1
    25   12   17 1
    26   12   13 1
    27   13   14 1
    28   13   37 1
    29   13   38 1
    30   14   15 1
    31   14   39 1
    32   14   40 1
    33   15   16 1
    34   15   18 1
    35   16   17 1
    36   16   41 1
    37   16   42 1
    38   17   43 1
    39   17   44 1
    40   18   23 ar
    41   18   19 ar
    42   19   20 ar
    43   20   21 ar
    44   20   45 1
    45   21   22 ar
    46   21   24 1
    47   22   23 ar
    48   22   46 1
    49   25   47 1
@<TRIPOS>MOLECULE
ZINC00538312
   58    62     0     0     0
SMALL
USER_CHARGES

@<TRIPOS>ATOM
      1 C1         -0.0184    1.5028    0.0103 C.3       1 <0>        -0.1195
      2 C2          0.0021   -0.0041    0.0020 C.2       1 <0>         0.2267
      3 C3         -1.1658   -0.7051    0.0037 C.2       1 <0>        -0.3134
      4 C4         -1.0976   -2.1102    0.0026 C.2       1 <0>         0.5229
      5 O1         -2.1195   -2.7763   -0.0037 O.2       1 <0>        -0.5388
      6 N1          0.1170   -2.7181    0.0083 N.am      1 <0>        -0.5055
      7 C5          1.2324   -1.9722   -0.0125 C.2       1 <0>         0.4317
      8 N2          1.1610   -0.6576   -0.0126 N.2       1 <0>        -0.5532
      9 C6          2.6152   -2.5746   -0.0542 C.3       1 <0>        -0.0794
     10 C7          2.5757   -4.0399    0.3747 C.3       1 <0>        -0.1325
     11 C8          1.4654   -4.7382   -0.4208 C.3       1 <0>        -0.1400
     12 C9          0.1227   -4.1811    0.0440 C.3       1 <0>         0.0852
     13 C10        -2.4949    0.0052    0.0071 C.3       1 <0>        -0.0659
     14 C11        -3.0069    0.1361   -1.4287 C.3       1 <0>        -0.0060
     15 N3         -4.3025    0.8286   -1.4254 N.4       1 <0>        -0.3843
     16 C12        -5.2942    0.0044   -0.7242 C.3       1 <0>        -0.0080
     17 C13        -6.6248    0.7562   -0.6469 C.3       1 <0>        -0.1417
     18 C14        -7.1187    1.0558   -2.0652 C.3       1 <0>        -0.0246
     19 C15        -6.0446    1.8523   -2.8116 C.3       1 <0>        -0.1421
     20 C16        -4.7355    1.0599   -2.8086 C.3       1 <0>        -0.0031
     21 C17        -8.3887    1.8641   -1.9963 C.2       1 <0>         0.1325
     22 C18        -9.6953    1.4738   -2.5327 C.ar      1 <0>        -0.2134
     23 C19       -10.1611    0.3470   -3.2152 C.ar      1 <0>        -0.0098
     24 C20       -11.4711    0.2760   -3.5942 C.ar      1 <0>        -0.1750
     25 C21       -12.3461    1.3174   -3.3066 C.ar      1 <0>         0.1749
     26 C22       -11.9048    2.4388   -2.6332 C.ar      1 <0>        -0.1638
     27 C23       -10.5757    2.5285   -2.2393 C.ar      1 <0>         0.1187
     28 O2         -9.8642    3.4688   -1.5855 O.3       1 <0>        -0.0749
     29 N4         -8.5274    3.0311   -1.4462 N.2       1 <0>        -0.2751
     30 F1        -13.6388    1.2314   -3.6896 F         1 <0>        -0.1154
     31 H1          1.0042    1.8801    0.0026 H         1 <0>         0.0924
     32 H2         -0.5455    1.8639   -0.8728 H         1 <0>         0.0828
     33 H3         -0.5286    1.8543    0.9071 H         1 <0>         0.0913
     34 H4          3.0059   -2.5077   -1.0696 H         1 <0>         0.1148
     35 H5          3.2691   -2.0204    0.6191 H         1 <0>         0.1189
     36 H6          3.5346   -4.5121    0.1611 H         1 <0>         0.0978
     37 H7          2.3615   -4.1056    1.4415 H         1 <0>         0.0782
     38 H8          1.5965   -4.5420   -1.4849 H         1 <0>         0.0801
     39 H9          1.5014   -5.8120   -0.2372 H         1 <0>         0.1025
     40 H10        -0.0688   -4.5145    1.0639 H         1 <0>         0.0935
     41 H11        -0.6654   -4.5576   -0.6081 H         1 <0>         0.1043
     42 H12        -3.2109   -0.5666    0.5975 H         1 <0>         0.0984
     43 H13        -2.3754    0.9974    0.4422 H         1 <0>         0.0964
     44 H14        -2.2909    0.7079   -2.0190 H         1 <0>         0.1297
     45 H15        -3.1264   -0.8561   -1.8638 H         1 <0>         0.1316
     46 H16        -5.4368   -0.9309   -1.2655 H         1 <0>         0.1347
     47 H17        -4.9399   -0.2107    0.2839 H         1 <0>         0.1394
     48 H18        -7.3603    0.1418   -0.1276 H         1 <0>         0.1195
     49 H19        -6.4834    1.6916   -0.1055 H         1 <0>         0.0988
     50 H20        -7.3090    0.1197   -2.5902 H         1 <0>         0.1177
     51 H21        -6.3653    2.0214   -3.8395 H         1 <0>         0.1196
     52 H22        -5.8912    2.8104   -2.3151 H         1 <0>         0.0992
     53 H23        -3.9686    1.6240   -3.3394 H         1 <0>         0.1371
     54 H24        -4.8899    0.1021   -3.3055 H         1 <0>         0.1330
     55 H25        -9.4868   -0.4654   -3.4426 H         1 <0>         0.1453
     56 H26       -11.8300   -0.5955   -4.1217 H         1 <0>         0.1542
     57 H27       -12.5906    3.2435   -2.4131 H         1 <0>         0.1583
     58 H28        -4.2082    1.7141   -0.9510 H         1 <0>         0.4233
@<TRIPOS>BOND
     1    1    2 1
     2    1   31 1
     3    1   32 1
     4    1   33 1
     5    2    8 1
     6    2    3 2
     7    3    4 1
     8    3   13 1
     9    4    5 2
    10    4    6 am
    11    6   12 1
    12    6    7 1
    13    7    8 2
    14    7    9 1
    15    9   10 1
    16    9   34 1
    17    9   35 1
    18   10   11 1
    19   10   36 1
    20   10   37 1
    21   11   12 1
    22   11   38 1
    23   11   39 1
    24   12   40 1
    25   12   41 1
    26   13   14 1
    27   13   42 1
    28   13   43 1
    29   14   15 1
    30   14   44 1
    31   14   45 1
    32   15   20 1
    33   15   16 1
    34   15   58 1
    35   16   17 1
    36   16   46 1
    37   16   47 1
    38   17   18 1
    39   17   48 1
    40   17   49 1
    41   18   19 1
    42   18   21 1
    43   18   50 1
    44   19   20 1
    45   19   51 1
    46   19   52 1
    47   20   53 1
    48   20   54 1
    49   21   29 2
    50   21   22 1
    51   22   27 ar
    52   22   23 ar
    53   23   24 ar
    54   23   55 1
    55   24   25 ar
    56   24   56 1
    57   25   26 ar
    58   25   30 1
    59   26   27 ar
    60   26   57 1
    61   27   28 1
    62   28   29 1
@<TRIPOS>MOLECULE
ZINC00005475
   34    36     0     0     0
SMALL
USER_CHARGES

@<TRIPOS>ATOM
      1 C1         -0.5778    1.1979   -0.3072 C.3       1 <0>         0.0781
      2 N1         -0.6664   -0.2617   -0.2171 N.pl3     1 <0>        -0.4901
      3 C2         -0.9605   -1.0972   -1.2597 C.2       1 <0>         0.0540
      4 C3         -0.9617   -2.3719   -0.8388 C.2       1 <0>        -0.2026
      5 C4         -0.6421   -2.3517    0.5908 C.ar      1 <0>        -0.0905
      6 C5         -0.4598   -0.9987    0.9299 C.ar      1 <0>         0.0853
      7 C6         -0.1358   -0.6572    2.2386 C.ar      1 <0>        -0.1095
      8 C7          0.0081   -1.6406    3.1915 C.ar      1 <0>        -0.1165
      9 C8         -0.1681   -2.9823    2.8587 C.ar      1 <0>         0.1259
     10 C9         -0.4988   -3.3410    1.5654 C.ar      1 <0>        -0.0671
     11 N2         -0.0179   -3.9710    3.8409 N.am      1 <0>        -0.6764
     12 C10         0.4824   -5.1782    3.5109 C.2       1 <0>         0.7032
     13 O1          0.8907   -5.3796    2.3834 O.2       1 <0>        -0.5537
     14 N3          0.5301   -6.1621    4.4307 N.am      1 <0>        -0.6779
     15 C11         1.1474   -7.3797    4.1216 C.ar      1 <0>         0.1147
     16 C12         2.2305   -7.4208    3.2470 C.ar      1 <0>        -0.0793
     17 C13         2.8083   -8.6493    2.9725 C.ar      1 <0>        -0.1491
     18 C14         2.2953   -9.7855    3.5706 C.ar      1 <0>         0.0790
     19 N4          1.2681   -9.7128    4.3941 N.ar      1 <0>        -0.4642
     20 C15         0.6927   -8.5635    4.6869 C.ar      1 <0>         0.0749
     21 H1          0.4434    1.4852   -0.5575 H         1 <0>         0.0691
     22 H2         -1.2561    1.5559   -1.0817 H         1 <0>         0.0834
     23 H3         -0.8549    1.6385    0.6505 H         1 <0>         0.0802
     24 H4         -1.1620   -0.7784   -2.2717 H         1 <0>         0.1694
     25 H5         -1.1611   -3.2466   -1.4400 H         1 <0>         0.1478
     26 H6          0.0034    0.3795    2.5073 H         1 <0>         0.1238
     27 H7          0.2602   -1.3696    4.2061 H         1 <0>         0.1291
     28 H8         -0.6339   -4.3811    1.3077 H         1 <0>         0.1356
     29 H9         -0.2740   -3.7863    4.7580 H         1 <0>         0.4081
     30 H10         0.1366   -6.0265    5.3069 H         1 <0>         0.4113
     31 H11         2.6103   -6.5171    2.7937 H         1 <0>         0.1483
     32 H12         3.6495   -8.7190    2.2988 H         1 <0>         0.1396
     33 H13         2.7420  -10.7460    3.3600 H         1 <0>         0.1588
     34 H14        -0.1439   -8.5431    5.3696 H         1 <0>         0.1571
@<TRIPOS>BOND
     1    1    2 1
     2    1   21 1
     3    1   22 1
     4    1   23 1
     5    2    6 1
     6    2    3 1
     7    3    4 2
     8    3   24 1
     9    4    5 1
    10    4   25 1
    11    5   10 ar
    12    5    6 ar
    13    6    7 ar
    14    7    8 ar
    15    7   26 1
    16    8    9 ar
    17    8   27 1
    18    9   10 ar
    19    9   11 1
    20   10   28 1
    21   11   12 am
    22   11   29 1
    23   12   13 2
    24   12   14 am
    25   14   15 1
    26   14   30 1
    27   15   20 ar
    28   15   16 ar
    29   16   17 ar
    30   16   31 1
    31   17   18 ar
    32   17   32 1
    33   18   19 ar
    34   18   33 1
    35   19   20 ar
    36   20   34 1
