@<TRIPOS>MOLECULE
ZINC00000848
   42    44     0     0     0
SMALL
USER_CHARGES
4-amino-5-chloro-2-methoxy-N-quinuclidin-3-yl-benzamide
@<TRIPOS>ATOM
      1 C1         -3.6215    3.3204    0.0535 C.3       1 <0>         0.0170
      2 O1         -2.4317    4.1119    0.0464 O.3       1 <0>        -0.2774
      3 C2         -1.2494    3.4465    0.0316 C.ar      1 <0>         0.2496
      4 C3         -1.2303    2.0627    0.0191 C.ar      1 <0>        -0.2975
      5 C4         -0.0168    1.3870    0.0097 C.ar      1 <0>         0.3064
      6 C5          1.1828    2.0983    0.0020 C.ar      1 <0>        -0.1593
      7 C6          1.1749    3.4637    0.0090 C.ar      1 <0>         0.0113
      8 C7         -0.0398    4.1582    0.0239 C.ar      1 <0>        -0.2423
      9 C8         -0.0489    5.6303    0.0318 C.2       1 <0>         0.5767
     10 O2         -1.1059    6.2319    0.0448 O.2       1 <0>        -0.5095
     11 N1          1.1141    6.3114    0.0248 N.am      1 <0>        -0.7377
     12 C9          1.1051    7.7764    0.0328 C.3       1 <0>         0.1419
     13 H1          0.2535    8.1395   -0.5427 H         1 <0>         0.1262
     14 C10         1.0059    8.2811    1.4752 C.3       1 <0>        -0.0171
     15 C11         2.2521   10.2826    0.9188 C.3       1 <0>        -0.0029
     16 C12         2.3863    9.8348   -0.5394 C.3       1 <0>        -0.1335
     17 C13         2.4060    8.3018   -0.5871 C.3       1 <0>        -0.1103
     18 C14         3.5863    7.8012    0.2551 C.3       1 <0>        -0.1391
     19 C15         3.4186    8.3060    1.6910 C.3       1 <0>        -0.0021
     20 Cl1         2.6937    1.2435   -0.0158 Cl        1 <0>        -0.0590
     21 N2          0.0021   -0.0041    0.0020 N.pl3     1 <0>        -0.8484
     22 H2         -3.6480    2.6961   -0.8396 H         1 <0>         0.0619
     23 H3         -3.6310    2.6866    0.9402 H         1 <0>         0.0613
     24 H4         -4.4932    3.9748    0.0653 H         1 <0>         0.1085
     25 H5         -2.1576    1.5090    0.0208 H         1 <0>         0.1468
     26 H6          2.1074    4.0084    0.0034 H         1 <0>         0.1363
     27 H7          1.9571    5.8317    0.0145 H         1 <0>         0.4018
     28 H8          0.1049    8.8841    1.5884 H         1 <0>         0.1370
     29 H9          0.9626    7.4309    2.1559 H         1 <0>         0.1317
     30 H10         3.1157   10.8879    1.1943 H         1 <0>         0.1301
     31 H11         1.3426   10.8719    1.0360 H         1 <0>         0.1303
     32 H12         3.3143   10.2251   -0.9574 H         1 <0>         0.1066
     33 H13         1.5404   10.2074   -1.1172 H         1 <0>         0.1047
     34 H14         2.4946    7.9599   -1.6183 H         1 <0>         0.1242
     35 H15         3.6018    6.7113    0.2506 H         1 <0>         0.0960
     36 H16         4.5190    8.1833   -0.1598 H         1 <0>         0.1076
     37 H17         4.2727    8.9274    1.9601 H         1 <0>         0.1308
     38 H18         3.3583    7.4560    2.3706 H         1 <0>         0.1276
     39 H19         0.8486   -0.4776   -0.0086 H         1 <0>         0.4095
     40 H20        -0.8313   -0.5005    0.0073 H         1 <0>         0.4100
     41 N3          2.1833    9.1087    1.8150 N.4       1 <0>        -0.3901
     42 H21         2.0932    9.4343    2.7846 H         1 <0>         0.4343
@<TRIPOS>BOND
     1    1    2 1
     2    1   22 1
     3    1   23 1
     4    1   24 1
     5    2    3 1
     6    3    8 ar
     7    3    4 ar
     8    4    5 ar
     9    4   25 1
    10    5    6 ar
    11    5   21 1
    12    6    7 ar
    13    6   20 1
    14    7    8 ar
    15    7   26 1
    16    8    9 1
    17    9   10 2
    18    9   11 am
    19   11   12 1
    20   11   27 1
    21   12   13 1
    22   12   17 1
    23   12   14 1
    24   14   28 1
    25   14   29 1
    26   14   41 1
    27   15   16 1
    28   15   30 1
    29   15   31 1
    30   15   41 1
    31   16   17 1
    32   16   32 1
    33   16   33 1
    34   17   18 1
    35   17   34 1
    36   18   19 1
    37   18   35 1
    38   18   36 1
    39   19   37 1
    40   19   38 1
    41   19   41 1
    42   21   39 1
    43   21   40 1
    44   41   42 1
@<TRIPOS>MOLECULE
ZINC00003961
   42    44     0     0     0
SMALL
USER_CHARGES

@<TRIPOS>ATOM
      1 C1         -0.0173    1.4248    0.0099 C.3       1 <0>         0.0170
      2 O1          0.0021   -0.0041    0.0020 O.3       1 <0>        -0.2774
      3 C2         -1.1983   -0.6364    0.0101 C.ar      1 <0>         0.2497
      4 C3         -2.3712    0.0982    0.0194 C.ar      1 <0>        -0.2976
      5 C4         -3.5971   -0.5547    0.0272 C.ar      1 <0>         0.3065
      6 C5         -3.6504   -1.9484    0.0260 C.ar      1 <0>        -0.1594
      7 C6         -2.4991   -2.6824    0.0173 C.ar      1 <0>         0.0113
      8 C7         -1.2567   -2.0387    0.0031 C.ar      1 <0>        -0.2425
      9 C8         -0.0151   -2.8296   -0.0130 C.2       1 <0>         0.5766
     10 O2          1.0637   -2.2679   -0.0202 O.2       1 <0>        -0.5096
     11 N1         -0.0739   -4.1760   -0.0196 N.am      1 <0>        -0.7377
     12 C9          1.1616   -4.9631   -0.0357 C.3       1 <0>         0.1404
     13 H1          1.9273   -4.4530    0.5489 H         1 <0>         0.1257
     14 C10         1.6444   -5.1305   -1.4782 C.3       1 <0>        -0.0230
     15 N2          1.6981   -6.5521   -1.8273 N.4       1 <0>        -0.3745
     16 C11         0.3665   -7.1558   -1.7375 C.3       1 <0>        -0.0085
     17 C12        -0.1588   -7.0555   -0.3036 C.3       1 <0>        -0.1412
     18 C13         0.8956   -6.3500    0.5644 C.3       1 <0>        -0.1094
     19 C14         2.1956   -7.1625    0.5001 C.3       1 <0>        -0.1333
     20 C15         2.6449   -7.2601   -0.9624 C.3       1 <0>        -0.0090
     21 Cl1        -5.1881   -2.7540    0.0363 Cl        1 <0>        -0.0589
     22 N3         -4.7760    0.1840    0.0366 N.pl3     1 <0>        -0.8483
     23 H2          1.0053    1.8021    0.0021 H         1 <0>         0.1085
     24 H3         -0.5445    1.7859   -0.8732 H         1 <0>         0.0613
     25 H4         -0.5275    1.7763    0.9067 H         1 <0>         0.0620
     26 H5         -2.3333    1.1775    0.0211 H         1 <0>         0.1468
     27 H6         -2.5474   -3.7613    0.0172 H         1 <0>         0.1363
     28 H7         -0.9342   -4.6240   -0.0138 H         1 <0>         0.4019
     29 H8          0.9568   -4.6185   -2.1514 H         1 <0>         0.1336
     30 H9          2.6386   -4.6953   -1.5796 H         1 <0>         0.1391
     31 H10        -0.3139   -6.6324   -2.4093 H         1 <0>         0.1295
     32 H11         0.4244   -8.2045   -2.0290 H         1 <0>         0.1328
     33 H12        -1.0843   -6.4799   -0.2931 H         1 <0>         0.0959
     34 H13        -0.3439   -8.0556    0.0883 H         1 <0>         0.1074
     35 H14         0.5425   -6.2558    1.5913 H         1 <0>         0.1255
     36 H15         2.9675   -6.6636    1.0860 H         1 <0>         0.1045
     37 H16         2.0215   -8.1623    0.8976 H         1 <0>         0.1068
     38 H17         2.6909   -8.3082   -1.2582 H         1 <0>         0.1321
     39 H18         3.6336   -6.8130   -1.0663 H         1 <0>         0.1322
     40 H19        -4.7409    1.1534    0.0377 H         1 <0>         0.4100
     41 H20        -5.6330   -0.2703    0.0420 H         1 <0>         0.4095
     42 H21         2.0144   -6.6347   -2.7818 H         1 <0>         0.4276
@<TRIPOS>BOND
     1    1    2 1
     2    1   23 1
     3    1   24 1
     4    1   25 1
     5    2    3 1
     6    3    8 ar
     7    3    4 ar
     8    4    5 ar
     9    4   26 1
    10    5    6 ar
    11    5   22 1
    12    6    7 ar
    13    6   21 1
    14    7    8 ar
    15    7   27 1
    16    8    9 1
    17    9   10 2
    18    9   11 am
    19   11   12 1
    20   11   28 1
    21   12   13 1
    22   12   18 1
    23   12   14 1
    24   14   15 1
    25   14   29 1
    26   14   30 1
    27   15   20 1
    28   15   16 1
    29   15   42 1
    30   16   17 1
    31   16   31 1
    32   16   32 1
    33   17   18 1
    34   17   33 1
    35   17   34 1
    36   18   19 1
    37   18   35 1
    38   19   20 1
    39   19   36 1
    40   19   37 1
    41   20   38 1
    42   20   39 1
    43   22   40 1
    44   22   41 1
@<TRIPOS>MOLECULE
ZINC19376338
   32    34     0     0     0
SMALL
USER_CHARGES

@<TRIPOS>ATOM
      1 C1         -0.0239    1.3370    0.2441 C.ar      1 <0>        -0.1256
      2 C2          1.1550    2.0478    0.4568 C.ar      1 <0>        -0.0782
      3 C3          2.3643    1.4231    0.4379 C.ar      1 <0>        -0.1141
      4 C4          2.4311    0.0393    0.2011 C.ar      1 <0>         0.1744
      5 C5          1.2312   -0.6814   -0.0144 C.ar      1 <0>        -0.1375
      6 C6          0.0018   -0.0048    0.0116 C.ar      1 <0>        -0.0809
      7 C7          1.2976   -2.0694   -0.2519 C.ar      1 <0>        -0.0096
      8 C8          2.5231   -2.6645   -0.2643 C.ar      1 <0>        -0.2222
      9 C9          3.6751   -1.8960   -0.0441 C.ar      1 <0>         0.4150
     10 N1          3.6064   -0.5993    0.1777 N.ar      1 <0>        -0.5363
     11 N2          4.9157   -2.5156   -0.0597 N.pl3     1 <0>        -0.6266
     12 C10         6.1561   -1.7247   -0.0617 C.3       1 <0>         0.1015
     13 C11         7.0719   -2.2550    1.0465 C.3       1 <0>        -0.0225
     14 N3          7.2730   -3.6982    0.8653 N.4       1 <0>        -0.5046
     15 C12         5.9976   -4.4059    1.0344 C.3       1 <0>        -0.0221
     16 C13         5.0286   -3.9823   -0.0687 C.3       1 <0>         0.0992
     17 H1         -0.9708    1.8557    0.2683 H         1 <0>         0.1324
     18 H2          1.1089    3.1113    0.6392 H         1 <0>         0.1343
     19 H3          3.2692    1.9888    0.6039 H         1 <0>         0.1349
     20 H4         -0.9189   -0.5453   -0.1515 H         1 <0>         0.1333
     21 H5          0.4000   -2.6463   -0.4193 H         1 <0>         0.1464
     22 H6          2.6072   -3.7262   -0.4432 H         1 <0>         0.1365
     23 H7          6.6530   -1.8250   -1.0266 H         1 <0>         0.0880
     24 H8          5.9227   -0.6768    0.1263 H         1 <0>         0.1390
     25 H9          8.0340   -1.7450    0.9980 H         1 <0>         0.1449
     26 H10         6.6116   -2.0712    2.0173 H         1 <0>         0.1341
     27 H11         7.6328   -3.8727   -0.0611 H         1 <0>         0.4286
     28 H12         6.1681   -5.4809    0.9769 H         1 <0>         0.1469
     29 H13         5.5698   -4.1571    2.0056 H         1 <0>         0.1344
     30 H14         4.0501   -4.4261    0.1146 H         1 <0>         0.1284
     31 H15         5.4097   -4.3144   -1.0344 H         1 <0>         0.0943
     32 H16         7.9351   -4.0327    1.5492 H         1 <0>         0.4339
@<TRIPOS>BOND
     1    1    6 ar
     2    1    2 ar
     3    1   17 1
     4    2    3 ar
     5    2   18 1
     6    3    4 ar
     7    3   19 1
     8    4   10 ar
     9    4    5 ar
    10    5    6 ar
    11    5    7 ar
    12    6   20 1
    13    7    8 ar
    14    7   21 1
    15    8    9 ar
    16    8   22 1
    17    9   10 ar
    18    9   11 1
    19   11   16 1
    20   11   12 1
    21   12   13 1
    22   12   23 1
    23   12   24 1
    24   13   14 1
    25   13   25 1
    26   13   26 1
    27   14   15 1
    28   14   27 1
    29   14   32 1
    30   15   16 1
    31   15   28 1
    32   15   29 1
    33   16   30 1
    34   16   31 1
@<TRIPOS>MOLECULE
ZINC02572146
   29    30     0     0     0
SMALL
USER_CHARGES

@<TRIPOS>ATOM
      1 C1         -0.0184    1.5028    0.0103 C.3       1 <0>        -0.1071
      2 C2          0.0021   -0.0041    0.0020 C.2       1 <0>         0.1199
      3 C3          0.0074   -0.7686   -1.1014 C.2       1 <0>        -0.2092
      4 C4          0.0293   -2.1641   -0.6562 C.ar      1 <0>        -0.0803
      5 C5          0.0430   -3.3930   -1.3197 C.ar      1 <0>        -0.1146
      6 C6          0.0627   -4.5631   -0.5876 C.ar      1 <0>         0.0953
      7 C7          0.0685   -4.5202    0.8044 C.ar      1 <0>        -0.1188
      8 C8          0.0552   -3.3144    1.4689 C.ar      1 <0>        -0.1023
      9 C9          0.0357   -2.1241    0.7494 C.ar      1 <0>         0.0880
     10 N1          0.0239   -0.7953    1.1178 N.pl3     1 <0>        -0.5848
     11 H1          0.0285   -0.4701    2.0317 H         1 <0>         0.4225
     12 O1          0.0761   -5.7626   -1.2282 O.3       1 <0>        -0.4959
     13 C10        -0.0070   -0.2832   -2.5281 C.3       1 <0>        -0.0613
     14 C11         1.4305   -0.0988   -3.0185 C.3       1 <0>        -0.0084
     15 N2          1.4165    0.3744   -4.4092 N.4       1 <0>        -0.6388
     16 H2          1.0042    1.8801    0.0026 H         1 <0>         0.0837
     17 H3         -0.5455    1.8639   -0.8728 H         1 <0>         0.0866
     18 H4         -0.5286    1.8543    0.9071 H         1 <0>         0.0796
     19 H5          0.0378   -3.4277   -2.3992 H         1 <0>         0.1258
     20 H6          0.0832   -5.4414    1.3679 H         1 <0>         0.1387
     21 H7          0.0598   -3.2928    2.5486 H         1 <0>         0.1311
     22 H8          0.9632   -6.0974   -1.4178 H         1 <0>         0.3920
     23 H9         -0.5139   -1.0159   -3.1560 H         1 <0>         0.0928
     24 H10        -0.5345    0.6690   -2.5826 H         1 <0>         0.0917
     25 H11         1.9375    0.6339   -2.3905 H         1 <0>         0.1322
     26 H12         1.9580   -1.0511   -2.9640 H         1 <0>         0.1338
     27 H13         0.9472   -0.3038   -4.9905 H         1 <0>         0.4354
     28 H14         0.9282    1.2559   -4.4596 H         1 <0>         0.4345
     29 H15         2.3645    0.4960   -4.7326 H         1 <0>         0.4379
@<TRIPOS>BOND
     1    1    2 1
     2    1   16 1
     3    1   17 1
     4    1   18 1
     5    2   10 1
     6    2    3 2
     7    3    4 1
     8    3   13 1
     9    4    9 ar
    10    4    5 ar
    11    5    6 ar
    12    5   19 1
    13    6    7 ar
    14    6   12 1
    15    7    8 ar
    16    7   20 1
    17    8    9 ar
    18    8   21 1
    19    9   10 1
    20   10   11 1
    21   12   22 1
    22   13   14 1
    23   13   23 1
    24   13   24 1
    25   14   15 1
    26   14   25 1
    27   14   26 1
    28   15   27 1
    29   15   28 1
    30   15   29 1
@<TRIPOS>MOLECULE
ZINC00057058
   26    27     0     0     0
SMALL
USER_CHARGES

@<TRIPOS>ATOM
      1 C1         -0.0168    1.3880    0.0097 C.ar      1 <0>        -0.1182
      2 C2          1.1587    2.1055    0.0023 C.ar      1 <0>        -0.1024
      3 C3          2.3795    1.4398   -0.0129 C.ar      1 <0>         0.0862
      4 C4          2.4019    0.0334   -0.0206 C.ar      1 <0>        -0.0842
      5 C5          1.2039   -0.6838   -0.0130 C.ar      1 <0>        -0.1143
      6 C6          0.0021   -0.0041    0.0020 C.ar      1 <0>         0.0953
      7 O1         -1.1679   -0.6972    0.0094 O.3       1 <0>        -0.4959
      8 C7          3.8159   -0.3493   -0.0361 C.2       1 <0>        -0.2101
      9 C8          4.5307    0.7870   -0.0369 C.2       1 <0>         0.0918
     10 N1          3.6908    1.8667   -0.0231 N.pl3     1 <0>        -0.5866
     11 H1          3.9751    2.7941   -0.0208 H         1 <0>         0.4248
     12 C9          4.3642   -1.7530   -0.0489 C.3       1 <0>        -0.0616
     13 C10         4.4190   -2.2661   -1.4892 C.3       1 <0>        -0.0080
     14 N2          4.9535   -3.6343   -1.5017 N.4       1 <0>        -0.6389
     15 H2         -0.9621    1.9101    0.0260 H         1 <0>         0.1389
     16 H3          1.1325    3.1852    0.0080 H         1 <0>         0.1315
     17 H4          1.2172   -1.7637   -0.0192 H         1 <0>         0.1256
     18 H5         -1.5147   -0.8930   -0.8718 H         1 <0>         0.3922
     19 H6          5.6093    0.8408   -0.0472 H         1 <0>         0.1750
     20 H7          5.3681   -1.7548    0.3759 H         1 <0>         0.0927
     21 H8          3.7180   -2.4009    0.5433 H         1 <0>         0.0925
     22 H9          3.4152   -2.2643   -1.9140 H         1 <0>         0.1329
     23 H10         5.0652   -1.6182   -2.0814 H         1 <0>         0.1331
     24 H11         5.8827   -3.6360   -1.1085 H         1 <0>         0.4347
     25 H12         4.3553   -4.2341   -0.9535 H         1 <0>         0.4353
     26 H13         4.9896   -3.9727   -2.4515 H         1 <0>         0.4379
@<TRIPOS>BOND
     1    1    6 ar
     2    1    2 ar
     3    1   15 1
     4    2    3 ar
     5    2   16 1
     6    3   10 1
     7    3    4 ar
     8    4    5 ar
     9    4    8 1
    10    5    6 ar
    11    5   17 1
    12    6    7 1
    13    7   18 1
    14    8    9 2
    15    8   12 1
    16    9   10 1
    17    9   19 1
    18   10   11 1
    19   12   13 1
    20   12   20 1
    21   12   21 1
    22   13   14 1
    23   13   22 1
    24   13   23 1
    25   14   24 1
    26   14   25 1
    27   14   26 1
@<TRIPOS>MOLECULE
ZINC19796155
   42    45     0     0     0
SMALL
USER_CHARGES

@<TRIPOS>ATOM
      1 C1         -0.0670    1.4396   -0.3852 C.3       1 <0>         0.0243
      2 N1         -0.0229   -0.0169   -0.1987 N.3       1 <0>        -0.5428
      3 C2          0.3808   -0.6943   -1.4380 C.3       1 <0>         0.0399
      4 C3          0.2401   -2.2095   -1.2572 C.3       1 <0>         0.1263
      5 N2          0.9912   -2.6085   -0.0572 N.pl3     1 <0>        -0.5953
      6 C4          0.7394   -1.8803    1.1955 C.3       1 <0>         0.1122
      7 C5          0.8604   -0.3781    0.9181 C.3       1 <0>         0.0393
      8 C6          1.9051   -3.6365   -0.1053 C.2       1 <0>         0.5098
      9 N3          2.1670   -4.1290   -1.2643 N.2       1 <0>        -0.6041
     10 C7          3.0130   -5.1503   -1.5719 C.ar      1 <0>         0.1655
     11 C8          2.6280   -6.0848   -2.5372 C.ar      1 <0>        -0.1058
     12 C9          3.4872   -7.1047   -2.8991 C.ar      1 <0>        -0.0230
     13 C10         4.7348   -7.2069   -2.3106 C.ar      1 <0>        -0.1209
     14 C11         5.1212   -6.2977   -1.3402 C.ar      1 <0>        -0.1017
     15 C12         4.2618   -5.2835   -0.9546 C.ar      1 <0>         0.1117
     16 N4          4.6314   -4.4326    0.1003 N.pl3     1 <0>        -0.7261
     17 C13         3.8434   -4.4184    1.2519 C.ar      1 <0>         0.2140
     18 C14         2.4943   -4.0640    1.1729 C.ar      1 <0>        -0.1453
     19 C15         1.7072   -4.1133    2.3240 C.ar      1 <0>        -0.0723
     20 C16         2.2727   -4.4729    3.5311 C.ar      1 <0>        -0.1389
     21 C17         3.6189   -4.7825    3.6069 C.ar      1 <0>        -0.0765
     22 C18         4.3974   -4.7629    2.4751 C.ar      1 <0>        -0.1433
     23 Cl1         2.9987   -8.2627   -4.0966 Cl        1 <0>        -0.0679
     24 H1          0.9359    1.8090   -0.5992 H         1 <0>         0.0255
     25 H2         -0.7279    1.6794   -1.2181 H         1 <0>         0.0711
     26 H3         -0.4416    1.9111    0.5233 H         1 <0>         0.0709
     27 H4         -0.2581   -0.3649   -2.2574 H         1 <0>         0.0878
     28 H5          1.4186   -0.4499   -1.6647 H         1 <0>         0.0378
     29 H6         -0.8117   -2.4673   -1.1334 H         1 <0>         0.0720
     30 H7          0.6453   -2.7216   -2.1299 H         1 <0>         0.1060
     31 H8         -0.2645   -2.1065    1.5551 H         1 <0>         0.0792
     32 H9          1.4746   -2.1748    1.9444 H         1 <0>         0.0984
     33 H10         1.8915   -0.1381    0.6586 H         1 <0>         0.0379
     34 H11         0.5693    0.1807    1.8075 H         1 <0>         0.0892
     35 H12         1.6558   -6.0097   -3.0016 H         1 <0>         0.1375
     36 H13         5.4083   -7.9971   -2.6081 H         1 <0>         0.1357
     37 H14         6.0961   -6.3802   -0.8829 H         1 <0>         0.1326
     38 H15         5.4169   -3.8679    0.0299 H         1 <0>         0.4097
     39 H16         0.6563   -3.8699    2.2709 H         1 <0>         0.1344
     40 H17         1.6613   -4.5124    4.4205 H         1 <0>         0.1323
     41 H18         4.0571   -5.0467    4.5580 H         1 <0>         0.1317
     42 H19         5.4473   -5.0071    2.5424 H         1 <0>         0.1313
@<TRIPOS>BOND
     1    1    2 1
     2    1   24 1
     3    1   25 1
     4    1   26 1
     5    2    7 1
     6    2    3 1
     7    3    4 1
     8    3   27 1
     9    3   28 1
    10    4    5 1
    11    4   29 1
    12    4   30 1
    13    5    6 1
    14    5    8 1
    15    6    7 1
    16    6   31 1
    17    6   32 1
    18    7   33 1
    19    7   34 1
    20    8   18 1
    21    8    9 2
    22    9   10 1
    23   10   15 ar
    24   10   11 ar
    25   11   12 ar
    26   11   35 1
    27   12   13 ar
    28   12   23 1
    29   13   14 ar
    30   13   36 1
    31   14   15 ar
    32   14   37 1
    33   15   16 1
    34   16   17 1
    35   16   38 1
    36   17   22 ar
    37   17   18 ar
    38   18   19 ar
    39   19   20 ar
    40   19   39 1
    41   20   21 ar
    42   20   40 1
    43   21   22 ar
    44   21   41 1
    45   22   42 1
@<TRIPOS>MOLECULE
ZINC19796155
   44    47     0     0     0
SMALL
USER_CHARGES

@<TRIPOS>ATOM
      1 C1         -1.5703   -0.0018   -1.9302 C.3       1 <0>        -0.0497
      2 N1         -0.7527   -0.7171   -0.9414 N.4       1 <0>        -0.3854
      3 C2         -1.0498   -2.1535   -1.0104 C.3       1 <0>        -0.0252
      4 C3         -0.2839   -2.8861    0.0962 C.3       1 <0>         0.1048
      5 N2          1.1441   -2.5548   -0.0269 N.pl3     1 <0>        -0.7052
      6 C4          1.5202   -1.1363   -0.1296 C.3       1 <0>         0.1049
      7 C5          0.6692   -0.4862   -1.2256 C.3       1 <0>        -0.0251
      8 C6          2.0831   -3.5253   -0.0448 C.2       1 <0>         0.6309
      9 C7          2.6112   -3.9094    1.2074 C.ar      1 <0>        -0.2438
     10 C8          2.0495   -3.1929    2.2728 C.ar      1 <0>         0.0055
     11 C9          2.4602   -3.4528    3.5483 C.ar      1 <0>        -0.1817
     12 C10         3.4265   -4.4148    3.8208 C.ar      1 <0>         0.0489
     13 C11         4.0101   -5.1439    2.8276 C.ar      1 <0>        -0.2233
     14 C12         3.6302   -4.9235    1.4921 C.ar      1 <0>         0.3343
     15 N3          4.2865   -5.7106    0.6358 N.pl3     1 <0>        -0.6131
     16 C13         4.1767   -5.7728   -0.7271 C.ar      1 <0>         0.1589
     17 C14         5.0408   -6.7320   -1.2562 C.ar      1 <0>        -0.1157
     18 C15         5.0795   -6.9478   -2.6222 C.ar      1 <0>        -0.0495
     19 C16         4.2642   -6.2154   -3.4643 C.ar      1 <0>        -0.0338
     20 C17         3.4016   -5.2585   -2.9468 C.ar      1 <0>        -0.0846
     21 C18         3.3520   -5.0321   -1.5848 C.ar      1 <0>         0.0769
     22 N4          2.4115   -4.0290   -1.2719 N.pl3     1 <0>        -0.5773
     23 Cl1         4.3195   -6.4929   -5.1771 Cl        1 <0>        -0.0159
     24 H1         -1.3348   -0.3678   -2.9295 H         1 <0>         0.1246
     25 H2         -2.6262   -0.1724   -1.7203 H         1 <0>         0.1321
     26 H3         -1.3566    1.0656   -1.8745 H         1 <0>         0.1321
     27 H4         -2.1201   -2.3101   -0.8766 H         1 <0>         0.1569
     28 H5         -0.7442   -2.5415   -1.9820 H         1 <0>         0.1344
     29 H6         -0.6518   -2.5648    1.0707 H         1 <0>         0.1155
     30 H7         -0.4211   -3.9618   -0.0138 H         1 <0>         0.1302
     31 H8          1.3345   -0.6383    0.8220 H         1 <0>         0.1155
     32 H9          2.5758   -1.0551   -0.3891 H         1 <0>         0.1302
     33 H10         0.9228   -0.9247   -2.1907 H         1 <0>         0.1344
     34 H11         0.8655    0.5856   -1.2504 H         1 <0>         0.1569
     35 H12         1.2975   -2.4405    2.0860 H         1 <0>         0.1502
     36 H13         2.0243   -2.8976    4.3657 H         1 <0>         0.1496
     37 H14         3.7223   -4.5886    4.8448 H         1 <0>         0.1558
     38 H15         4.7590   -5.8851    3.0650 H         1 <0>         0.1623
     39 H16         5.6790   -7.3052   -0.6001 H         1 <0>         0.1677
     40 H17         5.7487   -7.6901   -3.0316 H         1 <0>         0.1653
     41 H18         2.7675   -4.6896   -3.6107 H         1 <0>         0.1565
     42 H19         1.9393   -3.6432   -2.0263 H         1 <0>         0.4255
     43 H20         4.9278   -6.3202    1.0333 H         1 <0>         0.4372
     44 H21        -0.9695   -0.3754   -0.0171 H         1 <0>         0.4310
@<TRIPOS>BOND
     1    1    2 1
     2    1   24 1
     3    1   25 1
     4    1   26 1
     5    2    7 1
     6    2    3 1
     7    2   44 1
     8    3    4 1
     9    3   27 1
    10    3   28 1
    11    4    5 1
    12    4   29 1
    13    4   30 1
    14    5    6 1
    15    5    8 1
    16    6    7 1
    17    6   31 1
    18    6   32 1
    19    7   33 1
    20    7   34 1
    21    8   22 1
    22    8    9 2
    23    9   14 ar
    24    9   10 ar
    25   10   11 ar
    26   10   35 1
    27   11   12 ar
    28   11   36 1
    29   12   13 ar
    30   12   37 1
    31   13   14 ar
    32   13   38 1
    33   14   15 2
    34   15   16 1
    35   15   43 1
    36   16   21 ar
    37   16   17 ar
    38   17   18 ar
    39   17   39 1
    40   18   19 ar
    41   18   40 1
    42   19   20 ar
    43   19   23 1
    44   20   21 ar
    45   20   41 1
    46   21   22 1
    47   22   42 1
@<TRIPOS>MOLECULE
ZINC19796155
   43    46     0     0     0
SMALL
USER_CHARGES

@<TRIPOS>ATOM
      1 C1         -0.0523    1.4387   -0.3863 C.3       1 <0>        -0.0469
      2 N1         -0.0147   -0.0168   -0.1908 N.4       1 <0>        -0.3852
      3 C2          0.4863   -0.6601   -1.4120 C.3       1 <0>        -0.0213
      4 C3          0.4181   -2.1823   -1.2510 C.3       1 <0>         0.1002
      5 N2          1.1441   -2.5548   -0.0269 N.pl3     1 <0>        -0.6180
      6 C4          0.8178   -1.8405    1.2170 C.3       1 <0>         0.0860
      7 C5          0.8671   -0.3344    0.9395 C.3       1 <0>        -0.0221
      8 C6          2.1017   -3.5432   -0.0451 C.2       1 <0>         0.5019
      9 N3          2.4234   -4.0210   -1.1951 N.2       1 <0>        -0.5760
     10 C7          3.3217   -5.0050   -1.4750 C.ar      1 <0>         0.1390
     11 C8          3.0096   -5.9522   -2.4541 C.ar      1 <0>        -0.0932
     12 C9          3.9229   -6.9340   -2.7877 C.ar      1 <0>        -0.0267
     13 C10         5.1529   -6.9852   -2.1572 C.ar      1 <0>        -0.1032
     14 C11         5.4673   -6.0631   -1.1730 C.ar      1 <0>        -0.1031
     15 C12         4.5533   -5.0871   -0.8155 C.ar      1 <0>         0.1235
     16 N4          4.8505   -4.2243    0.2524 N.pl3     1 <0>        -0.7273
     17 C13         4.0239   -4.2464    1.3765 C.ar      1 <0>         0.2173
     18 C14         2.6645   -3.9489    1.2520 C.ar      1 <0>        -0.1537
     19 C15         1.8414   -4.0345    2.3754 C.ar      1 <0>        -0.0841
     20 C16         2.3802   -4.3733    3.6007 C.ar      1 <0>        -0.1334
     21 C17         3.7349   -4.6261    3.7220 C.ar      1 <0>        -0.0692
     22 C18         4.5500   -4.5705    2.6174 C.ar      1 <0>        -0.1369
     23 Cl1         3.5248   -8.1083   -4.0027 Cl        1 <0>        -0.0551
     24 H1          0.9534    1.8033   -0.5956 H         1 <0>         0.1211
     25 H2         -0.7066    1.6758   -1.2253 H         1 <0>         0.1256
     26 H3         -0.4316    1.9169    0.5167 H         1 <0>         0.1252
     27 H4         -0.1269   -0.3565   -2.2605 H         1 <0>         0.1425
     28 H5          1.5196   -0.3587   -1.5839 H         1 <0>         0.1315
     29 H6         -0.6226   -2.4957   -1.1694 H         1 <0>         0.0898
     30 H7          0.8819   -2.6629   -2.1125 H         1 <0>         0.1431
     31 H8         -0.1827   -2.1194    1.5479 H         1 <0>         0.0960
     32 H9          1.5457   -2.0950    1.9873 H         1 <0>         0.1385
     33 H10         1.8889   -0.0428    0.6965 H         1 <0>         0.1320
     34 H11         0.5345    0.2092    1.8238 H         1 <0>         0.1439
     35 H12         2.0515   -5.9169   -2.9512 H         1 <0>         0.1396
     36 H13         5.8689   -7.7454   -2.4325 H         1 <0>         0.1422
     37 H14         6.4287   -6.1057   -0.6827 H         1 <0>         0.1382
     38 H15         5.6134   -3.6267    0.2096 H         1 <0>         0.4129
     39 H16         0.7836   -3.8354    2.2868 H         1 <0>         0.1314
     40 H17         1.7411   -4.4409    4.4686 H         1 <0>         0.1357
     41 H18         4.1512   -4.8742    4.6872 H         1 <0>         0.1370
     42 H19         5.6063   -4.7705    2.7202 H         1 <0>         0.1363
     43 H20        -0.9456   -0.3526    0.0057 H         1 <0>         0.4250
@<TRIPOS>BOND
     1    1    2 1
     2    1   24 1
     3    1   25 1
     4    1   26 1
     5    2    7 1
     6    2    3 1
     7    2   43 1
     8    3    4 1
     9    3   27 1
    10    3   28 1
    11    4    5 1
    12    4   29 1
    13    4   30 1
    14    5    6 1
    15    5    8 1
    16    6    7 1
    17    6   31 1
    18    6   32 1
    19    7   33 1
    20    7   34 1
    21    8   18 1
    22    8    9 2
    23    9   10 1
    24   10   15 ar
    25   10   11 ar
    26   11   12 ar
    27   11   35 1
    28   12   13 ar
    29   12   23 1
    30   13   14 ar
    31   13   36 1
    32   14   15 ar
    33   14   37 1
    34   15   16 1
    35   16   17 1
    36   16   38 1
    37   17   22 ar
    38   17   18 ar
    39   18   19 ar
    40   19   20 ar
    41   19   39 1
    42   20   21 ar
    43   20   40 1
    44   21   22 ar
    45   21   41 1
    46   22   42 1
@<TRIPOS>MOLECULE
ZINC00004448
   42    45     0     0     0
SMALL
USER_CHARGES

@<TRIPOS>ATOM
      1 C1         -0.4391   -3.3377    1.8722 C.3       1 <0>        -0.1123
      2 C2         -0.1697   -2.2466    0.8683 C.cat     1 <0>         0.2989
      3 N1         -0.0089   -2.4170   -0.4155 N.pl3     1 <0>        -0.4743
      4 C3          0.2118   -1.2278   -0.9953 C.2       1 <0>        -0.0131
      5 C4          0.1869   -0.2847   -0.0343 C.2       1 <0>         0.0706
      6 N2         -0.0604   -0.9298    1.1473 N.pl3     1 <0>        -0.3998
      7 C5         -0.1811   -0.3082    2.4684 C.3       1 <0>         0.1079
      8 C6         -1.6568   -0.2375    2.8660 C.3       1 <0>        -0.1546
      9 H1         -2.1022   -1.2287    2.7806 H         1 <0>         0.1154
     10 C7         -1.7700    0.2464    4.3115 C.3       1 <0>        -0.1029
     11 C8         -3.2416    0.3294    4.7350 C.3       1 <0>        -0.0678
     12 C9         -3.9618    1.2252    3.7555 C.2       1 <0>         0.1597
     13 C10        -3.5215    1.3875    2.4463 C.2       1 <0>        -0.2921
     14 C11        -4.4444    2.3149    1.8134 C.ar      1 <0>        -0.0463
     15 C12        -4.5189    2.8565    0.5307 C.ar      1 <0>        -0.0763
     16 C13        -5.5626    3.7304    0.2795 C.ar      1 <0>        -0.1250
     17 C14        -6.4928    4.0558    1.2516 C.ar      1 <0>        -0.1030
     18 C15        -6.4370    3.5295    2.5307 C.ar      1 <0>        -0.1113
     19 C16        -5.3960    2.6468    2.8098 C.ar      1 <0>         0.0678
     20 N3         -5.0642    1.9669    3.9526 N.pl3     1 <0>        -0.4390
     21 C17        -5.8081    2.0387    5.2127 C.3       1 <0>         0.0582
     22 C18        -2.3800    0.7188    1.9432 C.2       1 <0>         0.4331
     23 O1         -1.9955    0.9054    0.8069 O.2       1 <0>        -0.4805
     24 H2         -1.5134   -3.4249    2.0346 H         1 <0>         0.1174
     25 H3         -0.0509   -4.2834    1.4940 H         1 <0>         0.1154
     26 H4          0.0521   -3.0941    2.8143 H         1 <0>         0.1145
     27 H5          0.3800   -1.0566   -2.0483 H         1 <0>         0.2213
     28 H6          0.3302    0.7771   -0.1704 H         1 <0>         0.2190
     29 H7          0.3645   -0.9030    3.2010 H         1 <0>         0.1257
     30 H8          0.2350    0.6987    2.4355 H         1 <0>         0.1281
     31 H9         -1.2451   -0.4489    4.9665 H         1 <0>         0.0978
     32 H10        -1.3139    1.2326    4.3982 H         1 <0>         0.0859
     33 H11        -3.6859   -0.6659    4.7191 H         1 <0>         0.1031
     34 H12        -3.3127    0.7488    5.7386 H         1 <0>         0.1005
     35 H13        -3.7956    2.6061   -0.2312 H         1 <0>         0.1359
     36 H14        -5.6535    4.1710   -0.7023 H         1 <0>         0.1265
     37 H15        -7.2882    4.7431    1.0040 H         1 <0>         0.1296
     38 H16        -7.1689    3.7920    3.2802 H         1 <0>         0.1330
     39 H17        -5.4075    2.8462    5.8256 H         1 <0>         0.0854
     40 H18        -6.8605    2.2295    5.0030 H         1 <0>         0.0945
     41 H19        -5.7096    1.0938    5.7471 H         1 <0>         0.0927
     42 H20        -0.0436   -3.2691   -0.8775 H         1 <0>         0.4603
@<TRIPOS>BOND
     1    1    2 1
     2    1   24 1
     3    1   25 1
     4    1   26 1
     5    2    6 1
     6    2    3 2
     7    3    4 1
     8    3   42 1
     9    4    5 2
    10    4   27 1
    11    5    6 1
    12    5   28 1
    13    6    7 1
    14    7    8 1
    15    7   29 1
    16    7   30 1
    17    8    9 1
    18    8   22 1
    19    8   10 1
    20   10   11 1
    21   10   31 1
    22   10   32 1
    23   11   12 1
    24   11   33 1
    25   11   34 1
    26   12   20 1
    27   12   13 2
    28   13   14 1
    29   13   22 1
    30   14   19 ar
    31   14   15 ar
    32   15   16 ar
    33   15   35 1
    34   16   17 ar
    35   16   36 1
    36   17   18 ar
    37   17   37 1
    38   18   19 ar
    39   18   38 1
    40   19   20 1
    41   20   21 1
    42   21   39 1
    43   21   40 1
    44   21   41 1
    45   22   23 2
@<TRIPOS>MOLECULE
ZINC00004448
   41    44     0     0     0
SMALL
USER_CHARGES

@<TRIPOS>ATOM
      1 C1         -0.4391   -3.3377    1.8722 C.3       1 <0>        -0.0665
      2 C2         -0.1697   -2.2466    0.8683 C.2       1 <0>         0.1894
      3 N1         -0.0089   -2.4170   -0.4155 N.2       1 <0>        -0.4892
      4 C3          0.2118   -1.2278   -0.9953 C.2       1 <0>        -0.0442
      5 C4          0.1868   -0.2847   -0.0343 C.2       1 <0>        -0.0089
      6 N2         -0.0604   -0.9298    1.1473 N.pl3     1 <0>        -0.4502
      7 C5         -0.1811   -0.3082    2.4684 C.3       1 <0>         0.1208
      8 C6         -1.6568   -0.2375    2.8660 C.3       1 <0>        -0.1505
      9 H1         -2.1022   -1.2287    2.7806 H         1 <0>         0.1106
     10 C7         -1.7700    0.2464    4.3115 C.3       1 <0>        -0.1021
     11 C8         -3.2416    0.3294    4.7350 C.3       1 <0>        -0.0641
     12 C9         -3.9618    1.2252    3.7555 C.2       1 <0>         0.1486
     13 C10        -3.5215    1.3875    2.4463 C.2       1 <0>        -0.2760
     14 C11        -4.4444    2.3149    1.8134 C.ar      1 <0>        -0.0490
     15 C12        -4.5189    2.8565    0.5307 C.ar      1 <0>        -0.0694
     16 C13        -5.5626    3.7304    0.2795 C.ar      1 <0>        -0.1333
     17 C14        -6.4928    4.0558    1.2516 C.ar      1 <0>        -0.1057
     18 C15        -6.4370    3.5295    2.5307 C.ar      1 <0>        -0.1186
     19 C16        -5.3960    2.6468    2.8098 C.ar      1 <0>         0.0711
     20 N3         -5.0642    1.9669    3.9526 N.pl3     1 <0>        -0.4472
     21 C17        -5.8081    2.0387    5.2127 C.3       1 <0>         0.0636
     22 C18        -2.3800    0.7188    1.9432 C.2       1 <0>         0.4253
     23 O1         -1.9955    0.9054    0.8069 O.2       1 <0>        -0.4537
     24 H2         -1.5134   -3.4248    2.0346 H         1 <0>         0.0742
     25 H3         -0.0510   -4.2834    1.4939 H         1 <0>         0.0891
     26 H4          0.0522   -3.0941    2.8143 H         1 <0>         0.0704
     27 H5          0.3800   -1.0566   -2.0483 H         1 <0>         0.1656
     28 H6          0.3302    0.7771   -0.1704 H         1 <0>         0.1690
     29 H7          0.3645   -0.9030    3.2010 H         1 <0>         0.0973
     30 H8          0.2350    0.6987    2.4355 H         1 <0>         0.0958
     31 H9         -1.2451   -0.4489    4.9665 H         1 <0>         0.0916
     32 H10        -1.3139    1.2326    4.3982 H         1 <0>         0.0786
     33 H11        -3.6859   -0.6659    4.7191 H         1 <0>         0.0996
     34 H12        -3.3127    0.7488    5.7386 H         1 <0>         0.0928
     35 H13        -3.7956    2.6061   -0.2312 H         1 <0>         0.1375
     36 H14        -5.6535    4.1710   -0.7023 H         1 <0>         0.1236
     37 H15        -7.2882    4.7431    1.0040 H         1 <0>         0.1251
     38 H16        -7.1689    3.7920    3.2802 H         1 <0>         0.1289
     39 H17        -5.4075    2.8462    5.8256 H         1 <0>         0.0801
     40 H18        -6.8605    2.2295    5.0030 H         1 <0>         0.0900
     41 H19        -5.7096    1.0938    5.7471 H         1 <0>         0.0899
@<TRIPOS>BOND
     1    1    2 1
     2    1   24 1
     3    1   25 1
     4    1   26 1
     5    2    6 1
     6    2    3 2
     7    3    4 1
     8    4    5 2
     9    4   27 1
    10    5    6 1
    11    5   28 1
    12    6    7 1
    13    7    8 1
    14    7   29 1
    15    7   30 1
    16    8    9 1
    17    8   22 1
    18    8   10 1
    19   10   11 1
    20   10   31 1
    21   10   32 1
    22   11   12 1
    23   11   33 1
    24   11   34 1
    25   12   20 1
    26   12   13 2
    27   13   14 1
    28   13   22 1
    29   14   19 ar
    30   14   15 ar
    31   15   16 ar
    32   15   35 1
    33   16   17 ar
    34   16   36 1
    35   17   18 ar
    36   17   37 1
    37   18   19 ar
    38   18   38 1
    39   19   20 1
    40   20   21 1
    41   21   39 1
    42   21   40 1
    43   21   41 1
    44   22   23 2
@<TRIPOS>MOLECULE
ZINC00075126
   42    45     0     0     0
SMALL
USER_CHARGES

@<TRIPOS>ATOM
      1 C1         -0.0184    1.5028    0.0103 C.3       1 <0>        -0.1124
      2 C2          0.0021   -0.0041    0.0020 C.cat     1 <0>         0.2979
      3 N1          0.0080   -0.7588   -1.0626 N.pl3     1 <0>        -0.4737
      4 C3          0.0275   -2.0475   -0.6911 C.2       1 <0>        -0.0205
      5 C4          0.0339   -2.0930    0.6548 C.2       1 <0>         0.0808
      6 N2          0.0232   -0.7970    1.0950 N.pl3     1 <0>        -0.4033
      7 C5          0.0304   -0.3529    2.4910 C.3       1 <0>         0.1075
      8 C6         -1.4059   -0.0982    2.9525 C.3       1 <0>        -0.1549
      9 H1         -1.8841    0.6077    2.2734 H         1 <0>         0.1159
     10 C7         -1.3885    0.4885    4.3640 C.3       1 <0>        -0.1033
     11 C8         -2.8183    0.7509    4.8527 C.3       1 <0>        -0.0678
     12 C9         -3.5900   -0.5440    4.7622 C.2       1 <0>         0.1608
     13 C10        -3.2525   -1.5391    3.8511 C.2       1 <0>        -0.2929
     14 C11        -4.1973   -2.6242    4.0575 C.ar      1 <0>        -0.0457
     15 C12        -4.3599   -3.8715    3.4560 C.ar      1 <0>        -0.0764
     16 C13        -5.3958   -4.6619    3.9235 C.ar      1 <0>        -0.1247
     17 C14        -6.2353   -4.2398    4.9399 C.ar      1 <0>        -0.1031
     18 C15        -6.0913   -3.0056    5.5500 C.ar      1 <0>        -0.1109
     19 C16        -5.0557   -2.1905    5.0985 C.ar      1 <0>         0.0674
     20 N3         -4.6518   -0.9388    5.4840 N.pl3     1 <0>        -0.4386
     21 C17        -5.2885   -0.1432    6.5366 C.3       1 <0>         0.0582
     22 C18        -2.1743   -1.4014    2.9445 C.2       1 <0>         0.4351
     23 O1         -1.8781   -2.2996    2.1833 O.2       1 <0>        -0.4834
     24 H2          1.0042    1.8801    0.0026 H         1 <0>         0.1202
     25 H3         -0.5455    1.8639   -0.8728 H         1 <0>         0.1154
     26 H4         -0.5286    1.8543    0.9071 H         1 <0>         0.1111
     27 H5          0.0365   -2.8993   -1.3550 H         1 <0>         0.2206
     28 H6          0.0489   -2.9814    1.2688 H         1 <0>         0.2208
     29 H7          0.4812   -1.1244    3.1154 H         1 <0>         0.1274
     30 H8          0.6082    0.5674    2.5767 H         1 <0>         0.1264
     31 H9         -0.8997   -0.2132    5.0399 H         1 <0>         0.0860
     32 H10        -0.8320    1.4257    4.3579 H         1 <0>         0.0979
     33 H11        -2.7965    1.0950    5.8867 H         1 <0>         0.1003
     34 H12        -3.2899    1.5053    4.2230 H         1 <0>         0.1037
     35 H13        -3.7083   -4.2053    2.6621 H         1 <0>         0.1362
     36 H14        -5.5535   -5.6351    3.4825 H         1 <0>         0.1266
     37 H15        -7.0290   -4.8948    5.2675 H         1 <0>         0.1297
     38 H16        -6.7537   -2.6880    6.3417 H         1 <0>         0.1330
     39 H17        -6.0755    0.4723    6.1009 H         1 <0>         0.0853
     40 H18        -5.7197   -0.8087    7.2844 H         1 <0>         0.0946
     41 H19        -4.5439    0.4986    7.0075 H         1 <0>         0.0930
     42 H20        -0.0004   -0.4384   -1.9781 H         1 <0>         0.4599
@<TRIPOS>BOND
     1    1    2 1
     2    1   24 1
     3    1   25 1
     4    1   26 1
     5    2    6 1
     6    2    3 2
     7    3    4 1
     8    3   42 1
     9    4    5 2
    10    4   27 1
    11    5    6 1
    12    5   28 1
    13    6    7 1
    14    7    8 1
    15    7   29 1
    16    7   30 1
    17    8    9 1
    18    8   22 1
    19    8   10 1
    20   10   11 1
    21   10   31 1
    22   10   32 1
    23   11   12 1
    24   11   33 1
    25   11   34 1
    26   12   20 1
    27   12   13 2
    28   13   14 1
    29   13   22 1
    30   14   19 ar
    31   14   15 ar
    32   15   16 ar
    33   15   35 1
    34   16   17 ar
    35   16   36 1
    36   17   18 ar
    37   17   37 1
    38   18   19 ar
    39   18   38 1
    40   19   20 1
    41   20   21 1
    42   21   39 1
    43   21   40 1
    44   21   41 1
    45   22   23 2
@<TRIPOS>MOLECULE
ZINC00075126
   41    44     0     0     0
SMALL
USER_CHARGES

@<TRIPOS>ATOM
      1 C1         -0.0184    1.5028    0.0103 C.3       1 <0>        -0.0661
      2 C2          0.0021   -0.0041    0.0020 C.2       1 <0>         0.1869
      3 N1          0.0080   -0.7588   -1.0626 N.2       1 <0>        -0.4889
      4 C3          0.0275   -2.0475   -0.6911 C.2       1 <0>        -0.0505
      5 C4          0.0339   -2.0930    0.6548 C.2       1 <0>         0.0014
      6 N2          0.0232   -0.7970    1.0950 N.pl3     1 <0>        -0.4534
      7 C5          0.0304   -0.3529    2.4910 C.3       1 <0>         0.1206
      8 C6         -1.4059   -0.0982    2.9525 C.3       1 <0>        -0.1509
      9 H1         -1.8841    0.6077    2.2734 H         1 <0>         0.1102
     10 C7         -1.3885    0.4885    4.3640 C.3       1 <0>        -0.1025
     11 C8         -2.8183    0.7509    4.8527 C.3       1 <0>        -0.0640
     12 C9         -3.5900   -0.5440    4.7622 C.2       1 <0>         0.1489
     13 C10        -3.2525   -1.5391    3.8511 C.2       1 <0>        -0.2766
     14 C11        -4.1973   -2.6242    4.0575 C.ar      1 <0>        -0.0486
     15 C12        -4.3599   -3.8715    3.4560 C.ar      1 <0>        -0.0694
     16 C13        -5.3958   -4.6619    3.9235 C.ar      1 <0>        -0.1332
     17 C14        -6.2353   -4.2398    4.9399 C.ar      1 <0>        -0.1059
     18 C15        -6.0913   -3.0056    5.5500 C.ar      1 <0>        -0.1184
     19 C16        -5.0557   -2.1905    5.0985 C.ar      1 <0>         0.0708
     20 N3         -4.6518   -0.9388    5.4840 N.pl3     1 <0>        -0.4469
     21 C17        -5.2885   -0.1432    6.5366 C.3       1 <0>         0.0636
     22 C18        -2.1743   -1.4014    2.9445 C.2       1 <0>         0.4259
     23 O1         -1.8781   -2.2996    2.1833 O.2       1 <0>        -0.4545
     24 H2          1.0042    1.8801    0.0026 H         1 <0>         0.0774
     25 H3         -0.5455    1.8639   -0.8728 H         1 <0>         0.0878
     26 H4         -0.5286    1.8543    0.9071 H         1 <0>         0.0677
     27 H5          0.0365   -2.8993   -1.3550 H         1 <0>         0.1650
     28 H6          0.0489   -2.9814    1.2688 H         1 <0>         0.1714
     29 H7          0.4812   -1.1244    3.1154 H         1 <0>         0.0947
     30 H8          0.6082    0.5674    2.5767 H         1 <0>         0.0991
     31 H9         -0.8997   -0.2132    5.0399 H         1 <0>         0.0787
     32 H10        -0.8320    1.4257    4.3579 H         1 <0>         0.0916
     33 H11        -2.7965    1.0950    5.8867 H         1 <0>         0.0925
     34 H12        -3.2899    1.5053    4.2230 H         1 <0>         0.0998
     35 H13        -3.7083   -4.2053    2.6621 H         1 <0>         0.1378
     36 H14        -5.5535   -5.6351    3.4825 H         1 <0>         0.1237
     37 H15        -7.0290   -4.8948    5.2675 H         1 <0>         0.1251
     38 H16        -6.7537   -2.6880    6.3417 H         1 <0>         0.1289
     39 H17        -6.0755    0.4723    6.1009 H         1 <0>         0.0805
     40 H18        -5.7197   -0.8087    7.2844 H         1 <0>         0.0898
     41 H19        -4.5439    0.4986    7.0075 H         1 <0>         0.0898
@<TRIPOS>BOND
     1    1    2 1
     2    1   24 1
     3    1   25 1
     4    1   26 1
     5    2    6 1
     6    2    3 2
     7    3    4 1
     8    4    5 2
     9    4   27 1
    10    5    6 1
    11    5   28 1
    12    6    7 1
    13    7    8 1
    14    7   29 1
    15    7   30 1
    16    8    9 1
    17    8   22 1
    18    8   10 1
    19   10   11 1
    20   10   31 1
    21   10   32 1
    22   11   12 1
    23   11   33 1
    24   11   34 1
    25   12   20 1
    26   12   13 2
    27   13   14 1
    28   13   22 1
    29   14   19 ar
    30   14   15 ar
    31   15   16 ar
    32   15   35 1
    33   16   17 ar
    34   16   36 1
    35   17   18 ar
    36   17   37 1
    37   18   19 ar
    38   18   38 1
    39   19   20 1
    40   20   21 1
    41   21   39 1
    42   21   40 1
    43   21   41 1
    44   22   23 2
@<TRIPOS>MOLECULE
ZINC00000504
   41    44     0     0     0
SMALL
USER_CHARGES

@<TRIPOS>ATOM
      1 C1         -0.0178    1.4648    0.0101 C.3       1 <0>        -0.0457
      2 N1          0.0021   -0.0041    0.0020 N.4       1 <0>        -0.3851
      3 C2         -1.3782   -0.5248    0.0610 C.3       1 <0>        -0.0107
      4 C3         -1.3147   -2.0017   -0.3247 C.3       1 <0>         0.1097
      5 N2         -0.2536   -2.6823    0.4304 N.pl3     1 <0>        -0.6570
      6 C4         -0.1632   -4.0681    0.2474 C.ar      1 <0>         0.1515
      7 C5          0.1651   -4.5655   -1.0110 C.ar      1 <0>        -0.1283
      8 C6          0.3219   -5.9257   -1.1894 C.ar      1 <0>        -0.1053
      9 C7          0.1595   -6.7897   -0.1216 C.ar      1 <0>        -0.1122
     10 C8         -0.1903   -6.2968    1.1226 C.ar      1 <0>        -0.0978
     11 C9         -0.3794   -4.9379    1.2936 C.ar      1 <0>        -0.0863
     12 C10        -0.9055   -4.4020    2.5876 C.3       1 <0>        -0.0401
     13 C11         0.0255   -3.4607    3.2849 C.ar      1 <0>        -0.0434
     14 C12         0.2033   -3.7275    4.6483 C.ar      1 <0>        -0.1164
     15 C13         1.0009   -2.9352    5.4386 C.ar      1 <0>        -0.1037
     16 C14         1.6407   -1.8450    4.8776 C.ar      1 <0>        -0.1092
     17 C15         1.4792   -1.5873    3.5373 C.ar      1 <0>        -0.1345
     18 C16         0.6836   -2.4040    2.7249 C.ar      1 <0>        -0.1120
     19 C17         0.6957   -2.0166    1.2712 C.3       1 <0>         0.2145
     20 H1          1.6762   -2.3177    0.9022 H         1 <0>         0.0814
     21 C18         0.7079   -0.4980    1.1840 C.3       1 <0>        -0.0096
     22 H2          1.0047    1.8421    0.0024 H         1 <0>         0.1256
     23 H3         -0.5450    1.8259   -0.8730 H         1 <0>         0.1278
     24 H4         -0.5280    1.8163    0.9069 H         1 <0>         0.1233
     25 H5         -1.7720   -0.4210    1.0720 H         1 <0>         0.1359
     26 H6         -2.0104    0.0166   -0.6429 H         1 <0>         0.1459
     27 H7         -2.2727   -2.4732   -0.1054 H         1 <0>         0.1007
     28 H8         -1.1096   -2.0872   -1.3918 H         1 <0>         0.0828
     29 H9          0.2970   -3.8905   -1.8436 H         1 <0>         0.1222
     30 H10         0.5722   -6.3158   -2.1649 H         1 <0>         0.1292
     31 H11         0.3058   -7.8509   -0.2596 H         1 <0>         0.1304
     32 H12        -0.3156   -6.9709    1.9570 H         1 <0>         0.1304
     33 H13        -1.8427   -3.8810    2.3915 H         1 <0>         0.0851
     34 H14        -1.1118   -5.2412    3.2519 H         1 <0>         0.0847
     35 H15        -0.2988   -4.5760    5.0892 H         1 <0>         0.1275
     36 H16         1.1270   -3.1618    6.4870 H         1 <0>         0.1317
     37 H17         2.2602   -1.2030    5.4861 H         1 <0>         0.1308
     38 H18         1.9776   -0.7345    3.1006 H         1 <0>         0.1191
     39 H19         1.7417   -0.1544    1.1475 H         1 <0>         0.1407
     40 H20         0.2329   -0.0891    2.0758 H         1 <0>         0.1370
     41 H21         0.4593   -0.3360   -0.8339 H         1 <0>         0.4294
@<TRIPOS>BOND
     1    1    2 1
     2    1   22 1
     3    1   23 1
     4    1   24 1
     5    2   21 1
     6    2    3 1
     7    2   41 1
     8    3    4 1
     9    3   25 1
    10    3   26 1
    11    4    5 1
    12    4   27 1
    13    4   28 1
    14    5   19 1
    15    5    6 1
    16    6   11 ar
    17    6    7 ar
    18    7    8 ar
    19    7   29 1
    20    8    9 ar
    21    8   30 1
    22    9   10 ar
    23    9   31 1
    24   10   11 ar
    25   10   32 1
    26   11   12 1
    27   12   13 1
    28   12   33 1
    29   12   34 1
    30   13   18 ar
    31   13   14 ar
    32   14   15 ar
    33   14   35 1
    34   15   16 ar
    35   15   36 1
    36   16   17 ar
    37   16   37 1
    38   17   18 ar
    39   17   38 1
    40   18   19 1
    41   19   20 1
    42   19   21 1
    43   21   39 1
    44   21   40 1
@<TRIPOS>MOLECULE
ZINC01530716
   43    43     0     0     0
SMALL
USER_CHARGES

@<TRIPOS>ATOM
      1 C1          0.0823    1.4510   -0.2163 C.3       1 <0>        -0.1873
      2 C2          0.0237   -0.0664   -0.0289 C.3       1 <0>        -0.0192
      3 N1         -1.3740   -0.4850    0.1418 N.4       1 <0>        -0.3820
      4 C3         -2.1159   -0.2330   -1.1009 C.3       1 <0>        -0.0140
      5 C4         -3.5996   -0.5332   -0.8788 C.3       1 <0>        -0.1894
      6 C5         -1.4206   -1.9189    0.4577 C.3       1 <0>        -0.0272
      7 C6         -0.7562   -2.1642    1.8139 C.3       1 <0>         0.1000
      8 N2         -0.8026   -3.5942    2.1289 N.am      1 <0>        -0.7385
      9 C7         -0.2733   -4.0476    3.2824 C.2       1 <0>         0.5796
     10 O1          0.2431   -3.2696    4.0619 O.2       1 <0>        -0.5100
     11 C8         -0.3200   -5.4846    3.5990 C.ar      1 <0>        -0.2394
     12 C9         -0.9083   -6.3825    2.7014 C.ar      1 <0>         0.0118
     13 C10        -0.9514   -7.7152    2.9955 C.ar      1 <0>        -0.1594
     14 C11        -0.4107   -8.1907    4.1899 C.ar      1 <0>         0.3057
     15 C12         0.1761   -7.3113    5.0909 C.ar      1 <0>        -0.2971
     16 C13         0.2305   -5.9594    4.7995 C.ar      1 <0>         0.2493
     17 O2          0.8078   -5.0965    5.6730 O.3       1 <0>        -0.2775
     18 C14         1.3467   -5.6527    6.8740 C.3       1 <0>         0.0171
     19 N3         -0.4597   -9.5504    4.4802 N.pl3     1 <0>        -0.8488
     20 Cl1        -1.6834   -8.8231    1.8773 Cl        1 <0>        -0.0598
     21 H1          1.1228    1.7753   -0.2311 H         1 <0>         0.1073
     22 H2         -0.3953    1.7194   -1.1586 H         1 <0>         0.0809
     23 H3         -0.4388    1.9392    0.6072 H         1 <0>         0.0808
     24 H4          0.4455   -0.5574   -0.9059 H         1 <0>         0.1316
     25 H5          0.5971   -0.3457    0.8550 H         1 <0>         0.1339
     26 H6         -1.9958    0.8109   -1.3904 H         1 <0>         0.1348
     27 H7         -1.7294   -0.8761   -1.8915 H         1 <0>         0.1306
     28 H8         -3.7314   -1.6000   -0.6980 H         1 <0>         0.0804
     29 H9         -3.9590    0.0285   -0.0166 H         1 <0>         0.0808
     30 H10        -4.1656   -0.2421   -1.7637 H         1 <0>         0.1072
     31 H11        -2.4588   -2.2488    0.4968 H         1 <0>         0.1395
     32 H12        -0.8905   -2.4782   -0.3132 H         1 <0>         0.1374
     33 H13         0.2820   -1.8343    1.7748 H         1 <0>         0.0888
     34 H14        -1.2864   -1.6049    2.5847 H         1 <0>         0.0887
     35 H15        -1.2144   -4.2146    1.5073 H         1 <0>         0.4036
     36 H16        -1.3292   -6.0208    1.7749 H         1 <0>         0.1376
     37 H17         0.5936   -7.6827    6.0151 H         1 <0>         0.1469
     38 H18         0.5529   -6.1481    7.4331 H         1 <0>         0.0616
     39 H19         2.1212   -6.3775    6.6232 H         1 <0>         0.0615
     40 H20         1.7770   -4.8568    7.4819 H         1 <0>         0.1082
     41 H21        -0.8694  -10.1659    3.8524 H         1 <0>         0.4093
     42 H22        -0.0842   -9.8829    5.3105 H         1 <0>         0.4097
     43 H23        -1.7925    0.0392    0.8955 H         1 <0>         0.4250
@<TRIPOS>BOND
     1    1    2 1
     2    1   21 1
     3    1   22 1
     4    1   23 1
     5    2    3 1
     6    2   24 1
     7    2   25 1
     8    3    4 1
     9    3    6 1
    10    3   43 1
    11    4    5 1
    12    4   26 1
    13    4   27 1
    14    5   28 1
    15    5   29 1
    16    5   30 1
    17    6    7 1
    18    6   31 1
    19    6   32 1
    20    7    8 1
    21    7   33 1
    22    7   34 1
    23    8    9 am
    24    8   35 1
    25    9   10 2
    26    9   11 1
    27   11   16 ar
    28   11   12 ar
    29   12   13 ar
    30   12   36 1
    31   13   14 ar
    32   13   20 1
    33   14   15 ar
    34   14   19 1
    35   15   16 ar
    36   15   37 1
    37   16   17 1
    38   17   18 1
    39   18   38 1
    40   18   39 1
    41   18   40 1
    42   19   41 1
    43   19   42 1
