@<TRIPOS>MOLECULE
ZINC03775140
   62    64     0     0     0
SMALL
USER_CHARGES

@<TRIPOS>ATOM
      1 C1         -0.0173    1.4248    0.0099 C.3       1 <0>         0.0171
      2 O1          0.0021   -0.0041    0.0020 O.3       1 <0>        -0.2760
      3 C2          0.6048   -0.6061   -1.0540 C.ar      1 <0>         0.2490
      4 C3          1.1714    0.1577   -2.0595 C.ar      1 <0>        -0.2968
      5 C4          1.7875   -0.4643   -3.1379 C.ar      1 <0>         0.3045
      6 C5          1.8368   -1.8562   -3.2112 C.ar      1 <0>        -0.1599
      7 C6          1.2804   -2.6188   -2.2247 C.ar      1 <0>         0.0104
      8 C7          0.6619   -2.0064   -1.1291 C.ar      1 <0>        -0.2378
      9 C8          0.0677   -2.8282   -0.0619 C.2       1 <0>         0.5777
     10 O2         -0.4739   -2.2937    0.8871 O.2       1 <0>        -0.5075
     11 N1          0.1238   -4.1727   -0.1363 N.am      1 <0>        -0.7330
     12 C9         -0.4675   -4.9905    0.9257 C.3       1 <0>         0.1404
     13 H1         -1.3642   -4.5012    1.3060 H         1 <0>         0.1248
     14 C10         0.5437   -5.1622    2.0629 C.3       1 <0>        -0.1546
     15 C11         1.7671   -5.9184    1.5404 C.3       1 <0>        -0.0167
     16 N2          1.3566   -7.2378    1.0453 N.4       1 <0>        -0.3759
     17 C12         0.4423   -7.0806   -0.0921 C.3       1 <0>        -0.0388
     18 C13        -0.8339   -6.3685    0.3670 C.3       1 <0>         0.0659
     19 H2         -1.3203   -6.9585    1.1438 H         1 <0>         0.1015
     20 O3         -1.7219   -6.2131   -0.7418 O.3       1 <0>        -0.3502
     21 C14        -2.6322   -7.3011   -0.9143 C.3       1 <0>         0.0179
     22 C15         2.5438   -7.9895    0.6171 C.3       1 <0>        -0.0062
     23 C16         3.4343   -8.2703    1.8292 C.3       1 <0>        -0.1507
     24 C17         4.6708   -9.0533    1.3832 C.3       1 <0>         0.0614
     25 O4          5.5024   -9.3155    2.5152 O.3       1 <0>        -0.3099
     26 C18         6.6507  -10.0076    2.2904 C.ar      1 <0>         0.1104
     27 C19         6.9722  -10.4203    1.0058 C.ar      1 <0>        -0.1786
     28 C20         8.1394  -11.1237    0.7787 C.ar      1 <0>        -0.1136
     29 C21         8.9878  -11.4170    1.8328 C.ar      1 <0>         0.0730
     30 C22         8.6679  -11.0061    3.1156 C.ar      1 <0>        -0.1109
     31 C23         7.5046  -10.2969    3.3445 C.ar      1 <0>        -0.1156
     32 F1         10.1287  -12.1053    1.6094 F         1 <0>        -0.1339
     33 Cl1         2.6089   -2.6229   -4.5639 Cl        1 <0>        -0.0623
     34 N3          2.3569    0.3038   -4.1485 N.pl3     1 <0>        -0.8495
     35 H3          1.0053    1.8021    0.0021 H         1 <0>         0.0609
     36 H4         -0.5445    1.7859   -0.8732 H         1 <0>         0.0614
     37 H5         -0.5275    1.7763    0.9067 H         1 <0>         0.1085
     38 H6          1.1342    1.2357   -2.0059 H         1 <0>         0.1464
     39 H7          1.3215   -3.6961   -2.2880 H         1 <0>         0.1333
     40 H8          0.5557   -4.5989   -0.8931 H         1 <0>         0.3942
     41 H9          0.8503   -4.1821    2.4284 H         1 <0>         0.1283
     42 H10         0.0859   -5.7273    2.8748 H         1 <0>         0.1026
     43 H11         2.2242   -5.3523    0.7288 H         1 <0>         0.1317
     44 H12         2.4891   -6.0421    2.3475 H         1 <0>         0.1399
     45 H13         0.9276   -6.4898   -0.8690 H         1 <0>         0.1341
     46 H14         0.1862   -8.0624   -0.4903 H         1 <0>         0.1380
     47 H15        -2.0715   -8.2215   -1.0778 H         1 <0>         0.0481
     48 H16        -3.2481   -7.4047   -0.0210 H         1 <0>         0.0566
     49 H17        -3.2712   -7.1071   -1.7758 H         1 <0>         0.1042
     50 H18         2.2339   -8.9329    0.1676 H         1 <0>         0.1368
     51 H19         3.1003   -7.4039   -0.1147 H         1 <0>         0.1356
     52 H20         3.7442   -7.3269    2.2786 H         1 <0>         0.1012
     53 H21         2.8778   -8.8559    2.5610 H         1 <0>         0.1013
     54 H22         4.3608   -9.9967    0.9337 H         1 <0>         0.0740
     55 H23         5.2272   -8.4676    0.6514 H         1 <0>         0.0740
     56 H24         6.3103  -10.1922    0.1835 H         1 <0>         0.1353
     57 H25         8.3900  -11.4451   -0.2214 H         1 <0>         0.1422
     58 H26         9.3304  -11.2359    3.9370 H         1 <0>         0.1482
     59 H27         7.2577   -9.9722    4.3445 H         1 <0>         0.1439
     60 H28         2.3233    1.2719   -4.0992 H         1 <0>         0.4097
     61 H29         2.7876   -0.1289   -4.9023 H         1 <0>         0.4089
     62 H30         0.8896   -7.7426    1.7837 H         1 <0>         0.4252
@<TRIPOS>BOND
     1    1    2 1
     2    1   35 1
     3    1   36 1
     4    1   37 1
     5    2    3 1
     6    3    8 ar
     7    3    4 ar
     8    4    5 ar
     9    4   38 1
    10    5    6 ar
    11    5   34 1
    12    6    7 ar
    13    6   33 1
    14    7    8 ar
    15    7   39 1
    16    8    9 1
    17    9   10 2
    18    9   11 am
    19   11   12 1
    20   11   40 1
    21   12   13 1
    22   12   18 1
    23   12   14 1
    24   14   15 1
    25   14   41 1
    26   14   42 1
    27   15   16 1
    28   15   43 1
    29   15   44 1
    30   16   17 1
    31   16   22 1
    32   16   62 1
    33   17   18 1
    34   17   45 1
    35   17   46 1
    36   18   19 1
    37   18   20 1
    38   20   21 1
    39   21   47 1
    40   21   48 1
    41   21   49 1
    42   22   23 1
    43   22   50 1
    44   22   51 1
    45   23   24 1
    46   23   52 1
    47   23   53 1
    48   24   25 1
    49   24   54 1
    50   24   55 1
    51   25   26 1
    52   26   31 ar
    53   26   27 ar
    54   27   28 ar
    55   27   56 1
    56   28   29 ar
    57   28   57 1
    58   29   30 ar
    59   29   32 1
    60   30   31 ar
    61   30   58 1
    62   31   59 1
    63   34   60 1
    64   34   61 1
@<TRIPOS>MOLECULE
ZINC03830564
   62    64     0     0     0
SMALL
USER_CHARGES

@<TRIPOS>ATOM
      1 C1         -0.0173    1.4248    0.0099 C.3       1 <0>         0.0173
      2 O1          0.0021   -0.0041    0.0020 O.3       1 <0>        -0.2768
      3 C2          0.6048   -0.6061   -1.0540 C.ar      1 <0>         0.2482
      4 C3          1.1714    0.1577   -2.0595 C.ar      1 <0>        -0.2974
      5 C4          1.7875   -0.4643   -3.1379 C.ar      1 <0>         0.3044
      6 C5          1.8368   -1.8562   -3.2112 C.ar      1 <0>        -0.1594
      7 C6          1.2804   -2.6188   -2.2247 C.ar      1 <0>         0.0124
      8 C7          0.6619   -2.0064   -1.1291 C.ar      1 <0>        -0.2376
      9 C8          0.0677   -2.8282   -0.0619 C.2       1 <0>         0.5803
     10 O2         -0.4739   -2.2937    0.8871 O.2       1 <0>        -0.5144
     11 N1          0.1238   -4.1727   -0.1363 N.am      1 <0>        -0.7279
     12 C9         -0.4675   -4.9905    0.9257 C.3       1 <0>         0.1426
     13 H1         -0.3382   -4.4904    1.8855 H         1 <0>         0.1147
     14 C10        -1.9606   -5.1884    0.6484 C.3       1 <0>        -0.1574
     15 C11        -2.5547   -6.1082    1.7173 C.3       1 <0>        -0.0121
     16 N2         -1.8729   -7.4076    1.6837 N.4       1 <0>        -0.3780
     17 C12        -0.4544   -7.2346    2.0193 C.3       1 <0>        -0.0308
     18 C13         0.2219   -6.3574    0.9634 C.3       1 <0>         0.0634
     19 H2          0.1375   -6.8346   -0.0130 H         1 <0>         0.0897
     20 O3          1.6015   -6.1871    1.2946 O.3       1 <0>        -0.3498
     21 C14         2.4612   -7.1803    0.7321 C.3       1 <0>         0.0175
     22 C15        -2.4981   -8.3123    2.6576 C.3       1 <0>        -0.0056
     23 C16        -3.9400   -8.5999    2.2341 C.3       1 <0>        -0.1510
     24 C17        -4.5912   -9.5422    3.2484 C.3       1 <0>         0.0612
     25 O4         -5.9378   -9.8107    2.8528 O.3       1 <0>        -0.3101
     26 C18        -6.6627  -10.6375    3.6523 C.ar      1 <0>         0.1103
     27 C19        -6.0908  -11.1740    4.7964 C.ar      1 <0>        -0.1786
     28 C20        -6.8286  -12.0140    5.6079 C.ar      1 <0>        -0.1136
     29 C21        -8.1381  -12.3209    5.2793 C.ar      1 <0>         0.0729
     30 C22        -8.7100  -11.7865    4.1373 C.ar      1 <0>        -0.1110
     31 C23        -7.9767  -10.9409    3.3276 C.ar      1 <0>        -0.1157
     32 F1         -8.8583  -13.1429    6.0736 F         1 <0>        -0.1339
     33 Cl1         2.6089   -2.6229   -4.5639 Cl        1 <0>        -0.0612
     34 N3          2.3569    0.3038   -4.1485 N.pl3     1 <0>        -0.8498
     35 H3          1.0053    1.8021    0.0021 H         1 <0>         0.0610
     36 H4         -0.5445    1.7859   -0.8732 H         1 <0>         0.0608
     37 H5         -0.5275    1.7763    0.9067 H         1 <0>         0.1075
     38 H6          1.1342    1.2357   -2.0059 H         1 <0>         0.1460
     39 H7          1.3215   -3.6961   -2.2880 H         1 <0>         0.1366
     40 H8          0.5557   -4.5989   -0.8931 H         1 <0>         0.4011
     41 H9         -2.4669   -4.2235    0.6762 H         1 <0>         0.1280
     42 H10        -2.0914   -5.6407   -0.3346 H         1 <0>         0.0936
     43 H11        -2.4236   -5.6548    2.6998 H         1 <0>         0.1373
     44 H12        -3.6177   -6.2510    1.5230 H         1 <0>         0.1408
     45 H13        -0.3681   -6.7573    2.9954 H         1 <0>         0.1434
     46 H14         0.0331   -8.2090    2.0480 H         1 <0>         0.1370
     47 H15         2.1631   -8.1650    1.0923 H         1 <0>         0.0484
     48 H16         2.3857   -7.1529   -0.3549 H         1 <0>         0.0550
     49 H17         3.4905   -6.9808    1.0300 H         1 <0>         0.1046
     50 H18        -1.9380   -9.2465    2.6975 H         1 <0>         0.1365
     51 H19        -2.4951   -7.8445    3.6421 H         1 <0>         0.1371
     52 H20        -4.5001   -7.6657    2.1942 H         1 <0>         0.1015
     53 H21        -3.9430   -9.0676    1.2495 H         1 <0>         0.1005
     54 H22        -4.0310  -10.4764    3.2882 H         1 <0>         0.0740
     55 H23        -4.5881   -9.0744    4.2329 H         1 <0>         0.0745
     56 H24        -5.0691  -10.9353    5.0526 H         1 <0>         0.1356
     57 H25        -6.3836  -12.4318    6.4989 H         1 <0>         0.1423
     58 H26        -9.7315  -12.0270    3.8820 H         1 <0>         0.1482
     59 H27        -8.4246  -10.5203    2.4394 H         1 <0>         0.1438
     60 H28         2.3233    1.2719   -4.0992 H         1 <0>         0.4092
     61 H29         2.7876   -0.1289   -4.9023 H         1 <0>         0.4089
     62 H30        -1.9528   -7.8044    0.7595 H         1 <0>         0.4239
@<TRIPOS>BOND
     1    1    2 1
     2    1   35 1
     3    1   36 1
     4    1   37 1
     5    2    3 1
     6    3    8 ar
     7    3    4 ar
     8    4    5 ar
     9    4   38 1
    10    5    6 ar
    11    5   34 1
    12    6    7 ar
    13    6   33 1
    14    7    8 ar
    15    7   39 1
    16    8    9 1
    17    9   10 2
    18    9   11 am
    19   11   12 1
    20   11   40 1
    21   12   13 1
    22   12   18 1
    23   12   14 1
    24   14   15 1
    25   14   41 1
    26   14   42 1
    27   15   16 1
    28   15   43 1
    29   15   44 1
    30   16   17 1
    31   16   22 1
    32   16   62 1
    33   17   18 1
    34   17   45 1
    35   17   46 1
    36   18   19 1
    37   18   20 1
    38   20   21 1
    39   21   47 1
    40   21   48 1
    41   21   49 1
    42   22   23 1
    43   22   50 1
    44   22   51 1
    45   23   24 1
    46   23   52 1
    47   23   53 1
    48   24   25 1
    49   24   54 1
    50   24   55 1
    51   25   26 1
    52   26   31 ar
    53   26   27 ar
    54   27   28 ar
    55   27   56 1
    56   28   29 ar
    57   28   57 1
    58   29   30 ar
    59   29   32 1
    60   30   31 ar
    61   30   58 1
    62   31   59 1
    63   34   60 1
    64   34   61 1
@<TRIPOS>MOLECULE
ZINC13805803
   41    42     0     0     0
SMALL
USER_CHARGES
2-(2-ethyl-5-methoxy-1H-indol-3-yl)-N,N-dimethyl-ethanamine
@<TRIPOS>ATOM
      1 C1         -0.5324   -2.0518   -2.9154 C.3       1 <0>        -0.1494
      2 C2         -1.8562   -2.3550   -2.2107 C.3       1 <0>        -0.0751
      3 C3         -1.5806   -2.8367   -0.8096 C.2       1 <0>         0.1256
      4 C4         -1.3886   -2.0415    0.2549 C.2       1 <0>        -0.2066
      5 C5         -1.1617   -2.9160    1.4080 C.ar      1 <0>        -0.0554
      6 C6         -0.9137   -2.6879    2.7635 C.ar      1 <0>        -0.1287
      7 C7         -0.7404   -3.7604    3.6150 C.ar      1 <0>         0.1168
      8 C8         -0.8120   -5.0628    3.1270 C.ar      1 <0>        -0.1757
      9 C9         -1.0559   -5.2994    1.7928 C.ar      1 <0>        -0.0790
     10 C10        -1.2334   -4.2323    0.9184 C.ar      1 <0>         0.0635
     11 N1         -1.4859   -4.1489   -0.4347 N.pl3     1 <0>        -0.5834
     12 H1         -1.5852   -4.9075   -1.0310 H         1 <0>         0.4205
     13 O1         -0.4983   -3.5443    4.9356 O.3       1 <0>        -0.3182
     14 C11        -0.3286   -4.6982    5.7613 C.3       1 <0>         0.0253
     15 C12        -1.4090   -0.5347    0.2631 C.3       1 <0>        -0.0590
     16 C13         0.0021   -0.0041    0.0020 C.3       1 <0>        -0.0102
     17 C14         1.3463    2.0098   -0.0000 C.3       1 <0>        -0.0426
     18 C15        -0.8017    1.9868   -1.1173 C.3       1 <0>        -0.0479
     19 H2          0.0737   -2.9568   -2.9550 H         1 <0>         0.0624
     20 H3         -0.7318   -1.7034   -3.9288 H         1 <0>         0.0715
     21 H4          0.0038   -1.2791   -2.3644 H         1 <0>         0.0503
     22 H5         -2.3924   -3.1277   -2.7616 H         1 <0>         0.0840
     23 H6         -2.4624   -1.4500   -2.1711 H         1 <0>         0.0915
     24 H7         -0.8583   -1.6783    3.1432 H         1 <0>         0.1270
     25 H8         -0.6746   -5.8951    3.8015 H         1 <0>         0.1373
     26 H9         -1.1090   -6.3135    1.4251 H         1 <0>         0.1291
     27 H10        -0.1423   -4.3856    6.7888 H         1 <0>         0.1042
     28 H11        -1.2320   -5.3071    5.7250 H         1 <0>         0.0580
     29 H12         0.5179   -5.2822    5.4001 H         1 <0>         0.0574
     30 H13        -1.7561   -0.1814    1.2341 H         1 <0>         0.0920
     31 H14        -2.0819   -0.1762   -0.5158 H         1 <0>         0.0894
     32 H15         0.3492   -0.3574   -0.9689 H         1 <0>         0.1307
     33 H16         0.6750   -0.3626    0.7809 H         1 <0>         0.1304
     34 H17         1.8658    1.6723   -0.8968 H         1 <0>         0.1215
     35 H18         1.3024    3.0989    0.0063 H         1 <0>         0.1222
     36 H19         1.8828    1.6627    0.8830 H         1 <0>         0.1213
     37 H20        -1.8268    1.6230   -1.0465 H         1 <0>         0.1224
     38 H21        -0.8000    3.0764   -1.0873 H         1 <0>         0.1224
     39 H22        -0.3600    1.6485   -2.0545 H         1 <0>         0.1222
     40 N2         -0.0305    1.4733    0.0344 N.4       1 <0>        -0.3989
     41 H23        -0.4856    1.7779    0.9029 H         1 <0>         0.4311
@<TRIPOS>BOND
     1    1    2 1
     2    1   19 1
     3    1   20 1
     4    1   21 1
     5    2    3 1
     6    2   22 1
     7    2   23 1
     8    3   11 1
     9    3    4 2
    10    4    5 1
    11    4   15 1
    12    5   10 ar
    13    5    6 ar
    14    6    7 ar
    15    6   24 1
    16    7    8 ar
    17    7   13 1
    18    8    9 ar
    19    8   25 1
    20    9   10 ar
    21    9   26 1
    22   10   11 1
    23   11   12 1
    24   13   14 1
    25   14   27 1
    26   14   28 1
    27   14   29 1
    28   15   16 1
    29   15   30 1
    30   15   31 1
    31   16   32 1
    32   16   33 1
    33   16   40 1
    34   17   34 1
    35   17   35 1
    36   17   36 1
    37   17   40 1
    38   18   37 1
    39   18   38 1
    40   18   39 1
    41   18   40 1
    42   40   41 1
@<TRIPOS>MOLECULE
ZINC03790774
   45    47     0     0     0
SMALL
USER_CHARGES
4-amino-5-chloro-N-(2,3,5,6,7,8-hexahydro-1H-pyrrolizin-1-ylmethyl)-2-methoxy-benzamide
@<TRIPOS>ATOM
      1 C1         -0.0127    1.0858    0.0080 C.3       1 <0>         0.0173
      2 O1         -0.6816    1.5467    1.1837 O.3       1 <0>        -0.2765
      3 C2         -0.1497    1.1827    2.3776 C.ar      1 <0>         0.2472
      4 C3          0.9873    0.3947    2.4212 C.ar      1 <0>        -0.2970
      5 C4          1.5297    0.0289    3.6464 C.ar      1 <0>         0.3032
      6 C5          0.9268    0.4445    4.8334 C.ar      1 <0>        -0.1597
      7 C6         -0.1979    1.2181    4.8014 C.ar      1 <0>         0.0110
      8 C7         -0.7531    1.5986    3.5746 C.ar      1 <0>        -0.2366
      9 C8         -1.9656    2.4327    3.5396 C.2       1 <0>         0.5750
     10 O2         -2.4463    2.7626    2.4720 O.2       1 <0>        -0.5143
     11 N1         -2.5432    2.8308    4.6904 N.am      1 <0>        -0.7404
     12 C9         -3.7499    3.6608    4.6556 C.3       1 <0>         0.1271
     13 C10        -4.1977    3.9699    6.0855 C.3       1 <0>        -0.1179
     14 H1         -3.3781    4.4143    6.6501 H         1 <0>         0.1196
     15 C11        -4.6928    2.6823    6.7825 C.3       1 <0>        -0.1459
     16 C12        -5.8970    3.1848    7.6185 C.3       1 <0>        -0.0059
     17 C13        -5.4101    4.9148    6.0722 C.3       1 <0>         0.0291
     18 H2         -5.6765    5.2083    5.0568 H         1 <0>         0.1543
     19 C14        -5.1127    6.1368    6.9728 C.3       1 <0>        -0.1361
     20 C15        -6.5375    6.5415    7.4342 C.3       1 <0>        -0.1445
     21 C16        -7.2539    5.1834    7.5831 C.3       1 <0>        -0.0088
     22 Cl1         1.6092   -0.0246    6.3591 Cl        1 <0>        -0.0621
     23 N2          2.6757   -0.7588    3.6898 N.pl3     1 <0>        -0.8505
     24 H3          0.0021   -0.0041    0.0020 H         1 <0>         0.0607
     25 H4          1.0099    1.4631    0.0003 H         1 <0>         0.0609
     26 H5         -0.5399    1.4469   -0.8751 H         1 <0>         0.1076
     27 H6          1.4540    0.0676    1.5038 H         1 <0>         0.1459
     28 H7         -0.6598    1.5365    5.7242 H         1 <0>         0.1369
     29 H8         -2.1599    2.5677    5.5418 H         1 <0>         0.3988
     30 H9         -3.5348    4.5928    4.1327 H         1 <0>         0.0809
     31 H10        -4.5436    3.1263    4.1338 H         1 <0>         0.0750
     32 H11        -5.0149    1.9450    6.0472 H         1 <0>         0.1037
     33 H12        -3.9174    2.2709    7.4288 H         1 <0>         0.1176
     34 H13        -5.5541    3.6335    8.5508 H         1 <0>         0.1312
     35 H14        -6.5935    2.3708    7.8197 H         1 <0>         0.1402
     36 H15        -4.4929    5.8531    7.8234 H         1 <0>         0.0990
     37 H16        -4.6451    6.9384    6.4012 H         1 <0>         0.1177
     38 H17        -7.0276    7.1549    6.6781 H         1 <0>         0.1009
     39 H18        -6.5018    7.0652    8.3895 H         1 <0>         0.1122
     40 H19        -8.2853    5.2692    7.2409 H         1 <0>         0.1350
     41 H20        -7.2329    4.8659    8.6257 H         1 <0>         0.1300
     42 H21         3.0539   -1.0180    4.5445 H         1 <0>         0.4086
     43 H22         3.0964   -1.0488    2.8652 H         1 <0>         0.4090
     44 N3         -6.4973    4.2165    6.7562 N.4       1 <0>        -0.3911
     45 H23        -7.1249    3.7805    6.0704 H         1 <0>         0.4320
@<TRIPOS>BOND
     1    1    2 1
     2    1   24 1
     3    1   25 1
     4    1   26 1
     5    2    3 1
     6    3    8 ar
     7    3    4 ar
     8    4    5 ar
     9    4   27 1
    10    5    6 ar
    11    5   23 1
    12    6    7 ar
    13    6   22 1
    14    7    8 ar
    15    7   28 1
    16    8    9 1
    17    9   10 2
    18    9   11 am
    19   11   12 1
    20   11   29 1
    21   12   13 1
    22   12   30 1
    23   12   31 1
    24   13   14 1
    25   13   17 1
    26   13   15 1
    27   15   16 1
    28   15   32 1
    29   15   33 1
    30   16   34 1
    31   16   35 1
    32   16   44 1
    33   17   18 1
    34   17   19 1
    35   17   44 1
    36   19   20 1
    37   19   36 1
    38   19   37 1
    39   20   21 1
    40   20   38 1
    41   20   39 1
    42   21   40 1
    43   21   41 1
    44   21   44 1
    45   23   42 1
    46   23   43 1
    47   44   45 1
@<TRIPOS>MOLECULE
ZINC00009350
   33    35     0     0     0
SMALL
USER_CHARGES

@<TRIPOS>ATOM
      1 C1         -0.0184    1.5028    0.0103 C.3       1 <0>        -0.1021
      2 C2          0.0021   -0.0041    0.0020 C.2       1 <0>         0.1280
      3 C3          0.0075   -0.7795   -1.1127 C.2       1 <0>        -0.1836
      4 C4          0.0286   -2.1786   -0.6531 C.ar      1 <0>        -0.0759
      5 C5          0.0419   -3.4106   -1.3052 C.ar      1 <0>        -0.0731
      6 C6          0.0607   -4.5733   -0.5660 C.ar      1 <0>        -0.0481
      7 C7          0.0659   -4.5213    0.8221 C.ar      1 <0>        -0.0887
      8 C8          0.0524   -3.3110    1.4790 C.ar      1 <0>        -0.1050
      9 C9          0.0343   -2.1255    0.7507 C.ar      1 <0>         0.0979
     10 N1          0.0239   -0.7952    1.1133 N.pl3     1 <0>        -0.5814
     11 H1          0.0285   -0.4690    2.0268 H         1 <0>         0.4237
     12 Cl1         0.0774   -6.1101   -1.3732 Cl        1 <0>        -0.0609
     13 C10        -0.0058   -0.3114   -2.5125 C.2       1 <0>        -0.0025
     14 C11         1.1424   -0.0995   -3.1223 C.2       1 <0>        -0.1935
     15 C12         1.2362    0.3819   -4.5414 C.3       1 <0>         0.0374
     16 N2         -0.0341    0.1601   -5.2420 N.4       1 <0>        -0.5088
     17 C13        -1.1261    0.7510   -4.4525 C.3       1 <0>        -0.0039
     18 C14        -1.3297   -0.0991   -3.1938 C.3       1 <0>        -0.1174
     19 H2          1.0042    1.8801    0.0026 H         1 <0>         0.0864
     20 H3         -0.5455    1.8639   -0.8728 H         1 <0>         0.0842
     21 H4         -0.5286    1.8543    0.9071 H         1 <0>         0.0789
     22 H5          0.0372   -3.4535   -2.3843 H         1 <0>         0.1283
     23 H6          0.0803   -5.4388    1.3916 H         1 <0>         0.1428
     24 H7          0.0559   -3.2820    2.5586 H         1 <0>         0.1360
     25 H8          2.0571   -0.2797   -2.5771 H         1 <0>         0.1496
     26 H9          1.4694    1.4467   -4.5463 H         1 <0>         0.1397
     27 H10         2.0304   -0.1605   -5.0544 H         1 <0>         0.1418
     28 H11         0.0006    0.5975   -6.1506 H         1 <0>         0.4348
     29 H12        -0.8639    1.7710   -4.1713 H         1 <0>         0.1344
     30 H13        -2.0429    0.7554   -5.0419 H         1 <0>         0.1390
     31 H14        -1.7556   -1.0642   -3.4682 H         1 <0>         0.1076
     32 H15        -2.0086    0.4173   -2.5151 H         1 <0>         0.1229
     33 H16        -0.1923   -0.8307   -5.3486 H         1 <0>         0.4316
@<TRIPOS>BOND
     1    1    2 1
     2    1   19 1
     3    1   20 1
     4    1   21 1
     5    2   10 1
     6    2    3 2
     7    3    4 1
     8    3   13 1
     9    4    9 ar
    10    4    5 ar
    11    5    6 ar
    12    5   22 1
    13    6    7 ar
    14    6   12 1
    15    7    8 ar
    16    7   23 1
    17    8    9 ar
    18    8   24 1
    19    9   10 1
    20   10   11 1
    21   13   18 1
    22   13   14 2
    23   14   15 1
    24   14   25 1
    25   15   16 1
    26   15   26 1
    27   15   27 1
    28   16   17 1
    29   16   28 1
    30   16   33 1
    31   17   18 1
    32   17   29 1
    33   17   30 1
    34   18   31 1
    35   18   32 1
@<TRIPOS>MOLECULE
ZINC00057058
   26    27     0     0     0
SMALL
USER_CHARGES

@<TRIPOS>ATOM
      1 C1         -0.0168    1.3880    0.0097 C.ar      1 <0>        -0.1182
      2 C2          1.1587    2.1055    0.0023 C.ar      1 <0>        -0.1024
      3 C3          2.3795    1.4398   -0.0129 C.ar      1 <0>         0.0862
      4 C4          2.4019    0.0334   -0.0206 C.ar      1 <0>        -0.0842
      5 C5          1.2039   -0.6838   -0.0130 C.ar      1 <0>        -0.1143
      6 C6          0.0021   -0.0041    0.0020 C.ar      1 <0>         0.0953
      7 O1         -1.1679   -0.6972    0.0094 O.3       1 <0>        -0.4959
      8 C7          3.8159   -0.3493   -0.0361 C.2       1 <0>        -0.2101
      9 C8          4.5307    0.7870   -0.0369 C.2       1 <0>         0.0918
     10 N1          3.6908    1.8667   -0.0231 N.pl3     1 <0>        -0.5866
     11 H1          3.9751    2.7941   -0.0208 H         1 <0>         0.4248
     12 C9          4.3642   -1.7530   -0.0489 C.3       1 <0>        -0.0616
     13 C10         4.4190   -2.2661   -1.4892 C.3       1 <0>        -0.0080
     14 N2          4.9535   -3.6343   -1.5017 N.4       1 <0>        -0.6389
     15 H2         -0.9621    1.9101    0.0260 H         1 <0>         0.1389
     16 H3          1.1325    3.1852    0.0080 H         1 <0>         0.1315
     17 H4          1.2172   -1.7637   -0.0192 H         1 <0>         0.1256
     18 H5         -1.5147   -0.8930   -0.8718 H         1 <0>         0.3922
     19 H6          5.6093    0.8408   -0.0472 H         1 <0>         0.1750
     20 H7          5.3681   -1.7548    0.3759 H         1 <0>         0.0927
     21 H8          3.7180   -2.4009    0.5433 H         1 <0>         0.0925
     22 H9          3.4152   -2.2643   -1.9140 H         1 <0>         0.1329
     23 H10         5.0652   -1.6182   -2.0814 H         1 <0>         0.1331
     24 H11         5.8827   -3.6360   -1.1085 H         1 <0>         0.4347
     25 H12         4.3553   -4.2341   -0.9535 H         1 <0>         0.4353
     26 H13         4.9896   -3.9727   -2.4515 H         1 <0>         0.4379
@<TRIPOS>BOND
     1    1    6 ar
     2    1    2 ar
     3    1   15 1
     4    2    3 ar
     5    2   16 1
     6    3   10 1
     7    3    4 ar
     8    4    5 ar
     9    4    8 1
    10    5    6 ar
    11    5   17 1
    12    6    7 1
    13    7   18 1
    14    8    9 2
    15    8   12 1
    16    9   10 1
    17    9   19 1
    18   10   11 1
    19   12   13 1
    20   12   20 1
    21   12   21 1
    22   13   14 1
    23   13   22 1
    24   13   23 1
    25   14   24 1
    26   14   25 1
    27   14   26 1
@<TRIPOS>MOLECULE
ZINC22117939
   37    39     0     0     0
SMALL
USER_CHARGES
2-[4-(2-quinolyl)piperazin-1-yl]acetic acid
@<TRIPOS>ATOM
      1 C1         -0.0126    1.0758    0.0080 C.ar      1 <0>        -0.1210
      2 C2         -1.2332    1.7467    0.0174 C.ar      1 <0>        -0.0892
      3 C3         -1.2863    3.1070    0.0297 C.ar      1 <0>        -0.1036
      4 C4         -0.0944    3.8517    0.0227 C.ar      1 <0>         0.1543
      5 C5          1.1455    3.1674    0.0077 C.ar      1 <0>        -0.1194
      6 C6          1.1628    1.7641    0.0004 C.ar      1 <0>        -0.0878
      7 C7          2.3412    3.9140    0.0007 C.ar      1 <0>        -0.0315
      8 C8          2.2536    5.2736    0.0097 C.ar      1 <0>        -0.1785
      9 C9          0.9956    5.8925    0.0246 C.ar      1 <0>         0.3340
     10 N1         -0.1183    5.1892    0.0306 N.ar      1 <0>        -0.5139
     11 N2          0.9221    7.2774    0.0336 N.pl3     1 <0>        -0.4798
     12 C10         1.6668    7.8368    1.1703 C.3       1 <0>         0.0343
     13 C11         1.6280    9.3652    1.0996 C.3       1 <0>        -0.0007
     14 N3          0.2302    9.8184    1.1152 N.4       1 <0>        -0.3835
     15 C12        -0.5145    9.2589   -0.0215 C.3       1 <0>        -0.0044
     16 C13        -0.4757    7.7306    0.0492 C.3       1 <0>         0.0406
     17 C14         0.1524   11.2853    1.1248 C.3       1 <0>        -0.0516
     18 C15         0.7103   11.8095    2.4229 C.2       1 <0>         0.4534
     19 O1          1.1296   11.0400    3.2547 O.co2     1 <0>        -0.6207
     20 O2          0.7413   13.1311    2.6550 O.co2     1 <0>        -0.7044
     21 H1          0.0021   -0.0041    0.0020 H         1 <0>         0.1304
     22 H2         -2.1519    1.1788    0.0191 H         1 <0>         0.1324
     23 H3         -2.2409    3.6120    0.0411 H         1 <0>         0.1350
     24 H4          2.1030    1.2328   -0.0107 H         1 <0>         0.1324
     25 H5          3.3020    3.4209   -0.0104 H         1 <0>         0.1460
     26 H6          3.1516    5.8736    0.0054 H         1 <0>         0.1423
     27 H7          1.2068    7.5005    2.1112 H         1 <0>         0.0735
     28 H8          2.7110    7.4932    1.1294 H         1 <0>         0.1255
     29 H9          2.1606    9.7859    1.9653 H         1 <0>         0.1624
     30 H10         2.1133    9.7018    0.1716 H         1 <0>         0.1247
     31 H11        -1.5587    9.6024    0.0195 H         1 <0>         0.1349
     32 H12        -0.0545    9.5952   -0.9624 H         1 <0>         0.1294
     33 H13        -1.0075    7.3089   -0.8164 H         1 <0>         0.1267
     34 H14        -0.9603    7.3931    0.9772 H         1 <0>         0.0751
     35 H15         0.7369   11.6890    0.2849 H         1 <0>         0.1289
     36 H16        -0.8976   11.5975    1.0243 H         1 <0>         0.1329
     37 H17        -0.2359    9.4504    2.0411 H         1 <0>         0.4409
@<TRIPOS>BOND
     1    1    6 ar
     2    1    2 ar
     3    1   21 1
     4    2    3 ar
     5    2   22 1
     6    3    4 ar
     7    3   23 1
     8    4   10 ar
     9    4    5 ar
    10    5    6 ar
    11    5    7 ar
    12    6   24 1
    13    7    8 ar
    14    7   25 1
    15    8    9 ar
    16    8   26 1
    17    9   10 ar
    18    9   11 1
    19   11   16 1
    20   11   12 1
    21   12   13 1
    22   12   27 1
    23   12   28 1
    24   13   14 1
    25   13   29 1
    26   13   30 1
    27   14   15 1
    28   14   17 1
    29   14   37 1
    30   15   16 1
    31   15   31 1
    32   15   32 1
    33   16   33 1
    34   16   34 1
    35   17   18 1
    36   17   35 1
    37   17   36 1
    38   18   19 2
    39   18   20 1
