@<TRIPOS>MOLECULE
ZINC43199965
   45    48     0     0     0
SMALL
USER_CHARGES

@<TRIPOS>ATOM
      1 C1         -0.0167    1.3781    0.0096 C.ar      1 <0>        -0.0579
      2 C2          1.1709    2.0855    0.0021 C.ar      1 <0>        -0.1366
      3 C3          2.3773    1.4107   -0.0130 C.ar      1 <0>        -0.0235
      4 C4          2.3960    0.0285   -0.0201 C.ar      1 <0>        -0.6619
      5 C5          1.2084   -0.6789   -0.0117 C.ar      1 <0>        -0.0227
      6 C6          0.0021   -0.0041    0.0020 C.ar      1 <0>        -0.1372
      7 S1          3.9337   -0.8316   -0.0405 S.o2      1 <0>         2.5851
      8 O1          3.6744   -2.1140   -0.5951 O.2       1 <0>        -0.9250
      9 O2          4.8903    0.0598   -0.5970 O.2       1 <0>        -0.9266
     10 C7          4.4060   -1.0943    1.6365 C.ar      1 <0>        -0.7158
     11 C8          5.1618   -0.1615    2.2882 C.ar      1 <0>         0.0701
     12 C9          5.5161   -0.4114    3.6274 C.ar      1 <0>        -0.1250
     13 C10         6.2904    0.5031    4.3602 C.ar      1 <0>        -0.0624
     14 C11         6.6161    0.2332    5.6545 C.ar      1 <0>        -0.1214
     15 C12         6.1930   -0.9417    6.2697 C.ar      1 <0>        -0.0722
     16 C13         5.4326   -1.8634    5.5842 C.ar      1 <0>         0.1544
     17 C14         5.0781   -1.6107    4.2402 C.ar      1 <0>         0.1584
     18 N1          4.3407   -2.4817    3.5471 N.ar      1 <0>        -0.4737
     19 C15         4.0042   -2.2506    2.3010 C.ar      1 <0>         0.2150
     20 N2          5.0161   -3.0367    6.2119 N.pl3     1 <0>        -0.6624
     21 C16         5.8448   -4.2515    6.1712 C.3       1 <0>         0.1199
     22 C17         5.9996   -4.7821    7.6003 C.3       1 <0>        -0.0230
     23 N3          4.6716   -4.9740    8.1967 N.4       1 <0>        -0.5027
     24 C18         3.9903   -3.6798    8.3273 C.3       1 <0>        -0.0226
     25 C19         3.7385   -3.0931    6.9390 C.3       1 <0>         0.1199
     26 H1         -0.9591    1.9053    0.0259 H         1 <0>         0.1355
     27 H2          1.1563    3.1654    0.0076 H         1 <0>         0.1376
     28 H3          3.3051    1.9634   -0.0196 H         1 <0>         0.1429
     29 H4          1.2231   -1.7588   -0.0176 H         1 <0>         0.1434
     30 H5         -0.9258   -0.5567    0.0082 H         1 <0>         0.1372
     31 H6          5.4791    0.7425    1.7896 H         1 <0>         0.1643
     32 H7          6.6273    1.4190    3.8976 H         1 <0>         0.1441
     33 H8          7.2117    0.9410    6.2119 H         1 <0>         0.1409
     34 H9          6.4647   -1.1331    7.2973 H         1 <0>         0.1337
     35 H10         3.4031   -2.9776    1.7751 H         1 <0>         0.1780
     36 H11         5.3594   -5.0053    5.5512 H         1 <0>         0.0827
     37 H12         6.8259   -4.0121    5.7611 H         1 <0>         0.1129
     38 H13         6.5295   -5.7343    7.5791 H         1 <0>         0.1401
     39 H14         6.5649   -4.0646    8.1951 H         1 <0>         0.1313
     40 H15         4.1242   -5.5828    7.6069 H         1 <0>         0.4287
     41 H16         3.0396   -3.8199    8.8419 H         1 <0>         0.1401
     42 H17         4.6163   -2.9957    8.9001 H         1 <0>         0.1311
     43 H18         3.3278   -2.0881    7.0363 H         1 <0>         0.1123
     44 H19         3.0369   -3.7279    6.3979 H         1 <0>         0.0818
     45 H20         4.7713   -5.3938    9.1088 H         1 <0>         0.4312
@<TRIPOS>BOND
     1    1    6 ar
     2    1    2 ar
     3    1   26 1
     4    2    3 ar
     5    2   27 1
     6    3    4 ar
     7    3   28 1
     8    4    5 ar
     9    4    7 1
    10    5    6 ar
    11    5   29 1
    12    6   30 1
    13    7    8 2
    14    7    9 2
    15    7   10 1
    16   10   19 ar
    17   10   11 ar
    18   11   12 ar
    19   11   31 1
    20   12   17 ar
    21   12   13 ar
    22   13   14 ar
    23   13   32 1
    24   14   15 ar
    25   14   33 1
    26   15   16 ar
    27   15   34 1
    28   16   17 ar
    29   16   20 1
    30   17   18 ar
    31   18   19 ar
    32   19   35 1
    33   20   25 1
    34   20   21 1
    35   21   22 1
    36   21   36 1
    37   21   37 1
    38   22   23 1
    39   22   38 1
    40   22   39 1
    41   23   24 1
    42   23   40 1
    43   23   45 1
    44   24   25 1
    45   24   41 1
    46   24   42 1
    47   25   43 1
    48   25   44 1
@<TRIPOS>MOLECULE
ZINC01851149
   58    61     0     0     0
SMALL
USER_CHARGES

@<TRIPOS>ATOM
      1 C1         -0.0167    1.3781    0.0096 C.ar      1 <0>        -0.0896
      2 C2          1.1690    2.0873    0.0021 C.ar      1 <0>        -0.1006
      3 C3          2.3816    1.4109   -0.0131 C.ar      1 <0>         0.1668
      4 C4          2.3986    0.0211   -0.0208 C.ar      1 <0>        -0.0379
      5 C5          1.2084   -0.6828   -0.0132 C.ar      1 <0>        -0.0271
      6 C6          0.0021   -0.0041    0.0020 C.ar      1 <0>        -0.0892
      7 Cl1         1.2271   -2.4187   -0.0233 Cl        1 <0>        -0.0322
      8 Cl2         3.9117   -0.8297   -0.0404 Cl        1 <0>        -0.0503
      9 N1          3.5822    2.1260   -0.0212 N.pl3     1 <0>        -0.6733
     10 C7          4.2166    2.5248   -1.2872 C.3       1 <0>         0.1212
     11 C8          5.6874    2.0967   -1.2494 C.3       1 <0>        -0.0255
     12 N2          6.3270    2.6517   -0.0498 N.4       1 <0>        -0.3792
     13 C9          5.7166    2.0749    1.1547 C.3       1 <0>        -0.0318
     14 C10         4.2444    2.5067    1.2361 C.3       1 <0>         0.1223
     15 C11         7.7610    2.3338   -0.0701 C.3       1 <0>        -0.0093
     16 C12         8.4515    3.0158    1.1127 C.3       1 <0>        -0.1453
     17 C13         9.9450    2.6847    1.0915 C.3       1 <0>        -0.1184
     18 C14        10.6355    3.3667    2.2743 C.3       1 <0>         0.0595
     19 O1         12.0305    3.0574    2.2545 O.3       1 <0>        -0.3124
     20 C15        12.7944    3.5890    3.2448 C.ar      1 <0>         0.1559
     21 C16        12.2111    4.3876    4.2189 C.ar      1 <0>        -0.2294
     22 C17        12.9865    4.9295    5.2261 C.ar      1 <0>        -0.0411
     23 C18        14.3441    4.6777    5.2669 C.ar      1 <0>        -0.1551
     24 C19        14.9331    3.8788    4.2952 C.ar      1 <0>         0.2059
     25 C20        14.1552    3.3295    3.2858 C.ar      1 <0>        -0.1852
     26 N3         16.3074    3.6248    4.3397 N.am      1 <0>        -0.6651
     27 C21        17.0003    3.8176    5.4770 C.2       1 <0>         0.5216
     28 O2         18.1945    3.6066    5.4945 O.2       1 <0>        -0.5157
     29 C22        16.3105    4.2925    6.7275 C.3       1 <0>        -0.1402
     30 C23        15.1900    5.2680    6.3653 C.3       1 <0>        -0.0752
     31 H1         -0.9596    1.9044    0.0260 H         1 <0>         0.1477
     32 H2          1.1527    3.1672    0.0077 H         1 <0>         0.1420
     33 H3         -0.9265   -0.5556    0.0083 H         1 <0>         0.1502
     34 H4          3.7134    2.0333   -2.1198 H         1 <0>         0.1171
     35 H5          4.1529    3.6066   -1.4040 H         1 <0>         0.0851
     36 H6          5.7487    1.0088   -1.2236 H         1 <0>         0.1293
     37 H7          6.1971    2.4687   -2.1381 H         1 <0>         0.1401
     38 H8          5.7771    0.9876    1.1077 H         1 <0>         0.1300
     39 H9          6.2479    2.4307    2.0374 H         1 <0>         0.1398
     40 H10         4.1834    3.5868    1.3697 H         1 <0>         0.0853
     41 H11         3.7595    2.0032    2.0724 H         1 <0>         0.1165
     42 H12         7.8950    1.2546    0.0040 H         1 <0>         0.1305
     43 H13         8.1993    2.6912   -1.0020 H         1 <0>         0.1352
     44 H14         8.3175    4.0950    1.0386 H         1 <0>         0.0923
     45 H15         8.0132    2.6584    2.0445 H         1 <0>         0.0907
     46 H16        10.0790    1.6055    1.1656 H         1 <0>         0.0866
     47 H17        10.3833    3.0420    0.1597 H         1 <0>         0.0875
     48 H18        10.5015    4.4459    2.2002 H         1 <0>         0.0675
     49 H19        10.1972    3.0093    3.2062 H         1 <0>         0.0669
     50 H20        11.1499    4.5859    4.1893 H         1 <0>         0.1286
     51 H21        12.5305    5.5511    5.9824 H         1 <0>         0.1354
     52 H22        14.6099    2.7045    2.5314 H         1 <0>         0.1380
     53 H23        16.7645    3.3072    3.5453 H         1 <0>         0.4136
     54 H24        15.8894    3.4371    7.2558 H         1 <0>         0.1060
     55 H25        17.0331    4.7940    7.3713 H         1 <0>         0.1134
     56 H26        15.6229    6.2086    6.0246 H         1 <0>         0.0845
     57 H27        14.5699    5.4506    7.2429 H         1 <0>         0.0936
     58 H28         6.2073    3.6535   -0.0392 H         1 <0>         0.4226
@<TRIPOS>BOND
     1    1    6 ar
     2    1    2 ar
     3    1   31 1
     4    2    3 ar
     5    2   32 1
     6    3    4 ar
     7    3    9 1
     8    4    5 ar
     9    4    8 1
    10    5    6 ar
    11    5    7 1
    12    6   33 1
    13    9   14 1
    14    9   10 1
    15   10   11 1
    16   10   34 1
    17   10   35 1
    18   11   12 1
    19   11   36 1
    20   11   37 1
    21   12   13 1
    22   12   15 1
    23   12   58 1
    24   13   14 1
    25   13   38 1
    26   13   39 1
    27   14   40 1
    28   14   41 1
    29   15   16 1
    30   15   42 1
    31   15   43 1
    32   16   17 1
    33   16   44 1
    34   16   45 1
    35   17   18 1
    36   17   46 1
    37   17   47 1
    38   18   19 1
    39   18   48 1
    40   18   49 1
    41   19   20 1
    42   20   25 ar
    43   20   21 ar
    44   21   22 ar
    45   21   50 1
    46   22   23 ar
    47   22   51 1
    48   23   30 1
    49   23   24 ar
    50   24   25 ar
    51   24   26 1
    52   25   52 1
    53   26   27 am
    54   26   53 1
    55   27   28 2
    56   27   29 1
    57   29   30 1
    58   29   54 1
    59   29   55 1
    60   30   56 1
    61   30   57 1
@<TRIPOS>MOLECULE
ZINC01851149
   57    60     0     0     0
SMALL
USER_CHARGES

@<TRIPOS>ATOM
      1 C1         -0.0167    1.3781    0.0096 C.ar      1 <0>        -0.0962
      2 C2          1.1690    2.0873    0.0021 C.ar      1 <0>        -0.1094
      3 C3          2.3816    1.4109   -0.0131 C.ar      1 <0>         0.1932
      4 C4          2.3986    0.0211   -0.0208 C.ar      1 <0>        -0.0428
      5 C5          1.2084   -0.6828   -0.0132 C.ar      1 <0>        -0.0286
      6 C6          0.0021   -0.0041    0.0020 C.ar      1 <0>        -0.1045
      7 Cl1         1.2271   -2.4187   -0.0233 Cl        1 <0>        -0.0488
      8 Cl2         3.9117   -0.8297   -0.0404 Cl        1 <0>        -0.0433
      9 N1          3.5822    2.1260   -0.0212 N.pl3     1 <0>        -0.6753
     10 C7          4.2154    2.5239   -1.2877 C.3       1 <0>         0.1522
     11 C8          5.6814    2.0786   -1.2601 C.3       1 <0>         0.0390
     12 N2          6.3271    2.6054   -0.0504 N.3       1 <0>        -0.5335
     13 C9          5.7110    2.0562    1.1648 C.3       1 <0>         0.0352
     14 C10         4.2431    2.5059    1.2366 C.3       1 <0>         0.1520
     15 C11         7.7731    2.3471   -0.0705 C.3       1 <0>         0.0570
     16 C12         8.4448    3.1181    1.0676 C.3       1 <0>        -0.1122
     17 C13         9.9508    2.8491    1.0467 C.3       1 <0>        -0.1185
     18 C14        10.6225    3.6201    2.1847 C.3       1 <0>         0.0609
     19 O1         12.0291    3.3688    2.1652 O.3       1 <0>        -0.3131
     20 C15        12.7788    3.9828    3.1179 C.ar      1 <0>         0.1632
     21 C16        12.1712    4.8060    4.0560 C.ar      1 <0>        -0.2281
     22 C17        12.9321    5.4316    5.0250 C.ar      1 <0>        -0.0412
     23 C18        14.2995    5.2392    5.0634 C.ar      1 <0>        -0.1625
     24 C19        14.9129    4.4161    4.1277 C.ar      1 <0>         0.2001
     25 C20        14.1497    3.7829    3.1569 C.ar      1 <0>        -0.1880
     26 N3         16.2971    4.2225    4.1697 N.am      1 <0>        -0.6633
     27 C21        16.9915    4.5031    5.2876 C.2       1 <0>         0.5225
     28 O2         18.1937    4.3433    5.3024 O.2       1 <0>        -0.5237
     29 C22        16.2937    5.0132    6.5196 C.3       1 <0>        -0.1395
     30 C23        15.1296    5.9209    6.1201 C.3       1 <0>        -0.0723
     31 H1         -0.9596    1.9044    0.0260 H         1 <0>         0.1404
     32 H2          1.1527    3.1672    0.0077 H         1 <0>         0.1387
     33 H3         -0.9265   -0.5556    0.0083 H         1 <0>         0.1426
     34 H4          3.7022    2.0431   -2.1205 H         1 <0>         0.0715
     35 H5          4.1638    3.6071   -1.3984 H         1 <0>         0.0629
     36 H6          5.7306    0.9897   -1.2538 H         1 <0>         0.0403
     37 H7          6.1944    2.4613   -2.1423 H         1 <0>         0.0804
     38 H8          5.7599    0.9676    1.1373 H         1 <0>         0.0406
     39 H9          6.2457    2.4226    2.0412 H         1 <0>         0.0819
     40 H10         4.1941    3.5874    1.3639 H         1 <0>         0.0629
     41 H11         3.7483    2.0131    2.0736 H         1 <0>         0.0709
     42 H12         7.9533    1.2798    0.0578 H         1 <0>         0.0339
     43 H13         8.1873    2.6734   -1.0245 H         1 <0>         0.0769
     44 H14         8.2646    4.1855    0.9393 H         1 <0>         0.0762
     45 H15         8.0306    2.7918    2.0216 H         1 <0>         0.0660
     46 H16        10.1310    1.7817    1.1750 H         1 <0>         0.0732
     47 H17        10.3650    3.1754    0.0927 H         1 <0>         0.0761
     48 H18        10.4423    4.6874    2.0565 H         1 <0>         0.0659
     49 H19        10.2083    3.2938    3.1387 H         1 <0>         0.0641
     50 H20        11.1023    4.9580    4.0282 H         1 <0>         0.1320
     51 H21        12.4571    6.0722    5.7533 H         1 <0>         0.1337
     52 H22        14.6236    3.1389    2.4308 H         1 <0>         0.1367
     53 H23        16.7599    3.8832    3.3877 H         1 <0>         0.4126
     54 H24        15.9140    4.1697    7.0961 H         1 <0>         0.1050
     55 H25        17.0002    5.5774    7.1284 H         1 <0>         0.1106
     56 H26        15.5192    6.8597    5.7264 H         1 <0>         0.0818
     57 H27        14.5104    6.1229    6.9941 H         1 <0>         0.0917
@<TRIPOS>BOND
     1    1    6 ar
     2    1    2 ar
     3    1   31 1
     4    2    3 ar
     5    2   32 1
     6    3    4 ar
     7    3    9 1
     8    4    5 ar
     9    4    8 1
    10    5    6 ar
    11    5    7 1
    12    6   33 1
    13    9   14 1
    14    9   10 1
    15   10   11 1
    16   10   34 1
    17   10   35 1
    18   11   12 1
    19   11   36 1
    20   11   37 1
    21   12   13 1
    22   12   15 1
    23   13   14 1
    24   13   38 1
    25   13   39 1
    26   14   40 1
    27   14   41 1
    28   15   16 1
    29   15   42 1
    30   15   43 1
    31   16   17 1
    32   16   44 1
    33   16   45 1
    34   17   18 1
    35   17   46 1
    36   17   47 1
    37   18   19 1
    38   18   48 1
    39   18   49 1
    40   19   20 1
    41   20   25 ar
    42   20   21 ar
    43   21   22 ar
    44   21   50 1
    45   22   23 ar
    46   22   51 1
    47   23   30 1
    48   23   24 ar
    49   24   25 ar
    50   24   26 1
    51   25   52 1
    52   26   27 am
    53   26   53 1
    54   27   28 2
    55   27   29 1
    56   29   30 1
    57   29   54 1
    58   29   55 1
    59   30   56 1
    60   30   57 1
@<TRIPOS>MOLECULE
ZINC08589522
   47    51     0     0     0
SMALL
USER_CHARGES

@<TRIPOS>ATOM
      1 C1         -0.1443    1.3910   -0.2037 C.3       1 <0>         0.0731
      2 N1          0.1117   -0.0467   -0.0868 N.pl3     1 <0>        -0.5662
      3 C2          0.2553   -0.6600    1.2359 C.3       1 <0>         0.1513
      4 C3         -1.1086   -0.9711    1.7961 C.ar      1 <0>        -0.1125
      5 C4         -1.7380   -0.0634    2.6272 C.ar      1 <0>        -0.1057
      6 C5         -2.9891   -0.3488    3.1411 C.ar      1 <0>        -0.1236
      7 C6         -3.6111   -1.5418    2.8235 C.ar      1 <0>        -0.1104
      8 C7         -2.9821   -2.4491    1.9916 C.ar      1 <0>        -0.1256
      9 C8         -1.7328   -2.1618    1.4743 C.ar      1 <0>        -0.0951
     10 C9          0.2178   -0.8254   -1.2257 C.2       1 <0>         0.5298
     11 C10         0.2118   -0.2249   -2.4884 C.2       1 <0>        -0.2676
     12 C11         0.3175   -0.9787   -3.6618 C.2       1 <0>         0.2106
     13 C12         0.2988   -0.2536   -4.8544 C.2       1 <0>        -0.1728
     14 C13         0.1840    1.0934   -4.8302 C.2       1 <0>        -0.1083
     15 S1          0.0913    1.4428   -3.0818 S.3       1 <0>         0.1834
     16 N2          0.4283   -2.3601   -3.4780 N.pl3     1 <0>        -0.3368
     17 C14         0.4297   -2.9021   -2.2242 C.2       1 <0>         0.3883
     18 N3          0.3308   -2.1389   -1.1224 N.2       1 <0>        -0.5115
     19 C15         0.5527   -4.2709   -2.4025 C.2       1 <0>        -0.6108
     20 N4          0.6205   -4.5202   -3.7045 N.2       1 <0>        -0.1065
     21 N5          0.5512   -3.4244   -4.3773 N.2       1 <0>        -0.0778
     22 S2          0.6101   -5.4760   -1.1184 S.o2      1 <0>         2.6242
     23 O1          1.4115   -6.5457   -1.6008 O.2       1 <0>        -0.9229
     24 O2          0.9140   -4.7773    0.0811 O.2       1 <0>        -0.9117
     25 C16        -1.0213   -6.1144   -0.9298 C.ar      1 <0>        -0.6566
     26 C17        -1.9270   -5.4658   -0.1113 C.ar      1 <0>        -0.0234
     27 C18        -3.2069   -5.9666    0.0366 C.ar      1 <0>        -0.1420
     28 C19        -3.5813   -7.1158   -0.6342 C.ar      1 <0>        -0.0622
     29 C20        -2.6759   -7.7639   -1.4534 C.ar      1 <0>        -0.1392
     30 C21        -1.3973   -7.2607   -1.6047 C.ar      1 <0>        -0.0158
     31 H1          0.7978    1.9163   -0.3607 H         1 <0>         0.0757
     32 H2         -0.8077    1.5744   -1.0489 H         1 <0>         0.0747
     33 H3         -0.6135    1.7521    0.7115 H         1 <0>         0.0992
     34 H4          0.8311   -1.5813    1.1486 H         1 <0>         0.1172
     35 H5          0.7730    0.0302    1.9021 H         1 <0>         0.0957
     36 H6         -1.2521    0.8686    2.8754 H         1 <0>         0.1214
     37 H7         -3.4805    0.3601    3.7911 H         1 <0>         0.1230
     38 H8         -4.5883   -1.7651    3.2256 H         1 <0>         0.1222
     39 H9         -3.4679   -3.3813    1.7438 H         1 <0>         0.1215
     40 H10        -1.2430   -2.8691    0.8214 H         1 <0>         0.1338
     41 H11         0.3766   -0.7702   -5.7997 H         1 <0>         0.1614
     42 H12         0.1555    1.7843   -5.6599 H         1 <0>         0.2133
     43 H13        -1.6346   -4.5679    0.4128 H         1 <0>         0.1389
     44 H14        -3.9143   -5.4602    0.6766 H         1 <0>         0.1319
     45 H15        -4.5811   -7.5075   -0.5181 H         1 <0>         0.1319
     46 H16        -2.9683   -8.6620   -1.9773 H         1 <0>         0.1357
     47 H17        -0.6911   -7.7650   -2.2476 H         1 <0>         0.1466
@<TRIPOS>BOND
     1    1    2 1
     2    1   31 1
     3    1   32 1
     4    1   33 1
     5    2    3 1
     6    2   10 1
     7    3    4 1
     8    3   34 1
     9    3   35 1
    10    4    9 ar
    11    4    5 ar
    12    5    6 ar
    13    5   36 1
    14    6    7 ar
    15    6   37 1
    16    7    8 ar
    17    7   38 1
    18    8    9 ar
    19    8   39 1
    20    9   40 1
    21   10   18 2
    22   10   11 1
    23   11   15 1
    24   11   12 2
    25   12   13 1
    26   12   16 1
    27   13   14 2
    28   13   41 1
    29   14   15 1
    30   14   42 1
    31   16   21 1
    32   16   17 1
    33   17   18 1
    34   17   19 2
    35   19   20 1
    36   19   22 1
    37   20   21 2
    38   22   23 2
    39   22   24 2
    40   22   25 1
    41   25   30 ar
    42   25   26 ar
    43   26   27 ar
    44   26   43 1
    45   27   28 ar
    46   27   44 1
    47   28   29 ar
    48   28   45 1
    49   29   30 ar
    50   29   46 1
    51   30   47 1
@<TRIPOS>MOLECULE
ZINC04316125
   40    43     0     0     0
SMALL
USER_CHARGES

@<TRIPOS>ATOM
      1 C1         -0.0187    1.5258    0.0104 C.3       1 <0>        -0.1661
      2 C2          0.0021   -0.0041    0.0020 C.3       1 <0>         0.1358
      3 C3          0.7182   -0.4975   -1.2568 C.3       1 <0>        -0.1645
      4 N1          0.7106   -0.4894    1.1889 N.pl3     1 <0>        -0.6780
      5 C4          0.0336   -0.6373    2.3866 C.2       1 <0>         0.5321
      6 C5          0.7095   -1.0949    3.5219 C.2       1 <0>        -0.2705
      7 C6          0.0593   -1.2565    4.7496 C.2       1 <0>         0.2092
      8 C7          0.8516   -1.7200    5.8012 C.2       1 <0>        -0.1720
      9 C8          2.1625   -1.9838    5.6007 C.2       1 <0>        -0.0925
     10 S1          2.3771   -1.5881    3.8729 S.3       1 <0>         0.1724
     11 N2         -1.3000   -0.9300    4.7547 N.pl3     1 <0>        -0.3365
     12 C9         -1.9183   -0.4866    3.6203 C.2       1 <0>         0.3867
     13 N3         -1.2530   -0.3411    2.4617 N.2       1 <0>        -0.5089
     14 C10        -3.2391   -0.2588    3.9721 C.2       1 <0>        -0.6089
     15 N4         -3.3885   -0.5558    5.2572 N.2       1 <0>        -0.1058
     16 N5         -2.2724   -0.9557    5.7599 N.2       1 <0>        -0.0786
     17 S2         -4.5057    0.3266    2.8961 S.o2      1 <0>         2.6260
     18 O1         -5.4902    0.9349    3.7207 O.2       1 <0>        -0.9226
     19 O2         -3.8541    1.0266    1.8450 O.2       1 <0>        -0.9125
     20 C11        -5.2635   -1.0867    2.1661 C.ar      1 <0>        -0.6574
     21 C12        -4.7708   -1.6004    0.9811 C.ar      1 <0>        -0.0180
     22 C13        -5.3654   -2.7092    0.4083 C.ar      1 <0>        -0.1433
     23 C14        -6.4522   -3.3045    1.0209 C.ar      1 <0>        -0.0632
     24 C15        -6.9443   -2.7913    2.2064 C.ar      1 <0>        -0.1408
     25 C16        -6.3471   -1.6851    2.7813 C.ar      1 <0>        -0.0173
     26 H1          1.0039    1.9031    0.0027 H         1 <0>         0.0553
     27 H2         -0.5459    1.8868   -0.8726 H         1 <0>         0.0748
     28 H3         -0.5289    1.8773    0.9072 H         1 <0>         0.0688
     29 H4         -1.0205   -0.3814    0.0098 H         1 <0>         0.1042
     30 H5          1.7408   -0.1202   -1.2645 H         1 <0>         0.0631
     31 H6          0.7330   -1.5874   -1.2628 H         1 <0>         0.0635
     32 H7          0.1910   -0.1364   -2.1398 H         1 <0>         0.0822
     33 H8          1.6544   -0.7070    1.1351 H         1 <0>         0.4151
     34 H9          0.4162   -1.8682    6.7784 H         1 <0>         0.1641
     35 H10         2.8954   -2.3433    6.3078 H         1 <0>         0.2164
     36 H11        -3.9217   -1.1353    0.5025 H         1 <0>         0.1432
     37 H12        -4.9809   -3.1101   -0.5179 H         1 <0>         0.1330
     38 H13        -6.9171   -4.1704    0.5730 H         1 <0>         0.1314
     39 H14        -7.7936   -3.2563    2.6848 H         1 <0>         0.1351
     40 H15        -6.7292   -1.2864    3.7094 H         1 <0>         0.1452
@<TRIPOS>BOND
     1    1    2 1
     2    1   26 1
     3    1   27 1
     4    1   28 1
     5    2    3 1
     6    2    4 1
     7    2   29 1
     8    3   30 1
     9    3   31 1
    10    3   32 1
    11    4    5 1
    12    4   33 1
    13    5   13 2
    14    5    6 1
    15    6   10 1
    16    6    7 2
    17    7    8 1
    18    7   11 1
    19    8    9 2
    20    8   34 1
    21    9   10 1
    22    9   35 1
    23   11   16 1
    24   11   12 1
    25   12   13 1
    26   12   14 2
    27   14   15 1
    28   14   17 1
    29   15   16 2
    30   17   18 2
    31   17   19 2
    32   17   20 1
    33   20   25 ar
    34   20   21 ar
    35   21   22 ar
    36   21   36 1
    37   22   23 ar
    38   22   37 1
    39   23   24 ar
    40   23   38 1
    41   24   25 ar
    42   24   39 1
    43   25   40 1
@<TRIPOS>MOLECULE
ZINC20516285
   44    48     0     0     0
SMALL
USER_CHARGES

@<TRIPOS>ATOM
      1 C1         -0.0167    1.3781    0.0096 C.ar      1 <0>        -0.0632
      2 C2          1.1709    2.0855    0.0021 C.ar      1 <0>        -0.1433
      3 C3          2.3773    1.4107   -0.0130 C.ar      1 <0>        -0.0179
      4 C4          2.3960    0.0285   -0.0201 C.ar      1 <0>        -0.6575
      5 C5          1.2084   -0.6789   -0.0117 C.ar      1 <0>        -0.0173
      6 C6          0.0021   -0.0041    0.0020 C.ar      1 <0>        -0.1408
      7 S1          3.9337   -0.8316   -0.0405 S.o2      1 <0>         2.6261
      8 O1          3.6744   -2.1140   -0.5951 O.2       1 <0>        -0.9226
      9 O2          4.8903    0.0598   -0.5970 O.2       1 <0>        -0.9127
     10 C7          4.4060   -1.0943    1.6365 C.2       1 <0>        -0.6088
     11 C8          5.1674   -0.2314    2.4086 C.2       1 <0>         0.3868
     12 N1          5.7290    0.9607    2.1450 N.2       1 <0>        -0.5083
     13 C9          6.4218    1.5948    3.0758 C.2       1 <0>         0.5314
     14 C10         6.5716    1.0221    4.3426 C.2       1 <0>        -0.2703
     15 C11         6.0051   -0.2161    4.6618 C.2       1 <0>         0.2093
     16 N2          5.2869   -0.8294    3.6309 N.pl3     1 <0>        -0.3365
     17 N3          4.5903   -2.0401    3.5570 N.2       1 <0>        -0.0785
     18 N4          4.0880   -2.1496    2.3763 N.2       1 <0>        -0.1058
     19 C12         6.2315   -0.6714    5.9619 C.2       1 <0>        -0.1719
     20 C13         6.9593    0.0713    6.8261 C.2       1 <0>        -0.0925
     21 S2          7.3878    1.4993    5.8439 S.3       1 <0>         0.1718
     22 N5          6.9975    2.8218    2.7968 N.pl3     1 <0>        -0.6758
     23 C14         6.8398    3.4199    1.4688 C.3       1 <0>         0.1385
     24 C15         7.9597    2.9254    0.5301 C.3       1 <0>        -0.1378
     25 C16         8.3010    4.1617   -0.3383 C.3       1 <0>        -0.1244
     26 C17         8.1880    5.3305    0.6717 C.3       1 <0>        -0.1253
     27 C18         6.9850    4.9491    1.5588 C.3       1 <0>        -0.1330
     28 H1         -0.9591    1.9053    0.0259 H         1 <0>         0.1314
     29 H2          1.1563    3.1654    0.0076 H         1 <0>         0.1329
     30 H3          3.3051    1.9634   -0.0196 H         1 <0>         0.1431
     31 H4          1.2231   -1.7588   -0.0176 H         1 <0>         0.1452
     32 H5         -0.9258   -0.5567    0.0082 H         1 <0>         0.1350
     33 H6          5.8235   -1.6199    6.2786 H         1 <0>         0.1641
     34 H7          7.2167   -0.1450    7.8524 H         1 <0>         0.2164
     35 H8          7.5055    3.2859    3.4805 H         1 <0>         0.4149
     36 H9          5.8646    3.1610    1.0564 H         1 <0>         0.1081
     37 H10         8.8302    2.6122    1.1067 H         1 <0>         0.0681
     38 H11         7.6005    2.1077   -0.0947 H         1 <0>         0.0861
     39 H12         9.3144    4.0887   -0.7330 H         1 <0>         0.0710
     40 H13         7.5782    4.2778   -1.1459 H         1 <0>         0.0740
     41 H14         9.0953    5.4058    1.2711 H         1 <0>         0.0670
     42 H15         7.9954    6.2681    0.1502 H         1 <0>         0.0712
     43 H16         6.0805    5.4324    1.1893 H         1 <0>         0.0811
     44 H17         7.1728    5.2462    2.5906 H         1 <0>         0.0707
@<TRIPOS>BOND
     1    1    6 ar
     2    1    2 ar
     3    1   28 1
     4    2    3 ar
     5    2   29 1
     6    3    4 ar
     7    3   30 1
     8    4    5 ar
     9    4    7 1
    10    5    6 ar
    11    5   31 1
    12    6   32 1
    13    7    8 2
    14    7    9 2
    15    7   10 1
    16   10   18 1
    17   10   11 2
    18   11   16 1
    19   11   12 1
    20   12   13 2
    21   13   14 1
    22   13   22 1
    23   14   21 1
    24   14   15 2
    25   15   16 1
    26   15   19 1
    27   16   17 1
    28   17   18 2
    29   19   20 2
    30   19   33 1
    31   20   21 1
    32   20   34 1
    33   22   23 1
    34   22   35 1
    35   23   27 1
    36   23   24 1
    37   23   36 1
    38   24   25 1
    39   24   37 1
    40   24   38 1
    41   25   26 1
    42   25   39 1
    43   25   40 1
    44   26   27 1
    45   26   41 1
    46   26   42 1
    47   27   43 1
    48   27   44 1
@<TRIPOS>MOLECULE
ZINC04316464
   47    51     0     0     0
SMALL
USER_CHARGES

@<TRIPOS>ATOM
      1 C1         -0.0167    1.3781    0.0096 C.ar      1 <0>        -0.0632
      2 C2          1.1709    2.0855    0.0021 C.ar      1 <0>        -0.1433
      3 C3          2.3773    1.4107   -0.0130 C.ar      1 <0>        -0.0177
      4 C4          2.3960    0.0285   -0.0201 C.ar      1 <0>        -0.6575
      5 C5          1.2084   -0.6789   -0.0117 C.ar      1 <0>        -0.0174
      6 C6          0.0021   -0.0041    0.0020 C.ar      1 <0>        -0.1408
      7 S1          3.9337   -0.8316   -0.0405 S.o2      1 <0>         2.6256
      8 O1          3.6744   -2.1140   -0.5951 O.2       1 <0>        -0.9229
      9 O2          4.8903    0.0598   -0.5970 O.2       1 <0>        -0.9118
     10 C7          4.4060   -1.0943    1.6365 C.2       1 <0>        -0.6089
     11 C8          5.1674   -0.2314    2.4086 C.2       1 <0>         0.3868
     12 N1          5.7290    0.9607    2.1450 N.2       1 <0>        -0.5081
     13 C9          6.4218    1.5948    3.0758 C.2       1 <0>         0.5324
     14 C10         6.5716    1.0221    4.3426 C.2       1 <0>        -0.2703
     15 C11         6.0051   -0.2161    4.6618 C.2       1 <0>         0.2093
     16 N2          5.2869   -0.8294    3.6309 N.pl3     1 <0>        -0.3364
     17 N3          4.5903   -2.0401    3.5570 N.2       1 <0>        -0.0786
     18 N4          4.0880   -2.1496    2.3763 N.2       1 <0>        -0.1059
     19 C12         6.2315   -0.6714    5.9619 C.2       1 <0>        -0.1720
     20 C13         6.9593    0.0713    6.8261 C.2       1 <0>        -0.0926
     21 S2          7.3878    1.4993    5.8439 S.3       1 <0>         0.1723
     22 N5          6.9975    2.8218    2.7968 N.pl3     1 <0>        -0.6785
     23 C14         6.8398    3.4199    1.4688 C.3       1 <0>         0.1439
     24 C15         7.9138    2.8672    0.5297 C.3       1 <0>        -0.1291
     25 C16         7.7491    3.4918   -0.8572 C.3       1 <0>        -0.1173
     26 C17         7.8957    5.0112   -0.7530 C.3       1 <0>        -0.1239
     27 C18         6.8217    5.5639    0.1861 C.3       1 <0>        -0.1149
     28 C19         6.9864    4.9393    1.5731 C.3       1 <0>        -0.1283
     29 H1         -0.9591    1.9053    0.0259 H         1 <0>         0.1314
     30 H2          1.1563    3.1654    0.0076 H         1 <0>         0.1328
     31 H3          3.3051    1.9634   -0.0196 H         1 <0>         0.1430
     32 H4          1.2231   -1.7588   -0.0176 H         1 <0>         0.1451
     33 H5         -0.9258   -0.5567    0.0082 H         1 <0>         0.1350
     34 H6          5.8235   -1.6199    6.2786 H         1 <0>         0.1641
     35 H7          7.2167   -0.1450    7.8524 H         1 <0>         0.2164
     36 H8          7.5055    3.2859    3.4805 H         1 <0>         0.4150
     37 H9          5.8529    3.1762    1.0754 H         1 <0>         0.1045
     38 H10         8.9008    3.1108    0.9230 H         1 <0>         0.0616
     39 H11         7.8094    1.7847    0.4554 H         1 <0>         0.0755
     40 H12         8.5143    3.0980   -1.5263 H         1 <0>         0.0673
     41 H13         6.7622    3.2481   -1.2506 H         1 <0>         0.0729
     42 H14         8.8826    5.2549   -0.3596 H         1 <0>         0.0617
     43 H15         7.7783    5.4562   -1.7410 H         1 <0>         0.0660
     44 H16         6.9261    6.6463    0.2604 H         1 <0>         0.0689
     45 H17         5.8347    5.3202   -0.2072 H         1 <0>         0.0682
     46 H18         6.2212    5.3330    2.2421 H         1 <0>         0.0700
     47 H19         7.9733    5.1829    1.9664 H         1 <0>         0.0696
@<TRIPOS>BOND
     1    1    6 ar
     2    1    2 ar
     3    1   29 1
     4    2    3 ar
     5    2   30 1
     6    3    4 ar
     7    3   31 1
     8    4    5 ar
     9    4    7 1
    10    5    6 ar
    11    5   32 1
    12    6   33 1
    13    7    8 2
    14    7    9 2
    15    7   10 1
    16   10   18 1
    17   10   11 2
    18   11   16 1
    19   11   12 1
    20   12   13 2
    21   13   14 1
    22   13   22 1
    23   14   21 1
    24   14   15 2
    25   15   16 1
    26   15   19 1
    27   16   17 1
    28   17   18 2
    29   19   20 2
    30   19   34 1
    31   20   21 1
    32   20   35 1
    33   22   23 1
    34   22   36 1
    35   23   28 1
    36   23   24 1
    37   23   37 1
    38   24   25 1
    39   24   38 1
    40   24   39 1
    41   25   26 1
    42   25   40 1
    43   25   41 1
    44   26   27 1
    45   26   42 1
    46   26   43 1
    47   27   28 1
    48   27   44 1
    49   27   45 1
    50   28   46 1
    51   28   47 1
@<TRIPOS>MOLECULE
ZINC08589497
   46    49     0     0     0
SMALL
USER_CHARGES

@<TRIPOS>ATOM
      1 C1         -0.0187    1.5258    0.0104 C.3       1 <0>        -0.1565
      2 C2          0.0021   -0.0041    0.0020 C.3       1 <0>        -0.0913
      3 C3          0.7182   -0.4975   -1.2568 C.3       1 <0>        -0.1486
      4 C4          0.7421   -0.5109    1.2415 C.3       1 <0>        -0.1308
      5 C5         -0.0416   -0.1236    2.4973 C.3       1 <0>         0.1125
      6 N1          0.6670   -0.6089    3.6841 N.pl3     1 <0>        -0.6811
      7 C6          0.1456   -0.3761    4.9446 C.2       1 <0>         0.5309
      8 C7          0.8234   -0.8334    6.0788 C.2       1 <0>        -0.2706
      9 C8          0.3281   -0.6168    7.3687 C.2       1 <0>         0.2094
     10 C9          1.1039   -1.1256    8.4117 C.2       1 <0>        -0.1721
     11 C10         2.2562   -1.7810    8.1457 C.2       1 <0>        -0.0917
     12 S1          2.3302   -1.7260    6.3626 S.3       1 <0>         0.1736
     13 N2         -0.8804    0.0828    7.4363 N.pl3     1 <0>        -0.3361
     14 C11        -1.5068    0.5104    6.3003 C.2       1 <0>         0.3880
     15 N3         -0.9920    0.2844    5.0797 N.2       1 <0>        -0.5100
     16 C12        -2.6575    1.1573    6.7220 C.2       1 <0>        -0.6110
     17 N4         -2.7035    1.1108    8.0478 N.2       1 <0>        -0.1050
     18 N5         -1.6770    0.4873    8.5126 N.2       1 <0>        -0.0761
     19 S2         -3.8564    1.9138    5.6755 S.o2      1 <0>         2.6272
     20 O1         -4.5198    2.8948    6.4609 O.2       1 <0>        -0.9178
     21 O2         -3.1917    2.2325    4.4606 O.2       1 <0>        -0.9084
     22 C13        -5.0571    0.6847    5.2852 C.ar      1 <0>        -0.6473
     23 C14        -4.8866   -0.1195    4.1738 C.ar      1 <0>        -0.0102
     24 C15        -5.8280   -1.0841    3.8675 C.ar      1 <0>        -0.1148
     25 C16        -6.9408   -1.2446    4.6733 C.ar      1 <0>        -0.0387
     26 C17        -7.1109   -0.4397    5.7853 C.ar      1 <0>        -0.1126
     27 C18        -6.1664    0.5211    6.0937 C.ar      1 <0>        -0.0091
     28 Br1        -8.2294   -2.5637    4.2545 Br        1 <0>        -0.0340
     29 H1          1.0039    1.9031    0.0027 H         1 <0>         0.0549
     30 H2         -0.5459    1.8868   -0.8726 H         1 <0>         0.0581
     31 H3         -0.5289    1.8773    0.9072 H         1 <0>         0.0631
     32 H4         -1.0205   -0.3814    0.0098 H         1 <0>         0.0758
     33 H5          1.7408   -0.1202   -1.2645 H         1 <0>         0.0552
     34 H6          0.7330   -1.5874   -1.2628 H         1 <0>         0.0546
     35 H7          0.1910   -0.1364   -2.1398 H         1 <0>         0.0586
     36 H8          0.8346   -1.5958    1.1912 H         1 <0>         0.0713
     37 H9          1.7350   -0.0630    1.2804 H         1 <0>         0.0723
     38 H10        -0.1341    0.9613    2.5476 H         1 <0>         0.0894
     39 H11        -1.0345   -0.5716    2.4584 H         1 <0>         0.0811
     40 H12         1.5016   -1.0935    3.5864 H         1 <0>         0.4167
     41 H13         0.7828   -0.9951    9.4346 H         1 <0>         0.1645
     42 H14         2.9559   -2.2259    8.8377 H         1 <0>         0.2167
     43 H15        -4.0179    0.0062    3.5446 H         1 <0>         0.1536
     44 H16        -5.6949   -1.7121    2.9990 H         1 <0>         0.1442
     45 H17        -7.9796   -0.5647    6.4147 H         1 <0>         0.1463
     46 H18        -6.2971    1.1469    6.9642 H         1 <0>         0.1558
@<TRIPOS>BOND
     1    1    2 1
     2    1   29 1
     3    1   30 1
     4    1   31 1
     5    2    3 1
     6    2    4 1
     7    2   32 1
     8    3   33 1
     9    3   34 1
    10    3   35 1
    11    4    5 1
    12    4   36 1
    13    4   37 1
    14    5    6 1
    15    5   38 1
    16    5   39 1
    17    6    7 1
    18    6   40 1
    19    7   15 2
    20    7    8 1
    21    8   12 1
    22    8    9 2
    23    9   10 1
    24    9   13 1
    25   10   11 2
    26   10   41 1
    27   11   12 1
    28   11   42 1
    29   13   18 1
    30   13   14 1
    31   14   15 1
    32   14   16 2
    33   16   17 1
    34   16   19 1
    35   17   18 2
    36   19   20 2
    37   19   21 2
    38   19   22 1
    39   22   27 ar
    40   22   23 ar
    41   23   24 ar
    42   23   43 1
    43   24   25 ar
    44   24   44 1
    45   25   26 ar
    46   25   28 1
    47   26   27 ar
    48   26   45 1
    49   27   46 1
@<TRIPOS>MOLECULE
ZINC04316122
   41    45     0     0     0
SMALL
USER_CHARGES
N-(2-furylmethyl)-phenylsulfonyl-BLAHamine
@<TRIPOS>ATOM
      1 C1         -1.2190    1.7506    0.0173 C.ar      1 <0>        -0.0630
      2 C2         -0.0126    1.0758    0.0080 C.ar      1 <0>        -0.1431
      3 C3          1.1750    1.7832    0.0004 C.ar      1 <0>        -0.0181
      4 C4          1.1563    3.1654    0.0076 C.ar      1 <0>        -0.6576
      5 C5         -0.0501    3.8402    0.0228 C.ar      1 <0>        -0.0172
      6 C6         -1.2377    3.1328    0.0299 C.ar      1 <0>        -0.1409
      7 S1          2.6701    4.0671   -0.0020 S.o2      1 <0>         2.6261
      8 O1          2.3869    5.3420    0.5580 O.2       1 <0>        -0.9217
      9 O2          3.6614    3.2022    0.5352 O.2       1 <0>        -0.9131
     10 C7          3.1019    4.3422   -1.6880 C.2       1 <0>        -0.6063
     11 C8          3.8802    3.5056   -2.4720 C.2       1 <0>         0.3862
     12 N1          4.4787    2.3290   -2.2201 N.2       1 <0>        -0.5098
     13 C9          5.1741    1.7162   -3.1631 C.2       1 <0>         0.5335
     14 C10         5.2820    2.2917   -4.4329 C.2       1 <0>        -0.2703
     15 C11         4.6704    3.5108   -4.7424 C.2       1 <0>         0.2108
     16 N2          3.9526    4.1024   -3.6986 N.pl3     1 <0>        -0.3351
     17 N3          3.2197    5.2906   -3.6124 N.2       1 <0>        -0.0766
     18 N4          2.7415    5.3888   -2.4206 N.2       1 <0>        -0.1054
     19 C12         4.8583    3.9717   -6.0465 C.2       1 <0>        -0.1722
     20 C13         5.5936    3.2518   -6.9235 C.2       1 <0>        -0.0913
     21 S2          6.0849    1.8389   -5.9487 S.3       1 <0>         0.1754
     22 N5          5.7930    0.5081   -2.8943 N.pl3     1 <0>        -0.6818
     23 C14         5.6787   -0.0933   -1.5633 C.3       1 <0>         0.2042
     24 C15         6.4373   -1.3951   -1.5334 C.2       1 <0>        -0.0525
     25 C16         7.7322   -1.5436   -1.2007 C.2       1 <0>        -0.1713
     26 C17         8.0271   -2.9222   -1.3077 C.2       1 <0>        -0.2185
     27 C18         6.8948   -3.5337   -1.6994 C.2       1 <0>        -0.0206
     28 O3          5.9337   -2.6046   -1.8289 O.3       1 <0>        -0.1708
     29 H1         -2.1469    1.1980    0.0188 H         1 <0>         0.1314
     30 H2          0.0021   -0.0041    0.0020 H         1 <0>         0.1331
     31 H3          2.1175    1.2560   -0.0115 H         1 <0>         0.1436
     32 H4         -0.0647    4.9201    0.0288 H         1 <0>         0.1454
     33 H5         -2.1802    3.6600    0.0414 H         1 <0>         0.1350
     34 H6          4.4151    4.9067   -6.3560 H         1 <0>         0.1648
     35 H7          5.8255    3.4751   -7.9544 H         1 <0>         0.2169
     36 H8          6.3025    0.0594   -3.5871 H         1 <0>         0.4198
     37 H9          6.0950    0.5869   -0.8203 H         1 <0>         0.1175
     38 H10         4.6287   -0.2794   -1.3376 H         1 <0>         0.0988
     39 H11         8.4155   -0.7600   -0.9085 H         1 <0>         0.1536
     40 H12         8.9789   -3.3937   -1.1127 H         1 <0>         0.1533
     41 H13         6.7772   -4.5928   -1.8748 H         1 <0>         0.2074
@<TRIPOS>BOND
     1    1    6 ar
     2    1    2 ar
     3    1   29 1
     4    2    3 ar
     5    2   30 1
     6    3    4 ar
     7    3   31 1
     8    4    5 ar
     9    4    7 1
    10    5    6 ar
    11    5   32 1
    12    6   33 1
    13    7    8 2
    14    7    9 2
    15    7   10 1
    16   10   18 1
    17   10   11 2
    18   11   16 1
    19   11   12 1
    20   12   13 2
    21   13   14 1
    22   13   22 1
    23   14   21 1
    24   14   15 2
    25   15   16 1
    26   15   19 1
    27   16   17 1
    28   17   18 2
    29   19   20 2
    30   19   34 1
    31   20   21 1
    32   20   35 1
    33   22   23 1
    34   22   36 1
    35   23   24 1
    36   23   37 1
    37   23   38 1
    38   24   28 1
    39   24   25 2
    40   25   26 1
    41   25   39 1
    42   26   27 2
    43   26   40 1
    44   27   28 1
    45   27   41 1
@<TRIPOS>MOLECULE
ZINC08589517
   41    45     0     0     0
SMALL
USER_CHARGES

@<TRIPOS>ATOM
      1 C1         -0.0167    1.3781    0.0096 C.ar      1 <0>        -0.0630
      2 C2          1.1709    2.0855    0.0021 C.ar      1 <0>        -0.1431
      3 C3          2.3773    1.4107   -0.0130 C.ar      1 <0>        -0.0181
      4 C4          2.3960    0.0285   -0.0201 C.ar      1 <0>        -0.6576
      5 C5          1.2084   -0.6789   -0.0117 C.ar      1 <0>        -0.0172
      6 C6          0.0021   -0.0041    0.0020 C.ar      1 <0>        -0.1409
      7 S1          3.9337   -0.8316   -0.0405 S.o2      1 <0>         2.6258
      8 O1          3.6744   -2.1140   -0.5951 O.2       1 <0>        -0.9218
      9 O2          4.8903    0.0598   -0.5970 O.2       1 <0>        -0.9130
     10 C7          4.4060   -1.0943    1.6365 C.2       1 <0>        -0.6068
     11 C8          5.1674   -0.2314    2.4086 C.2       1 <0>         0.3865
     12 N1          5.7290    0.9607    2.1450 N.2       1 <0>        -0.5098
     13 C9          6.4218    1.5948    3.0758 C.2       1 <0>         0.5328
     14 C10         6.5716    1.0221    4.3426 C.2       1 <0>        -0.2700
     15 C11         6.0051   -0.2161    4.6618 C.2       1 <0>         0.2106
     16 N2          5.2869   -0.8294    3.6309 N.pl3     1 <0>        -0.3354
     17 N3          4.5903   -2.0401    3.5570 N.2       1 <0>        -0.0768
     18 N4          4.0880   -2.1496    2.3763 N.2       1 <0>        -0.1055
     19 C12         6.2315   -0.6714    5.9619 C.2       1 <0>        -0.1721
     20 C13         6.9593    0.0713    6.8261 C.2       1 <0>        -0.0917
     21 S2          7.3878    1.4993    5.8439 S.3       1 <0>         0.1749
     22 N5          6.9975    2.8218    2.7968 N.pl3     1 <0>        -0.6805
     23 C14         6.8398    3.4199    1.4688 C.3       1 <0>         0.2076
     24 C15         7.5566    4.7448    1.4262 C.2       1 <0>        -0.1881
     25 C16         8.8383    5.0110    1.0742 C.2       1 <0>        -0.1207
     26 C17         9.2855    6.3184    1.1099 C.2       1 <0>        -0.1656
     27 C18         8.4292    7.2957    1.4959 C.2       1 <0>        -0.1561
     28 S3          6.9359    6.3720    1.8187 S.3       1 <0>         0.0553
     29 H1         -0.9591    1.9053    0.0259 H         1 <0>         0.1314
     30 H2          1.1563    3.1654    0.0076 H         1 <0>         0.1332
     31 H3          3.3051    1.9634   -0.0196 H         1 <0>         0.1436
     32 H4          1.2231   -1.7588   -0.0176 H         1 <0>         0.1453
     33 H5         -0.9258   -0.5567    0.0082 H         1 <0>         0.1350
     34 H6          5.8235   -1.6199    6.2786 H         1 <0>         0.1646
     35 H7          7.2167   -0.1450    7.8524 H         1 <0>         0.2168
     36 H8          7.5055    3.2859    3.4805 H         1 <0>         0.4191
     37 H9          7.2633    2.7533    0.7175 H         1 <0>         0.1093
     38 H10         5.7805    3.5731    1.2628 H         1 <0>         0.0966
     39 H11         9.5002    4.2134    0.7707 H         1 <0>         0.1379
     40 H12        10.3020    6.5577    0.8348 H         1 <0>         0.1384
     41 H13         8.6038    8.3580    1.5819 H         1 <0>         0.1892
@<TRIPOS>BOND
     1    1    6 ar
     2    1    2 ar
     3    1   29 1
     4    2    3 ar
     5    2   30 1
     6    3    4 ar
     7    3   31 1
     8    4    5 ar
     9    4    7 1
    10    5    6 ar
    11    5   32 1
    12    6   33 1
    13    7    8 2
    14    7    9 2
    15    7   10 1
    16   10   18 1
    17   10   11 2
    18   11   16 1
    19   11   12 1
    20   12   13 2
    21   13   14 1
    22   13   22 1
    23   14   21 1
    24   14   15 2
    25   15   16 1
    26   15   19 1
    27   16   17 1
    28   17   18 2
    29   19   20 2
    30   19   34 1
    31   20   21 1
    32   20   35 1
    33   22   23 1
    34   22   36 1
    35   23   24 1
    36   23   37 1
    37   23   38 1
    38   24   28 1
    39   24   25 2
    40   25   26 1
    41   25   39 1
    42   26   27 2
    43   26   40 1
    44   27   28 1
    45   27   41 1
@<TRIPOS>MOLECULE
ZINC08589452
   46    49     0     0     0
SMALL
USER_CHARGES

@<TRIPOS>ATOM
      1 C1         -0.0184    1.5028    0.0103 C.3       1 <0>        -0.1148
      2 C2          0.0021   -0.0041    0.0020 C.ar      1 <0>        -0.1155
      3 C3          0.0057   -0.6888   -1.1991 C.ar      1 <0>        -0.0600
      4 C4          0.0245   -2.0707   -1.2067 C.ar      1 <0>        -0.1404
      5 C5          0.0400   -2.7685   -0.0132 C.ar      1 <0>         0.0176
      6 C6          0.0373   -2.0840    1.1875 C.ar      1 <0>        -0.6569
      7 C7          0.0229   -0.7015    1.1951 C.ar      1 <0>        -0.0150
      8 S1          0.0566   -2.9732    2.7086 S.o2      1 <0>         2.6269
      9 O1          1.0941   -3.9382    2.6018 O.2       1 <0>        -0.9202
     10 O2          0.0222   -2.0032    3.7465 O.2       1 <0>        -0.9168
     11 C8         -1.4570   -3.8699    2.8070 C.2       1 <0>        -0.6113
     12 C9         -2.6384   -3.4069    3.3641 C.2       1 <0>         0.3893
     13 N1         -2.9672   -2.2413    3.9468 N.2       1 <0>        -0.5074
     14 C10        -4.1913   -2.0447    4.4066 C.2       1 <0>         0.5320
     15 C11        -5.1502   -3.0552    4.2863 C.2       1 <0>        -0.2702
     16 C12        -4.8532   -4.2837    3.6875 C.2       1 <0>         0.2090
     17 N2         -3.5413   -4.4223    3.2245 N.pl3     1 <0>        -0.3361
     18 N3         -2.8726   -5.4709    2.5844 N.2       1 <0>        -0.0769
     19 N4         -1.6604   -5.1013    2.3551 N.2       1 <0>        -0.1071
     20 C13        -5.9024   -5.2028    3.6323 C.2       1 <0>        -0.1719
     21 C14        -7.1146   -4.8832    4.1388 C.2       1 <0>        -0.0927
     22 S2         -6.8559   -3.2237    4.7445 S.3       1 <0>         0.1727
     23 N5         -4.5223   -0.8421    5.0057 N.pl3     1 <0>        -0.6777
     24 C15        -3.5160    0.2152    5.1312 C.3       1 <0>         0.1354
     25 C16        -4.2129    1.5743    5.2222 C.3       1 <0>        -0.1642
     26 C17        -2.6862   -0.0180    6.3953 C.3       1 <0>        -0.1660
     27 C18         0.0595   -4.2753   -0.0215 C.3       1 <0>        -0.1586
     28 H1          1.0042    1.8801    0.0026 H         1 <0>         0.0742
     29 H2         -0.5455    1.8639   -0.8728 H         1 <0>         0.0682
     30 H3         -0.5286    1.8543    0.9071 H         1 <0>         0.0700
     31 H4         -0.0064   -0.1437   -2.1314 H         1 <0>         0.1306
     32 H5          0.0266   -2.6056   -2.1449 H         1 <0>         0.1333
     33 H6          0.0246   -0.1666    2.1333 H         1 <0>         0.1461
     34 H7         -5.7455   -6.1724    3.1833 H         1 <0>         0.1642
     35 H8         -8.0133   -5.4813    4.1693 H         1 <0>         0.2165
     36 H9         -5.4206   -0.6992    5.3426 H         1 <0>         0.4150
     37 H10        -2.8621    0.1998    4.2593 H         1 <0>         0.1048
     38 H11        -4.8668    1.5897    6.0941 H         1 <0>         0.0630
     39 H12        -3.4642    2.3609    5.3155 H         1 <0>         0.0821
     40 H13        -4.8041    1.7404    4.3216 H         1 <0>         0.0634
     41 H14        -3.3401   -0.0026    7.2672 H         1 <0>         0.0554
     42 H15        -2.1897   -0.9863    6.3305 H         1 <0>         0.0687
     43 H16        -1.9375    0.7686    6.4887 H         1 <0>         0.0748
     44 H17         1.0917   -4.6253   -0.0291 H         1 <0>         0.1001
     45 H18        -0.4447   -4.6501    0.8693 H         1 <0>         0.0863
     46 H19        -0.4546   -4.6404   -0.9106 H         1 <0>         0.0801
@<TRIPOS>BOND
     1    1    2 1
     2    1   28 1
     3    1   29 1
     4    1   30 1
     5    2    7 ar
     6    2    3 ar
     7    3    4 ar
     8    3   31 1
     9    4    5 ar
    10    4   32 1
    11    5    6 ar
    12    5   27 1
    13    6    7 ar
    14    6    8 1
    15    7   33 1
    16    8    9 2
    17    8   10 2
    18    8   11 1
    19   11   19 1
    20   11   12 2
    21   12   17 1
    22   12   13 1
    23   13   14 2
    24   14   15 1
    25   14   23 1
    26   15   22 1
    27   15   16 2
    28   16   17 1
    29   16   20 1
    30   17   18 1
    31   18   19 2
    32   20   21 2
    33   20   34 1
    34   21   22 1
    35   21   35 1
    36   23   24 1
    37   23   36 1
    38   24   25 1
    39   24   26 1
    40   24   37 1
    41   25   38 1
    42   25   39 1
    43   25   40 1
    44   26   41 1
    45   26   42 1
    46   26   43 1
    47   27   44 1
    48   27   45 1
    49   27   46 1
@<TRIPOS>MOLECULE
ZINC04316466
   41    45     0     0     0
SMALL
USER_CHARGES

@<TRIPOS>ATOM
      1 C1         -0.0167    1.3781    0.0096 C.ar      1 <0>        -0.0634
      2 C2          1.1709    2.0855    0.0021 C.ar      1 <0>        -0.1435
      3 C3          2.3773    1.4107   -0.0130 C.ar      1 <0>        -0.0179
      4 C4          2.3960    0.0285   -0.0201 C.ar      1 <0>        -0.6571
      5 C5          1.2084   -0.6789   -0.0117 C.ar      1 <0>        -0.0172
      6 C6          0.0021   -0.0041    0.0020 C.ar      1 <0>        -0.1410
      7 S1          3.9337   -0.8316   -0.0405 S.o2      1 <0>         2.6265
      8 O1          3.6744   -2.1140   -0.5951 O.2       1 <0>        -0.9226
      9 O2          4.8903    0.0598   -0.5970 O.2       1 <0>        -0.9137
     10 C7          4.4060   -1.0943    1.6365 C.2       1 <0>        -0.6103
     11 C8          5.1674   -0.2314    2.4086 C.2       1 <0>         0.3899
     12 N1          5.7290    0.9607    2.1450 N.2       1 <0>        -0.5144
     13 C9          6.4218    1.5948    3.0758 C.2       1 <0>         0.5467
     14 C10         6.5716    1.0221    4.3426 C.2       1 <0>        -0.2661
     15 C11         6.0051   -0.2161    4.6618 C.2       1 <0>         0.2095
     16 N2          5.2869   -0.8294    3.6309 N.pl3     1 <0>        -0.3386
     17 N3          4.5903   -2.0401    3.5570 N.2       1 <0>        -0.0787
     18 N4          4.0880   -2.1496    2.3763 N.2       1 <0>        -0.1056
     19 C12         6.2315   -0.6714    5.9619 C.2       1 <0>        -0.1717
     20 C13         6.9593    0.0713    6.8261 C.2       1 <0>        -0.1014
     21 S2          7.3878    1.4993    5.8439 S.3       1 <0>         0.1756
     22 N5          6.9975    2.8218    2.7968 N.pl3     1 <0>        -0.5778
     23 C14         7.7949    3.6270    3.7335 C.3       1 <0>         0.0956
     24 C15         8.2028    4.9190    2.9947 C.3       1 <0>        -0.1285
     25 C16         7.1386    5.0274    1.8708 C.3       1 <0>        -0.1353
     26 C17         6.9183    3.5351    1.5090 C.3       1 <0>         0.1048
     27 H1         -0.9591    1.9053    0.0259 H         1 <0>         0.1314
     28 H2          1.1563    3.1654    0.0076 H         1 <0>         0.1328
     29 H3          3.3051    1.9634   -0.0196 H         1 <0>         0.1431
     30 H4          1.2231   -1.7588   -0.0176 H         1 <0>         0.1454
     31 H5         -0.9258   -0.5567    0.0082 H         1 <0>         0.1350
     32 H6          5.8235   -1.6199    6.2786 H         1 <0>         0.1630
     33 H7          7.2167   -0.1450    7.8524 H         1 <0>         0.2149
     34 H8          7.1976    3.8745    4.6110 H         1 <0>         0.0791
     35 H9          8.6854    3.0741    4.0326 H         1 <0>         0.0798
     36 H10         8.1475    5.7789    3.6624 H         1 <0>         0.0923
     37 H11         9.2025    4.8219    2.5712 H         1 <0>         0.0855
     38 H12         6.2210    5.4820    2.2442 H         1 <0>         0.0810
     39 H13         7.5277    5.5814    1.0165 H         1 <0>         0.0948
     40 H14         7.6998    3.1867    0.8337 H         1 <0>         0.0834
     41 H15         5.9359    3.3956    1.0579 H         1 <0>         0.0946
@<TRIPOS>BOND
     1    1    6 ar
     2    1    2 ar
     3    1   27 1
     4    2    3 ar
     5    2   28 1
     6    3    4 ar
     7    3   29 1
     8    4    5 ar
     9    4    7 1
    10    5    6 ar
    11    5   30 1
    12    6   31 1
    13    7    8 2
    14    7    9 2
    15    7   10 1
    16   10   18 1
    17   10   11 2
    18   11   16 1
    19   11   12 1
    20   12   13 2
    21   13   14 1
    22   13   22 1
    23   14   21 1
    24   14   15 2
    25   15   16 1
    26   15   19 1
    27   16   17 1
    28   17   18 2
    29   19   20 2
    30   19   32 1
    31   20   21 1
    32   20   33 1
    33   22   26 1
    34   22   23 1
    35   23   24 1
    36   23   34 1
    37   23   35 1
    38   24   25 1
    39   24   36 1
    40   24   37 1
    41   25   26 1
    42   25   38 1
    43   25   39 1
    44   26   40 1
    45   26   41 1
@<TRIPOS>MOLECULE
ZINC04316012
   43    46     0     0     0
SMALL
USER_CHARGES
phenylsulfonyl-N-sec-butyl-BLAHamine
@<TRIPOS>ATOM
      1 C1          2.4607    7.4383   -2.0687 C.3       1 <0>        -0.1568
      2 C2          2.8407    7.6180   -0.5976 C.3       1 <0>        -0.1330
      3 C3          3.2142    6.2608    0.0021 C.3       1 <0>         0.1354
      4 H1          4.0011    5.8029   -0.5973 H         1 <0>         0.1111
      5 C4          3.7131    6.4564    1.4352 C.3       1 <0>        -0.1660
      6 N1          2.0365    5.3895    0.0096 N.pl3     1 <0>        -0.6753
      7 C5          2.1929    4.0146    0.0017 C.2       1 <0>         0.5324
      8 C6          1.0701    3.1814    0.0084 C.2       1 <0>        -0.2701
      9 C7          1.1881    1.7878    0.0003 C.2       1 <0>         0.2091
     10 C8         -0.0126    1.0758    0.0080 C.2       1 <0>        -0.1719
     11 C9         -1.1939    1.7335    0.0171 C.2       1 <0>        -0.0927
     12 S1         -0.6843    3.4446    0.0268 S.3       1 <0>         0.1717
     13 N2          2.4976    1.2981   -0.0148 N.pl3     1 <0>        -0.3364
     14 C10         3.5643    2.1512   -0.0209 C.2       1 <0>         0.3869
     15 N3          3.4047    3.4855   -0.0127 N.2       1 <0>        -0.5085
     16 C11         4.6932    1.3476   -0.0359 C.2       1 <0>        -0.6090
     17 N4          4.3049    0.0783   -0.0385 N.2       1 <0>        -0.1059
     18 N5          3.0194    0.0004   -0.0264 N.2       1 <0>        -0.0788
     19 S2          6.3615    1.9146   -0.0484 S.o2      1 <0>         2.6261
     20 O1          7.1415    0.8692   -0.6123 O.2       1 <0>        -0.9227
     21 O2          6.3401    3.2274   -0.5918 O.2       1 <0>        -0.9131
     22 C12         6.8704    2.0730    1.6311 C.ar      1 <0>        -0.6575
     23 C13         6.6900    3.2703    2.2980 C.ar      1 <0>        -0.0180
     24 C14         7.0849    3.3930    3.6170 C.ar      1 <0>        -0.1432
     25 C15         7.6698    2.3217    4.2660 C.ar      1 <0>        -0.0632
     26 C16         7.8549    1.1260    3.5975 C.ar      1 <0>        -0.1409
     27 C17         7.4553    1.0016    2.2800 C.ar      1 <0>        -0.0172
     28 H2          3.3069    7.0205   -2.6142 H         1 <0>         0.0607
     29 H3          1.6098    6.7612   -2.1441 H         1 <0>         0.0515
     30 H4          2.1946    8.4051   -2.4959 H         1 <0>         0.0600
     31 H5          1.9945    8.0357   -0.0522 H         1 <0>         0.0689
     32 H6          3.6915    8.2951   -0.5222 H         1 <0>         0.0878
     33 H7          2.9262    6.9143    2.0345 H         1 <0>         0.0571
     34 H8          3.9792    5.4896    1.8624 H         1 <0>         0.0635
     35 H9          4.5893    7.1047    1.4295 H         1 <0>         0.0753
     36 H10         1.1470    5.7764    0.0202 H         1 <0>         0.4147
     37 H11         0.0021   -0.0041    0.0020 H         1 <0>         0.1640
     38 H12        -2.1941    1.3262    0.0195 H         1 <0>         0.2163
     39 H13         6.2372    4.1087    1.7896 H         1 <0>         0.1435
     40 H14         6.9406    4.3273    4.1392 H         1 <0>         0.1328
     41 H15         7.9824    2.4190    5.2952 H         1 <0>         0.1313
     42 H16         8.3122    0.2891    4.1044 H         1 <0>         0.1350
     43 H17         7.6002    0.0676    1.7576 H         1 <0>         0.1452
@<TRIPOS>BOND
     1    1    2 1
     2    1   28 1
     3    1   29 1
     4    1   30 1
     5    2    3 1
     6    2   31 1
     7    2   32 1
     8    3    4 1
     9    3    5 1
    10    3    6 1
    11    5   33 1
    12    5   34 1
    13    5   35 1
    14    6    7 1
    15    6   36 1
    16    7   15 2
    17    7    8 1
    18    8   12 1
    19    8    9 2
    20    9   10 1
    21    9   13 1
    22   10   11 2
    23   10   37 1
    24   11   12 1
    25   11   38 1
    26   13   18 1
    27   13   14 1
    28   14   15 1
    29   14   16 2
    30   16   17 1
    31   16   19 1
    32   17   18 2
    33   19   20 2
    34   19   21 2
    35   19   22 1
    36   22   27 ar
    37   22   23 ar
    38   23   24 ar
    39   23   39 1
    40   24   25 ar
    41   24   40 1
    42   25   26 ar
    43   25   41 1
    44   26   27 ar
    45   26   42 1
    46   27   43 1
@<TRIPOS>MOLECULE
ZINC04316015
   43    46     0     0     0
SMALL
USER_CHARGES
phenylsulfonyl-N-sec-butyl-BLAHamine
@<TRIPOS>ATOM
      1 C1         -6.4721    4.2286   -1.4338 C.3       1 <0>        -0.1568
      2 C2         -6.5244    2.6996   -1.4214 C.3       1 <0>        -0.1330
      3 C3         -5.3352    2.1550   -0.6275 C.3       1 <0>         0.1354
      4 H1         -4.4090    2.5549   -1.0404 H         1 <0>         0.1111
      5 C4         -5.3170    0.6279   -0.7194 C.3       1 <0>        -0.1660
      6 N1         -5.4588    2.5585    0.7754 N.pl3     1 <0>        -0.6753
      7 C5         -4.3295    2.6566    1.5691 C.2       1 <0>         0.5325
      8 C6         -4.4454    3.0415    2.9083 C.2       1 <0>        -0.2702
      9 C7         -3.3274    3.1522    3.7413 C.2       1 <0>         0.2092
     10 C8         -3.5849    3.5459    5.0556 C.2       1 <0>        -0.1719
     11 C9         -4.8522    3.7946    5.4558 C.2       1 <0>        -0.0927
     12 S1         -5.7949    3.4837    3.9718 S.3       1 <0>         0.1717
     13 N2         -2.1012    2.8525    3.1404 N.pl3     1 <0>        -0.3364
     14 C10        -2.0363    2.4864    1.8260 C.2       1 <0>         0.3870
     15 N3         -3.1381    2.3870    1.0629 N.2       1 <0>        -0.5086
     16 C11        -0.6950    2.2611    1.5603 C.2       1 <0>        -0.6092
     17 N4         -0.0026    2.4944    2.6685 N.2       1 <0>        -0.1058
     18 N5         -0.7893    2.8456    3.6258 N.2       1 <0>        -0.0788
     19 S2         -0.0218    1.7577    0.0117 S.o2      1 <0>         2.6261
     20 O1          1.3342    2.1824    0.0010 O.2       1 <0>        -0.9228
     21 O2         -0.9529    2.1568   -0.9848 O.2       1 <0>        -0.9132
     22 C12         0.0021   -0.0041    0.0020 C.ar      1 <0>        -0.6574
     23 C13         1.1130   -0.6828    0.4668 C.ar      1 <0>        -0.0172
     24 C14         1.1298   -2.0651    0.4637 C.ar      1 <0>        -0.1408
     25 C15         0.0399   -2.7685   -0.0139 C.ar      1 <0>        -0.0632
     26 C16        -1.0690   -2.0897   -0.4836 C.ar      1 <0>        -0.1432
     27 C17        -1.0879   -0.7075   -0.4756 C.ar      1 <0>        -0.0180
     28 H2         -6.5166    4.6020   -0.4108 H         1 <0>         0.0515
     29 H3         -5.5431    4.5566   -1.9002 H         1 <0>         0.0607
     30 H4         -7.3193    4.6166   -1.9994 H         1 <0>         0.0600
     31 H5         -6.4798    2.3262   -2.4445 H         1 <0>         0.0878
     32 H6         -7.4534    2.3716   -0.9551 H         1 <0>         0.0689
     33 H7         -4.4699    0.2400   -0.1538 H         1 <0>         0.0635
     34 H8         -6.2432    0.2281   -0.3065 H         1 <0>         0.0571
     35 H9         -5.2251    0.3277   -1.7632 H         1 <0>         0.0753
     36 H10        -6.3321    2.7568    1.1479 H         1 <0>         0.4147
     37 H11        -2.7689    3.6526    5.7551 H         1 <0>         0.1640
     38 H12        -5.2053    4.1041    6.4283 H         1 <0>         0.2163
     39 H13         1.9663   -0.1332    0.8359 H         1 <0>         0.1452
     40 H14         1.9963   -2.5954    0.8303 H         1 <0>         0.1350
     41 H15         0.0548   -3.8483   -0.0205 H         1 <0>         0.1313
     42 H16        -1.9204   -2.6392   -0.8571 H         1 <0>         0.1328
     43 H17        -1.9540   -0.1771   -0.8429 H         1 <0>         0.1434
@<TRIPOS>BOND
     1    1    2 1
     2    1   28 1
     3    1   29 1
     4    1   30 1
     5    2    3 1
     6    2   31 1
     7    2   32 1
     8    3    4 1
     9    3    5 1
    10    3    6 1
    11    5   33 1
    12    5   34 1
    13    5   35 1
    14    6    7 1
    15    6   36 1
    16    7   15 2
    17    7    8 1
    18    8   12 1
    19    8    9 2
    20    9   10 1
    21    9   13 1
    22   10   11 2
    23   10   37 1
    24   11   12 1
    25   11   38 1
    26   13   18 1
    27   13   14 1
    28   14   15 1
    29   14   16 2
    30   16   17 1
    31   16   19 1
    32   17   18 2
    33   19   20 2
    34   19   21 2
    35   19   22 1
    36   22   27 ar
    37   22   23 ar
    38   23   24 ar
    39   23   39 1
    40   24   25 ar
    41   24   40 1
    42   25   26 ar
    43   25   41 1
    44   26   27 ar
    45   26   42 1
    46   27   43 1
@<TRIPOS>MOLECULE
ZINC06859828
   45    49     0     0     0
SMALL
USER_CHARGES
phenylsulfonyl-N-(tetrahydrofuran-2-ylmethyl)BLAHamine
@<TRIPOS>ATOM
      1 C1         -4.3501   -6.0348   -2.4289 C.ar      1 <0>        -0.0632
      2 C2         -5.3467   -6.1164   -3.3834 C.ar      1 <0>        -0.1409
      3 C3         -5.7235   -4.9880   -4.0874 C.ar      1 <0>        -0.0173
      4 C4         -5.1042   -3.7779   -3.8364 C.ar      1 <0>        -0.6575
      5 C5         -4.1043   -3.6973   -2.8854 C.ar      1 <0>        -0.0177
      6 C6         -3.7305   -4.8248   -2.1782 C.ar      1 <0>        -0.1432
      7 S1         -5.5845   -2.3396   -4.7338 S.o2      1 <0>         2.6268
      8 O1         -6.1575   -2.7936   -5.9523 O.2       1 <0>        -0.9226
      9 O2         -4.4771   -1.4498   -4.6977 O.2       1 <0>        -0.9141
     10 C7         -6.8811   -1.5671   -3.8246 C.2       1 <0>        -0.6093
     11 C8         -6.7190   -0.6052   -2.8402 C.2       1 <0>         0.3877
     12 N1         -5.6273   -0.0178   -2.3214 N.2       1 <0>        -0.5114
     13 C9         -5.7452    0.8913   -1.3684 C.2       1 <0>         0.5314
     14 C10        -7.0131    1.2404   -0.8933 C.2       1 <0>        -0.2695
     15 C11        -8.1770    0.6599   -1.4076 C.2       1 <0>         0.2089
     16 N2         -7.9776   -0.2926   -2.4113 N.pl3     1 <0>        -0.3363
     17 N3         -8.8635   -1.0798   -3.1544 N.2       1 <0>        -0.0782
     18 N4         -8.1788   -1.8078   -3.9665 N.2       1 <0>        -0.1059
     19 C12        -9.3764    1.1039   -0.8482 C.2       1 <0>        -0.1720
     20 C13        -9.3673    2.0430    0.1245 C.2       1 <0>        -0.0935
     21 S2         -7.6247    2.3762    0.3247 S.3       1 <0>         0.1758
     22 N5         -4.6165    1.4915   -0.8388 N.pl3     1 <0>        -0.6760
     23 C14        -3.2887    1.1199   -1.3338 C.3       1 <0>         0.1196
     24 C15        -2.2226    1.9242   -0.5872 C.3       1 <0>         0.0612
     25 H1         -2.4427    2.9892   -0.6610 H         1 <0>         0.0783
     26 C16        -0.8325    1.6338   -1.1855 C.3       1 <0>        -0.1491
     27 C17        -0.0127    1.0858    0.0080 C.3       1 <0>        -0.1559
     28 C18        -0.8104    1.6215    1.2242 C.3       1 <0>         0.0462
     29 O3         -2.1859    1.5242    0.7930 O.3       1 <0>        -0.3740
     30 H2         -4.0557   -6.9164   -1.8789 H         1 <0>         0.1313
     31 H3         -5.8308   -7.0617   -3.5793 H         1 <0>         0.1350
     32 H4         -6.5019   -5.0518   -4.8334 H         1 <0>         0.1453
     33 H5         -3.6174   -2.7528   -2.6923 H         1 <0>         0.1432
     34 H6         -2.9521   -4.7610   -1.4323 H         1 <0>         0.1328
     35 H7        -10.3148    0.6955   -1.1932 H         1 <0>         0.1640
     36 H8        -10.2038    2.4815    0.6483 H         1 <0>         0.2164
     37 H9         -4.7044    2.1582   -0.1398 H         1 <0>         0.4201
     38 H10        -3.2253    1.3349   -2.4005 H         1 <0>         0.0992
     39 H11        -3.1236    0.0554   -1.1673 H         1 <0>         0.0894
     40 H12        -0.3830    2.5499   -1.5684 H         1 <0>         0.0834
     41 H13        -0.9034    0.8857   -1.9750 H         1 <0>         0.0885
     42 H14         0.0021   -0.0041    0.0020 H         1 <0>         0.0802
     43 H15         1.0008    1.4868    0.0005 H         1 <0>         0.0839
     44 H16        -0.6374    0.9981    2.1014 H         1 <0>         0.0955
     45 H17        -0.5453    2.6584    1.4306 H         1 <0>         0.0636
@<TRIPOS>BOND
     1    1    6 ar
     2    1    2 ar
     3    1   30 1
     4    2    3 ar
     5    2   31 1
     6    3    4 ar
     7    3   32 1
     8    4    5 ar
     9    4    7 1
    10    5    6 ar
    11    5   33 1
    12    6   34 1
    13    7    8 2
    14    7    9 2
    15    7   10 1
    16   10   18 1
    17   10   11 2
    18   11   16 1
    19   11   12 1
    20   12   13 2
    21   13   14 1
    22   13   22 1
    23   14   21 1
    24   14   15 2
    25   15   16 1
    26   15   19 1
    27   16   17 1
    28   17   18 2
    29   19   20 2
    30   19   35 1
    31   20   21 1
    32   20   36 1
    33   22   23 1
    34   22   37 1
    35   23   24 1
    36   23   38 1
    37   23   39 1
    38   24   25 1
    39   24   29 1
    40   24   26 1
    41   26   27 1
    42   26   40 1
    43   26   41 1
    44   27   28 1
    45   27   42 1
    46   27   43 1
    47   28   29 1
    48   28   44 1
    49   28   45 1
@<TRIPOS>MOLECULE
ZINC06859831
   45    49     0     0     0
SMALL
USER_CHARGES
phenylsulfonyl-N-(tetrahydrofuran-2-ylmethyl)BLAHamine
@<TRIPOS>ATOM
      1 C1          4.5838   -3.2915   -4.3834 C.ar      1 <0>        -0.0634
      2 C2          5.6597   -2.7186   -3.7314 C.ar      1 <0>        -0.1408
      3 C3          5.5428   -2.3377   -2.4078 C.ar      1 <0>        -0.0171
      4 C4          4.3497   -2.5288   -1.7363 C.ar      1 <0>        -0.6573
      5 C5          3.2753   -3.1060   -2.3868 C.ar      1 <0>        -0.0182
      6 C6          3.3908   -3.4830   -3.7118 C.ar      1 <0>        -0.1435
      7 S1          4.2008   -2.0431   -0.0491 S.o2      1 <0>         2.6264
      8 O1          5.5161   -2.0338    0.4885 O.2       1 <0>        -0.9225
      9 O2          3.1554   -2.8277    0.5086 O.2       1 <0>        -0.9136
     10 C7          3.6392   -0.3730   -0.0353 C.2       1 <0>        -0.6093
     11 C8          2.3154    0.0366   -0.0199 C.2       1 <0>         0.3877
     12 N1          1.1579   -0.6461   -0.0125 N.2       1 <0>        -0.5116
     13 C9          0.0021   -0.0041    0.0020 C.2       1 <0>         0.5312
     14 C10        -0.0169    1.3940    0.0097 C.2       1 <0>        -0.2694
     15 C11         1.1625    2.1458    0.0025 C.2       1 <0>         0.2087
     16 N2          2.3463    1.4022   -0.0128 N.pl3     1 <0>        -0.3362
     17 N3          3.6944    1.7748   -0.0242 N.2       1 <0>        -0.0783
     18 N4          4.4125    0.7058   -0.0371 N.2       1 <0>        -0.1061
     19 C12         0.9998    3.5322    0.0105 C.2       1 <0>        -0.1720
     20 C13        -0.2397    4.0721    0.0240 C.2       1 <0>        -0.0938
     21 S2         -1.2907    2.6289    0.0213 S.3       1 <0>         0.1763
     22 N5         -1.1857   -0.7140    0.0100 N.pl3     1 <0>        -0.6750
     23 C14        -1.1637   -2.1788    0.0020 C.3       1 <0>         0.1195
     24 C15        -2.5983   -2.7105    0.0134 C.3       1 <0>         0.0612
     25 H1         -3.1379   -2.3394   -0.8579 H         1 <0>         0.0778
     26 C16        -2.5860   -4.2514    0.0050 C.3       1 <0>        -0.1490
     27 C17        -3.3534   -4.6439    1.2910 C.3       1 <0>        -0.1562
     28 C18        -4.1669   -3.3587    1.5888 C.3       1 <0>         0.0466
     29 O3         -3.2639   -2.2950    1.2178 O.3       1 <0>        -0.3737
     30 H2          4.6751   -3.5891   -5.4175 H         1 <0>         0.1313
     31 H3          6.5918   -2.5690   -4.2561 H         1 <0>         0.1350
     32 H4          6.3836   -1.8904   -1.8983 H         1 <0>         0.1454
     33 H5          2.3445   -3.2593   -1.8609 H         1 <0>         0.1433
     34 H6          2.5501   -3.9303   -4.2212 H         1 <0>         0.1328
     35 H7          1.8671    4.1758    0.0057 H         1 <0>         0.1640
     36 H8         -0.5229    5.1143    0.0311 H         1 <0>         0.2163
     37 H9         -2.0329   -0.2417    0.0210 H         1 <0>         0.4207
     38 H10        -0.6533   -2.5295   -0.8950 H         1 <0>         0.0937
     39 H11        -0.6356   -2.5391    0.8848 H         1 <0>         0.0937
     40 H12        -3.1003   -4.6322   -0.8774 H         1 <0>         0.0828
     41 H13        -1.5628   -4.6250    0.0423 H         1 <0>         0.0883
     42 H14        -4.0159   -5.4895    1.1059 H         1 <0>         0.0839
     43 H15        -2.6622   -4.8646    2.1044 H         1 <0>         0.0813
     44 H16        -5.0697   -3.3260    0.9789 H         1 <0>         0.0633
     45 H17        -4.4159   -3.2988    2.6483 H         1 <0>         0.0958
@<TRIPOS>BOND
     1    1    6 ar
     2    1    2 ar
     3    1   30 1
     4    2    3 ar
     5    2   31 1
     6    3    4 ar
     7    3   32 1
     8    4    5 ar
     9    4    7 1
    10    5    6 ar
    11    5   33 1
    12    6   34 1
    13    7    8 2
    14    7    9 2
    15    7   10 1
    16   10   18 1
    17   10   11 2
    18   11   16 1
    19   11   12 1
    20   12   13 2
    21   13   14 1
    22   13   22 1
    23   14   21 1
    24   14   15 2
    25   15   16 1
    26   15   19 1
    27   16   17 1
    28   17   18 2
    29   19   20 2
    30   19   35 1
    31   20   21 1
    32   20   36 1
    33   22   23 1
    34   22   37 1
    35   23   24 1
    36   23   38 1
    37   23   39 1
    38   24   25 1
    39   24   29 1
    40   24   26 1
    41   26   27 1
    42   26   40 1
    43   26   41 1
    44   27   28 1
    45   27   42 1
    46   27   43 1
    47   28   29 1
    48   28   44 1
    49   28   45 1
@<TRIPOS>MOLECULE
ZINC20516436
   37    40     0     0     0
SMALL
USER_CHARGES

@<TRIPOS>ATOM
      1 C1         -0.0184    1.5028    0.0103 C.3       1 <0>        -0.1151
      2 C2          0.0021   -0.0041    0.0020 C.ar      1 <0>        -0.1154
      3 C3          0.0057   -0.6888   -1.1991 C.ar      1 <0>        -0.0598
      4 C4          0.0245   -2.0707   -1.2067 C.ar      1 <0>        -0.1404
      5 C5          0.0400   -2.7685   -0.0132 C.ar      1 <0>         0.0174
      6 C6          0.0373   -2.0840    1.1875 C.ar      1 <0>        -0.6570
      7 C7          0.0229   -0.7015    1.1951 C.ar      1 <0>        -0.0150
      8 S1          0.0566   -2.9732    2.7086 S.o2      1 <0>         2.6270
      9 O1          1.0941   -3.9382    2.6018 O.2       1 <0>        -0.9189
     10 O2          0.0222   -2.0032    3.7465 O.2       1 <0>        -0.9172
     11 C8         -1.4570   -3.8699    2.8070 C.2       1 <0>        -0.6085
     12 C9         -2.6384   -3.4069    3.3641 C.2       1 <0>         0.3878
     13 N1         -2.9672   -2.2413    3.9468 N.2       1 <0>        -0.5097
     14 C10        -4.1913   -2.0447    4.4066 C.2       1 <0>         0.5368
     15 C11        -5.1502   -3.0552    4.2863 C.2       1 <0>        -0.2743
     16 C12        -4.8532   -4.2837    3.6875 C.2       1 <0>         0.2104
     17 N2         -3.5413   -4.4223    3.2245 N.pl3     1 <0>        -0.3348
     18 N3         -2.8726   -5.4709    2.5844 N.2       1 <0>        -0.0751
     19 N4         -1.6604   -5.1013    2.3551 N.2       1 <0>        -0.1062
     20 C13        -5.9024   -5.2028    3.6323 C.2       1 <0>        -0.1726
     21 C14        -7.1146   -4.8832    4.1388 C.2       1 <0>        -0.0909
     22 S2         -6.8559   -3.2237    4.7445 S.3       1 <0>         0.1768
     23 N5         -4.5223   -0.8421    5.0057 N.pl3     1 <0>        -0.8041
     24 C15         0.0595   -4.2753   -0.0215 C.3       1 <0>        -0.1582
     25 H1          1.0042    1.8801    0.0026 H         1 <0>         0.0743
     26 H2         -0.5455    1.8639   -0.8728 H         1 <0>         0.0683
     27 H3         -0.5286    1.8543    0.9071 H         1 <0>         0.0702
     28 H4         -0.0064   -0.1437   -2.1314 H         1 <0>         0.1308
     29 H5          0.0266   -2.6056   -2.1449 H         1 <0>         0.1334
     30 H6          0.0246   -0.1666    2.1333 H         1 <0>         0.1465
     31 H7         -5.7455   -6.1724    3.1833 H         1 <0>         0.1649
     32 H8         -8.0133   -5.4813    4.1693 H         1 <0>         0.2172
     33 H9         -3.8560   -0.1421    5.0888 H         1 <0>         0.4255
     34 H10        -5.4206   -0.6992    5.3426 H         1 <0>         0.4195
     35 H11         1.0917   -4.6253   -0.0291 H         1 <0>         0.1003
     36 H12        -0.4447   -4.6501    0.8693 H         1 <0>         0.0859
     37 H13        -0.4546   -4.6404   -0.9106 H         1 <0>         0.0802
@<TRIPOS>BOND
     1    1    2 1
     2    1   25 1
     3    1   26 1
     4    1   27 1
     5    2    7 ar
     6    2    3 ar
     7    3    4 ar
     8    3   28 1
     9    4    5 ar
    10    4   29 1
    11    5    6 ar
    12    5   24 1
    13    6    7 ar
    14    6    8 1
    15    7   30 1
    16    8    9 2
    17    8   10 2
    18    8   11 1
    19   11   19 1
    20   11   12 2
    21   12   17 1
    22   12   13 1
    23   13   14 2
    24   14   15 1
    25   14   23 1
    26   15   22 1
    27   15   16 2
    28   16   17 1
    29   16   20 1
    30   17   18 1
    31   18   19 2
    32   20   21 2
    33   20   31 1
    34   21   22 1
    35   21   32 1
    36   23   33 1
    37   23   34 1
    38   24   35 1
    39   24   36 1
    40   24   37 1
@<TRIPOS>MOLECULE
ZINC53297212
   61    67     0     0     0
SMALL
USER_CHARGES

@<TRIPOS>ATOM
      1 C1         -0.0187    1.5258    0.0104 C.3       1 <0>        -0.1692
      2 C2          0.0021   -0.0041    0.0020 C.3       1 <0>         0.1512
      3 H1          0.5293   -0.3651    0.8851 H         1 <0>         0.1050
      4 C3         -1.4333   -0.5336    0.0129 C.3       1 <0>        -0.0606
      5 C4         -1.4126   -2.0635    0.0045 C.3       1 <0>        -0.1024
      6 C5         -2.8479   -2.5931    0.0153 C.3       1 <0>        -0.0853
      7 C6         -3.5641   -2.0996    1.2741 C.3       1 <0>        -0.1093
      8 C7         -3.5848   -0.5698    1.2825 C.3       1 <0>        -0.0850
      9 C8         -2.1494   -0.0402    1.2717 C.3       1 <0>        -0.1015
     10 C9         -4.3248   -0.0630    0.0430 C.3       1 <0>        -0.1090
     11 C10        -3.6087   -0.5564   -1.2158 C.3       1 <0>        -0.0846
     12 C11        -3.5879   -2.0862   -1.2242 C.3       1 <0>        -0.1092
     13 C12        -2.1733   -0.0268   -1.2266 C.3       1 <0>        -0.1064
     14 N1          0.6878   -0.4765   -1.2033 N.pl3     1 <0>        -0.6742
     15 C13         2.0669   -0.5899   -1.2152 C.2       1 <0>         0.5325
     16 C14         2.7235   -1.0352   -2.3666 C.2       1 <0>        -0.2696
     17 C15         4.1155   -1.1621   -2.4167 C.2       1 <0>         0.2092
     18 C16         4.6417   -1.6168   -3.6271 C.2       1 <0>        -0.1717
     19 C17         3.8196   -1.9049   -4.6611 C.2       1 <0>        -0.0929
     20 S1          2.2065   -1.5472   -3.9846 S.3       1 <0>         0.1699
     21 N2          4.7910   -0.8144   -1.2432 N.pl3     1 <0>        -0.3366
     22 C18         4.1066   -0.3842   -0.1421 C.2       1 <0>         0.3875
     23 N3          2.7673   -0.2723   -0.1396 N.2       1 <0>        -0.5078
     24 C19         5.0656   -0.1288    0.8251 C.2       1 <0>        -0.6097
     25 N4          6.2603   -0.3977    0.3130 N.2       1 <0>        -0.1060
     26 N5          6.1479   -0.8049   -0.9036 N.2       1 <0>        -0.0791
     27 S2          4.7522    0.4546    2.4579 S.o2      1 <0>         2.6255
     28 O1          5.9429    1.0945    2.8961 O.2       1 <0>        -0.9231
     29 O2          3.4989    1.1231    2.4167 O.2       1 <0>        -0.9120
     30 C20         4.5343   -0.9610    3.4841 C.ar      1 <0>        -0.6574
     31 C21         3.2750   -1.5060    3.6517 C.ar      1 <0>        -0.0175
     32 C22         3.1040   -2.6166    4.4568 C.ar      1 <0>        -0.1430
     33 C23         4.1924   -3.1826    5.0939 C.ar      1 <0>        -0.0632
     34 C24         5.4519   -2.6382    4.9255 C.ar      1 <0>        -0.1408
     35 C25         5.6235   -1.5301    4.1170 C.ar      1 <0>        -0.0174
     36 H2          1.0039    1.9031    0.0027 H         1 <0>         0.0689
     37 H3         -0.5459    1.8868   -0.8726 H         1 <0>         0.0588
     38 H4         -0.5289    1.8773    0.9072 H         1 <0>         0.0772
     39 H5         -0.9024   -2.4150   -0.8923 H         1 <0>         0.0587
     40 H6         -0.8854   -2.4246    0.8875 H         1 <0>         0.0654
     41 H7         -2.8332   -3.6829    0.0093 H         1 <0>         0.0695
     42 H8         -4.5867   -2.4769    1.2819 H         1 <0>         0.0622
     43 H9         -3.0369   -2.4607    2.1572 H         1 <0>         0.0624
     44 H10        -4.0950   -0.2183    2.1793 H         1 <0>         0.0728
     45 H11        -1.6223   -0.4013    2.1547 H         1 <0>         0.0683
     46 H12        -2.1642    1.0497    1.2777 H         1 <0>         0.0723
     47 H13        -5.3474   -0.4403    0.0508 H         1 <0>         0.0624
     48 H14        -4.3396    1.0269    0.0490 H         1 <0>         0.0630
     49 H15        -4.1359   -0.1953   -2.0988 H         1 <0>         0.0707
     50 H16        -3.0777   -2.4378   -2.1210 H         1 <0>         0.0598
     51 H17        -4.6105   -2.4635   -1.2165 H         1 <0>         0.0630
     52 H18        -2.1881    1.0631   -1.2207 H         1 <0>         0.0729
     53 H19        -1.6631   -0.3783   -2.1234 H         1 <0>         0.0546
     54 H20         0.1751   -0.7099   -1.9930 H         1 <0>         0.4141
     55 H21         5.7090   -1.7385   -3.7380 H         1 <0>         0.1639
     56 H22         4.0746   -2.2616   -5.6481 H         1 <0>         0.2161
     57 H23         2.4246   -1.0638    3.1539 H         1 <0>         0.1429
     58 H24         2.1200   -3.0419    4.5883 H         1 <0>         0.1326
     59 H25         4.0588   -4.0499    5.7234 H         1 <0>         0.1313
     60 H26         6.3022   -3.0802    5.4236 H         1 <0>         0.1349
     61 H27         6.6080   -1.1070    3.9825 H         1 <0>         0.1450
@<TRIPOS>BOND
     1    1    2 1
     2    1   36 1
     3    1   37 1
     4    1   38 1
     5    2    3 1
     6    2    4 1
     7    2   14 1
     8    4    9 1
     9    4   13 1
    10    4    5 1
    11    5    6 1
    12    5   39 1
    13    5   40 1
    14    6   12 1
    15    6    7 1
    16    6   41 1
    17    7    8 1
    18    7   42 1
    19    7   43 1
    20    8    9 1
    21    8   10 1
    22    8   44 1
    23    9   45 1
    24    9   46 1
    25   10   11 1
    26   10   47 1
    27   10   48 1
    28   11   12 1
    29   11   13 1
    30   11   49 1
    31   12   50 1
    32   12   51 1
    33   13   52 1
    34   13   53 1
    35   14   15 1
    36   14   54 1
    37   15   23 2
    38   15   16 1
    39   16   20 1
    40   16   17 2
    41   17   18 1
    42   17   21 1
    43   18   19 2
    44   18   55 1
    45   19   20 1
    46   19   56 1
    47   21   26 1
    48   21   22 1
    49   22   23 1
    50   22   24 2
    51   24   25 1
    52   24   27 1
    53   25   26 2
    54   27   28 2
    55   27   29 2
    56   27   30 1
    57   30   35 ar
    58   30   31 ar
    59   31   32 ar
    60   31   57 1
    61   32   33 ar
    62   32   58 1
    63   33   34 ar
    64   33   59 1
    65   34   35 ar
    66   34   60 1
    67   35   61 1
@<TRIPOS>MOLECULE
ZINC53297214
   61    67     0     0     0
SMALL
USER_CHARGES

@<TRIPOS>ATOM
      1 C1         -0.0187    1.5258    0.0104 C.3       1 <0>        -0.1692
      2 C2          0.0021   -0.0041    0.0020 C.3       1 <0>         0.1473
      3 H1          0.5293   -0.3651    0.8851 H         1 <0>         0.1111
      4 C3          0.7182   -0.4975   -1.2568 C.3       1 <0>        -0.0597
      5 C4         -0.0218    0.0093   -2.4963 C.3       1 <0>        -0.1059
      6 C5          0.6944   -0.4841   -3.7551 C.3       1 <0>        -0.0846
      7 C6          2.1297    0.0455   -3.7660 C.3       1 <0>        -0.1086
      8 C7          2.8697   -0.4613   -2.5264 C.3       1 <0>        -0.0849
      9 C8          2.1536    0.0321   -1.2676 C.3       1 <0>        -0.1017
     10 C9          2.8905   -1.9912   -2.5349 C.3       1 <0>        -0.1099
     11 C10         1.4551   -2.5207   -2.5240 C.3       1 <0>        -0.0854
     12 C11         0.7151   -2.0139   -3.7635 C.3       1 <0>        -0.1091
     13 C12         0.7390   -2.0273   -1.2652 C.3       1 <0>        -0.1033
     14 N1         -1.3723   -0.5112    0.0124 N.pl3     1 <0>        -0.6739
     15 C13        -2.0462   -0.6591    1.2119 C.2       1 <0>         0.5325
     16 C14        -3.3559   -1.1483    1.2243 C.2       1 <0>        -0.2695
     17 C15        -4.0686   -1.3119    2.4166 C.2       1 <0>         0.2093
     18 C16        -5.3663   -1.8095    2.2862 C.2       1 <0>        -0.1717
     19 C17        -5.8634   -2.1019    1.0634 C.2       1 <0>        -0.0928
     20 S1         -4.5041   -1.6857   -0.0168 S.3       1 <0>         0.1698
     21 N2         -3.3804   -0.9536    3.5795 N.pl3     1 <0>        -0.3366
     22 C18        -2.1007   -0.4798    3.5183 C.2       1 <0>         0.3876
     23 N3         -1.4511   -0.3432    2.3498 N.2       1 <0>        -0.5079
     24 C19        -1.7266   -0.2268    4.8284 C.2       1 <0>        -0.6098
     25 N4         -2.7430   -0.5389    5.6231 N.2       1 <0>        -0.1059
     26 N5         -3.7394   -0.9715    4.9313 N.2       1 <0>        -0.0791
     27 S2         -0.1658    0.4020    5.3510 S.o2      1 <0>         2.6256
     28 O1          0.0057   -0.0075    6.7009 O.2       1 <0>        -0.9231
     29 O2          0.7670    0.0727    4.3308 O.2       1 <0>        -0.9127
     30 C20        -0.2920    2.1593    5.3699 C.ar      1 <0>        -0.6574
     31 C21         0.0190    2.8868    4.2364 C.ar      1 <0>        -0.0177
     32 C22        -0.0800    4.2656    4.2512 C.ar      1 <0>        -0.1430
     33 C23        -0.4904    4.9167    5.3994 C.ar      1 <0>        -0.0632
     34 C24        -0.8022    4.1892    6.5327 C.ar      1 <0>        -0.1408
     35 C25        -0.7074    2.8102    6.5166 C.ar      1 <0>        -0.0173
     36 H2          1.0039    1.9031    0.0027 H         1 <0>         0.0777
     37 H3         -0.5459    1.8868   -0.8726 H         1 <0>         0.0606
     38 H4         -0.5289    1.8773    0.9072 H         1 <0>         0.0629
     39 H5         -1.0444   -0.3679   -2.4886 H         1 <0>         0.0544
     40 H6         -0.0366    1.0992   -2.4903 H         1 <0>         0.0718
     41 H7          0.1672   -0.1230   -4.6382 H         1 <0>         0.0703
     42 H8          2.6399   -0.3060   -4.6628 H         1 <0>         0.0624
     43 H9          2.1150    1.1354   -3.7600 H         1 <0>         0.0623
     44 H10         3.8923   -0.0840   -2.5342 H         1 <0>         0.0727
     45 H11         2.1388    1.1220   -1.2617 H         1 <0>         0.0708
     46 H12         2.6808   -0.3290   -0.3846 H         1 <0>         0.0701
     47 H13         3.4007   -2.3427   -3.4317 H         1 <0>         0.0622
     48 H14         3.4177   -2.3522   -1.6518 H         1 <0>         0.0635
     49 H15         1.4699   -3.6106   -2.5300 H         1 <0>         0.0700
     50 H16        -0.3075   -2.3912   -3.7558 H         1 <0>         0.0597
     51 H17         1.2253   -2.3654   -4.6603 H         1 <0>         0.0629
     52 H18         1.2661   -2.3884   -0.3821 H         1 <0>         0.0675
     53 H19        -0.2836   -2.4046   -1.2575 H         1 <0>         0.0586
     54 H20        -1.8100   -0.7432   -0.8215 H         1 <0>         0.4140
     55 H21        -5.9752   -1.9617    3.1652 H         1 <0>         0.1639
     56 H22        -6.8377   -2.4897    0.8049 H         1 <0>         0.2161
     57 H23         0.3397    2.3781    3.3393 H         1 <0>         0.1434
     58 H24         0.1636    4.8340    3.3658 H         1 <0>         0.1327
     59 H25        -0.5671    5.9939    5.4112 H         1 <0>         0.1312
     60 H26        -1.1226    4.6979    7.4299 H         1 <0>         0.1349
     61 H27        -0.9546    2.2415    7.4008 H         1 <0>         0.1450
@<TRIPOS>BOND
     1    1    2 1
     2    1   36 1
     3    1   37 1
     4    1   38 1
     5    2    3 1
     6    2    4 1
     7    2   14 1
     8    4    9 1
     9    4   13 1
    10    4    5 1
    11    5    6 1
    12    5   39 1
    13    5   40 1
    14    6   12 1
    15    6    7 1
    16    6   41 1
    17    7    8 1
    18    7   42 1
    19    7   43 1
    20    8    9 1
    21    8   10 1
    22    8   44 1
    23    9   45 1
    24    9   46 1
    25   10   11 1
    26   10   47 1
    27   10   48 1
    28   11   12 1
    29   11   13 1
    30   11   49 1
    31   12   50 1
    32   12   51 1
    33   13   52 1
    34   13   53 1
    35   14   15 1
    36   14   54 1
    37   15   23 2
    38   15   16 1
    39   16   20 1
    40   16   17 2
    41   17   18 1
    42   17   21 1
    43   18   19 2
    44   18   55 1
    45   19   20 1
    46   19   56 1
    47   21   26 1
    48   21   22 1
    49   22   23 1
    50   22   24 2
    51   24   25 1
    52   24   27 1
    53   25   26 2
    54   27   28 2
    55   27   29 2
    56   27   30 1
    57   30   35 ar
    58   30   31 ar
    59   31   32 ar
    60   31   57 1
    61   32   33 ar
    62   32   58 1
    63   33   34 ar
    64   33   59 1
    65   34   35 ar
    66   34   60 1
    67   35   61 1
@<TRIPOS>MOLECULE
ZINC08589274
   47    51     0     0     0
SMALL
USER_CHARGES

@<TRIPOS>ATOM
      1 C1         -0.1426    1.3898   -0.2041 C.3       1 <0>         0.0728
      2 N1          0.1133   -0.0479   -0.0874 N.pl3     1 <0>        -0.5657
      3 C2          0.2572   -0.6613    1.2353 C.3       1 <0>         0.1510
      4 C3         -1.1066   -0.9721    1.7959 C.ar      1 <0>        -0.1122
      5 C4         -1.7356   -0.0643    2.6272 C.ar      1 <0>        -0.1053
      6 C5         -2.9866   -0.3494    3.1415 C.ar      1 <0>        -0.1231
      7 C6         -3.6089   -1.5423    2.8241 C.ar      1 <0>        -0.1100
      8 C7         -2.9804   -2.4498    1.9921 C.ar      1 <0>        -0.1261
      9 C8         -1.7312   -2.1627    1.4744 C.ar      1 <0>        -0.0957
     10 C9          0.2190   -0.8266   -1.2263 C.2       1 <0>         0.5309
     11 C10         0.2127   -0.2260   -2.4890 C.2       1 <0>        -0.2682
     12 C11         0.3181   -0.9798   -3.6624 C.2       1 <0>         0.2110
     13 C12         0.2992   -0.2546   -4.8550 C.2       1 <0>        -0.1730
     14 C13         0.1846    1.0923   -4.8307 C.2       1 <0>        -0.1076
     15 S1          0.0924    1.4416   -3.0822 S.3       1 <0>         0.1844
     16 N2          0.4287   -2.3613   -3.4787 N.pl3     1 <0>        -0.3366
     17 C14         0.4303   -2.9033   -2.2249 C.2       1 <0>         0.3896
     18 N3          0.3318   -2.1401   -1.1231 N.2       1 <0>        -0.5128
     19 C15         0.5531   -4.2721   -2.4033 C.2       1 <0>        -0.6131
     20 N4          0.6205   -4.5214   -3.7053 N.2       1 <0>        -0.1055
     21 N5          0.5512   -3.4255   -4.3781 N.2       1 <0>        -0.0755
     22 S2          0.6106   -5.4773   -1.1192 S.o2      1 <0>         2.6266
     23 O1          1.4121   -6.5469   -1.6017 O.2       1 <0>        -0.9178
     24 O2          0.9144   -4.7786    0.0803 O.2       1 <0>        -0.9066
     25 C16        -1.0208   -6.1159   -0.9307 C.ar      1 <0>        -0.6467
     26 C17        -1.9267   -5.4671   -0.1120 C.ar      1 <0>        -0.0193
     27 C18        -3.2065   -5.9674    0.0364 C.ar      1 <0>        -0.1272
     28 C19        -3.5815   -7.1171   -0.6333 C.ar      1 <0>        -0.0531
     29 C20        -2.6757   -7.7666   -1.4525 C.ar      1 <0>        -0.0561
     30 C21        -1.3964   -7.2618   -1.6055 C.ar      1 <0>        -0.0065
     31 Cl1        -3.1459   -9.2104   -2.2940 Cl        1 <0>        -0.0537
     32 H1          0.7995    1.9150   -0.3614 H         1 <0>         0.0760
     33 H2         -0.8063    1.5733   -1.0491 H         1 <0>         0.0749
     34 H3         -0.6115    1.7509    0.7112 H         1 <0>         0.0994
     35 H4          0.8328   -1.5828    1.1478 H         1 <0>         0.1174
     36 H5          0.7752    0.0288    1.9013 H         1 <0>         0.0960
     37 H6         -1.2494    0.8677    2.8752 H         1 <0>         0.1215
     38 H7         -3.4777    0.3596    3.7916 H         1 <0>         0.1232
     39 H8         -4.5860   -1.7654    3.2265 H         1 <0>         0.1225
     40 H9         -3.4664   -3.3819    1.7444 H         1 <0>         0.1214
     41 H10        -1.2417   -2.8701    0.8213 H         1 <0>         0.1331
     42 H11         0.3767   -0.7712   -5.8003 H         1 <0>         0.1616
     43 H12         0.1560    1.7832   -5.6603 H         1 <0>         0.2134
     44 H13        -1.6339   -4.5692    0.4120 H         1 <0>         0.1460
     45 H14        -3.9137   -5.4602    0.6760 H         1 <0>         0.1432
     46 H15        -4.5814   -7.5083   -0.5167 H         1 <0>         0.1440
     47 H16        -0.6901   -7.7660   -2.2484 H         1 <0>         0.1573
@<TRIPOS>BOND
     1    1    2 1
     2    1   32 1
     3    1   33 1
     4    1   34 1
     5    2    3 1
     6    2   10 1
     7    3    4 1
     8    3   35 1
     9    3   36 1
    10    4    9 ar
    11    4    5 ar
    12    5    6 ar
    13    5   37 1
    14    6    7 ar
    15    6   38 1
    16    7    8 ar
    17    7   39 1
    18    8    9 ar
    19    8   40 1
    20    9   41 1
    21   10   18 2
    22   10   11 1
    23   11   15 1
    24   11   12 2
    25   12   13 1
    26   12   16 1
    27   13   14 2
    28   13   42 1
    29   14   15 1
    30   14   43 1
    31   16   21 1
    32   16   17 1
    33   17   18 1
    34   17   19 2
    35   19   20 1
    36   19   22 1
    37   20   21 2
    38   22   23 2
    39   22   24 2
    40   22   25 1
    41   25   30 ar
    42   25   26 ar
    43   26   27 ar
    44   26   44 1
    45   27   28 ar
    46   27   45 1
    47   28   29 ar
    48   28   46 1
    49   29   30 ar
    50   29   31 1
    51   30   47 1
@<TRIPOS>MOLECULE
ZINC08589514
   47    52     0     0     0
SMALL
USER_CHARGES
N-(benzo[1,3]dioxol-5-ylmethyl)-(4-bromophenyl)sulfonyl-BLAHamine
@<TRIPOS>ATOM
      1 C1         -5.8536    1.9598   -2.3916 C.ar      1 <0>        -0.0102
      2 C2         -6.4877    0.8013   -2.7991 C.ar      1 <0>        -0.1149
      3 C3         -7.8509    0.8051   -3.0338 C.ar      1 <0>        -0.0387
      4 C4         -8.5797    1.9672   -2.8555 C.ar      1 <0>        -0.1127
      5 C5         -7.9456    3.1239   -2.4429 C.ar      1 <0>        -0.0091
      6 C6         -6.5832    3.1196   -2.2084 C.ar      1 <0>        -0.6476
      7 S1         -5.7753    4.5947   -1.6830 S.o2      1 <0>         2.6276
      8 O1         -6.5857    5.6783   -2.1170 O.2       1 <0>        -0.9177
      9 O2         -4.4107    4.4660   -2.0579 O.2       1 <0>        -0.9084
     10 C7         -5.8142    4.6108    0.0785 C.2       1 <0>        -0.6100
     11 C8         -4.8504    4.0710    0.9153 C.2       1 <0>         0.3878
     12 N1         -3.6961    3.4285    0.6684 N.2       1 <0>        -0.5104
     13 C9         -2.9397    3.0038    1.6664 C.2       1 <0>         0.5328
     14 C10        -3.3450    3.2195    2.9871 C.2       1 <0>        -0.2705
     15 C11        -4.5349    3.8886    3.2914 C.2       1 <0>         0.2102
     16 N2         -5.2842    4.3089    2.1885 N.pl3     1 <0>        -0.3354
     17 N3         -6.5022    4.9880    2.0788 N.2       1 <0>        -0.0755
     18 N4         -6.7716    5.1421    0.8289 N.2       1 <0>        -0.1052
     19 C12        -4.8161    4.0417    4.6501 C.2       1 <0>        -0.1725
     20 C13        -3.9601    3.5625    5.5806 C.2       1 <0>        -0.0917
     21 S2         -2.6655    2.8447    4.5825 S.3       1 <0>         0.1761
     22 N5         -1.7527    2.3425    1.4043 N.pl3     1 <0>        -0.6788
     23 C14        -1.3328    2.1122    0.0198 C.3       1 <0>         0.1651
     24 C15        -0.0167    1.3782    0.0096 C.ar      1 <0>        -0.1114
     25 C16         1.1693    2.0886    0.0021 C.ar      1 <0>        -0.0825
     26 C17         2.3790    1.4199   -0.0122 C.ar      1 <0>        -0.1020
     27 C18         2.4055    0.0347   -0.0206 C.ar      1 <0>         0.0470
     28 C19         1.2108   -0.6810   -0.0131 C.ar      1 <0>         0.0301
     29 C20         0.0021   -0.0041    0.0020 C.ar      1 <0>        -0.0786
     30 O3          1.5011   -2.0147   -0.0235 O.3       1 <0>        -0.3068
     31 C21         2.8735   -2.1061   -0.4495 C.3       1 <0>         0.2126
     32 O4          3.4443   -0.8506   -0.0356 O.3       1 <0>        -0.3066
     33 Br1        -8.7180   -0.7779   -3.5977 Br        1 <0>        -0.0341
     34 H1         -4.7886    1.9580   -2.2122 H         1 <0>         0.1543
     35 H2         -5.9184   -0.1059   -2.9378 H         1 <0>         0.1442
     36 H3         -9.6442    1.9706   -3.0383 H         1 <0>         0.1461
     37 H4         -8.5146    4.0312   -2.3033 H         1 <0>         0.1557
     38 H5         -5.7206    4.5444    4.9592 H         1 <0>         0.1644
     39 H6         -4.0394    3.6039    6.6569 H         1 <0>         0.2166
     40 H7         -1.1988    2.0315    2.1373 H         1 <0>         0.4188
     41 H8         -1.2190    3.0692   -0.4894 H         1 <0>         0.1011
     42 H9         -2.0860    1.5147   -0.4937 H         1 <0>         0.0932
     43 H10         1.1506    3.1685    0.0077 H         1 <0>         0.1438
     44 H11         3.3040    1.9774   -0.0180 H         1 <0>         0.1410
     45 H12        -0.9259   -0.5565    0.0082 H         1 <0>         0.1390
     46 H13         2.9320   -2.2150   -1.5324 H         1 <0>         0.0886
     47 H14         3.3744   -2.9369    0.0476 H         1 <0>         0.1352
@<TRIPOS>BOND
     1    1    6 ar
     2    1    2 ar
     3    1   34 1
     4    2    3 ar
     5    2   35 1
     6    3    4 ar
     7    3   33 1
     8    4    5 ar
     9    4   36 1
    10    5    6 ar
    11    5   37 1
    12    6    7 1
    13    7    8 2
    14    7    9 2
    15    7   10 1
    16   10   18 1
    17   10   11 2
    18   11   16 1
    19   11   12 1
    20   12   13 2
    21   13   14 1
    22   13   22 1
    23   14   21 1
    24   14   15 2
    25   15   16 1
    26   15   19 1
    27   16   17 1
    28   17   18 2
    29   19   20 2
    30   19   38 1
    31   20   21 1
    32   20   39 1
    33   22   23 1
    34   22   40 1
    35   23   24 1
    36   23   41 1
    37   23   42 1
    38   24   29 ar
    39   24   25 ar
    40   25   26 ar
    41   25   43 1
    42   26   27 ar
    43   26   44 1
    44   27   32 1
    45   27   28 ar
    46   28   29 ar
    47   28   30 1
    48   29   45 1
    49   30   31 1
    50   31   32 1
    51   31   46 1
    52   31   47 1
@<TRIPOS>MOLECULE
ZINC00538337
   58    62     0     0     0
SMALL
USER_CHARGES

@<TRIPOS>ATOM
      1 C1         -0.0168    1.3842    0.0097 C.ar      1 <0>        -0.0898
      2 C2          1.1703    2.0901    0.0021 C.ar      1 <0>        -0.1344
      3 C3          2.3788    1.4141   -0.0135 C.ar      1 <0>         0.1119
      4 C4          2.3997    0.0295   -0.0216 C.ar      1 <0>        -0.1322
      5 C5          1.2148   -0.6800   -0.0137 C.ar      1 <0>        -0.0888
      6 C6          0.0021   -0.0041    0.0020 C.ar      1 <0>         0.1035
      7 N1         -1.2015   -0.7222    0.0101 N.pl3     1 <0>        -0.4255
      8 C7         -2.2407   -0.5077    0.8765 C.2       1 <0>         0.0751
      9 C8         -3.2397   -1.3652    0.6140 C.2       1 <0>        -0.1721
     10 C9         -2.8068   -2.1974   -0.5117 C.ar      1 <0>        -0.0841
     11 C10        -1.5194   -1.7470   -0.8569 C.ar      1 <0>         0.1032
     12 C11        -0.8430   -2.3517   -1.9103 C.ar      1 <0>        -0.1070
     13 C12        -1.4366   -3.3808   -2.6081 C.ar      1 <0>        -0.0841
     14 C13        -2.7089   -3.8239   -2.2706 C.ar      1 <0>        -0.0491
     15 C14        -3.3935   -3.2441   -1.2250 C.ar      1 <0>        -0.0671
     16 Cl1        -3.4366   -5.1218   -3.1648 Cl        1 <0>        -0.0596
     17 C15        -4.5571   -1.4553    1.3402 C.3       1 <0>        -0.0164
     18 C16        -4.3063   -1.7573    2.8204 C.3       1 <0>        -0.1397
     19 C17        -5.6422   -1.7687    3.5665 C.3       1 <0>        -0.0052
     20 N2         -6.2909   -0.4585    3.4359 N.4       1 <0>        -0.3798
     21 C18        -6.5994   -0.1937    2.0255 C.3       1 <0>        -0.0131
     22 C19        -5.3003   -0.1217    1.2201 C.3       1 <0>        -0.1392
     23 C20        -7.5345   -0.4493    4.2177 C.3       1 <0>        -0.0330
     24 C21        -8.1476    0.9521    4.1845 C.3       1 <0>         0.1326
     25 N3         -9.3878    0.9612    4.9641 N.am      1 <0>        -0.6351
     26 C22       -10.7283    0.6664    4.4362 C.3       1 <0>         0.0898
     27 C23       -11.6494    0.8170    5.6625 C.3       1 <0>         0.0871
     28 N4        -10.7301    1.1807    6.7511 N.am      1 <0>        -0.7327
     29 C24        -9.4802    1.2337    6.2723 C.2       1 <0>         0.7000
     30 O1         -8.5172    1.5083    6.9620 O.2       1 <0>        -0.5776
     31 F1          3.5389    2.1063   -0.0213 F         1 <0>        -0.1276
     32 H1         -0.9590    1.9118    0.0260 H         1 <0>         0.1391
     33 H2          1.1561    3.1700    0.0080 H         1 <0>         0.1488
     34 H3          3.3432   -0.4959   -0.0345 H         1 <0>         0.1499
     35 H4          1.2315   -1.7598   -0.0203 H         1 <0>         0.1411
     36 H5         -2.2541    0.2401    1.6556 H         1 <0>         0.1691
     37 H6          0.1466   -2.0149   -2.1816 H         1 <0>         0.1333
     38 H7         -0.9074   -3.8472   -3.4259 H         1 <0>         0.1426
     39 H8         -4.3833   -3.5900   -0.9659 H         1 <0>         0.1336
     40 H9         -5.1611   -2.2499    0.9021 H         1 <0>         0.0971
     41 H10        -3.8271   -2.7315    2.9171 H         1 <0>         0.1158
     42 H11        -3.6594   -0.9891    3.2440 H         1 <0>         0.0884
     43 H12        -6.2882   -2.5373    3.1423 H         1 <0>         0.1304
     44 H13        -5.4673   -1.9836    4.6207 H         1 <0>         0.1320
     45 H14        -7.2250   -0.9960    1.6341 H         1 <0>         0.1319
     46 H15        -7.1311    0.7541    1.9420 H         1 <0>         0.1316
     47 H16        -4.6740    0.6804    1.6106 H         1 <0>         0.0885
     48 H17        -5.5315    0.0731    0.1729 H         1 <0>         0.1159
     49 H18        -8.2379   -1.1638    3.7899 H         1 <0>         0.1318
     50 H19        -7.3173   -0.7265    5.2492 H         1 <0>         0.1351
     51 H20        -7.4442    1.6665    4.6123 H         1 <0>         0.1060
     52 H21        -8.3648    1.2293    3.1530 H         1 <0>         0.1030
     53 H22       -11.0011    1.3839    3.6624 H         1 <0>         0.0916
     54 H23       -10.7713   -0.3513    4.0481 H         1 <0>         0.0867
     55 H24       -12.3795    1.6093    5.4975 H         1 <0>         0.0926
     56 H25       -12.1498   -0.1259    5.8832 H         1 <0>         0.0914
     57 H26       -10.9875    1.3510    7.6707 H         1 <0>         0.4382
     58 H27        -5.6719    0.2583    3.7840 H         1 <0>         0.4243
@<TRIPOS>BOND
     1    1    6 ar
     2    1    2 ar
     3    1   32 1
     4    2    3 ar
     5    2   33 1
     6    3    4 ar
     7    3   31 1
     8    4    5 ar
     9    4   34 1
    10    5    6 ar
    11    5   35 1
    12    6    7 1
    13    7   11 1
    14    7    8 1
    15    8    9 2
    16    8   36 1
    17    9   10 1
    18    9   17 1
    19   10   15 ar
    20   10   11 ar
    21   11   12 ar
    22   12   13 ar
    23   12   37 1
    24   13   14 ar
    25   13   38 1
    26   14   15 ar
    27   14   16 1
    28   15   39 1
    29   17   22 1
    30   17   18 1
    31   17   40 1
    32   18   19 1
    33   18   41 1
    34   18   42 1
    35   19   20 1
    36   19   43 1
    37   19   44 1
    38   20   21 1
    39   20   23 1
    40   20   58 1
    41   21   22 1
    42   21   45 1
    43   21   46 1
    44   22   47 1
    45   22   48 1
    46   23   24 1
    47   23   49 1
    48   23   50 1
    49   24   25 1
    50   24   51 1
    51   24   52 1
    52   25   29 am
    53   25   26 1
    54   26   27 1
    55   26   53 1
    56   26   54 1
    57   27   28 1
    58   27   55 1
    59   27   56 1
    60   28   29 am
    61   28   57 1
    62   29   30 2
@<TRIPOS>MOLECULE
ZINC03820936
   49    53     0     0     0
SMALL
USER_CHARGES
3-(1-naphthylsulfonyl)-5-piperazin-1-yl-1H-indazole
@<TRIPOS>ATOM
      1 C1          5.9965    0.8739   -4.4161 C.ar      1 <0>        -0.1193
      2 C2          5.9834    1.3070   -3.0914 C.ar      1 <0>        -0.0775
      3 C3          5.1017    0.7890   -2.1934 C.ar      1 <0>        -0.1462
      4 C4          4.1889   -0.1974   -2.6048 C.ar      1 <0>         0.0279
      5 C5          4.2021   -0.6376   -3.9521 C.ar      1 <0>        -0.0744
      6 C6          5.1278   -0.0794   -4.8504 C.ar      1 <0>        -0.0906
      7 C7          3.2901   -1.6241   -4.3634 C.ar      1 <0>        -0.0295
      8 C8          2.4084   -2.1426   -3.4652 C.ar      1 <0>        -0.1526
      9 C9          2.3999   -1.7147   -2.1393 C.ar      1 <0>         0.0161
     10 C10         3.2644   -0.7564   -1.7065 C.ar      1 <0>        -0.6561
     11 S1          3.2291   -0.2250   -0.0269 S.o2      1 <0>         2.6121
     12 O1          4.5709   -0.2631    0.4394 O.2       1 <0>        -0.9054
     13 O2          2.1819   -0.9477    0.6058 O.2       1 <0>        -0.9223
     14 C11         2.7437    1.4688   -0.0265 C.2       1 <0>        -0.4566
     15 C12         1.3740    1.9706   -0.0686 C.ar      1 <0>        -0.0927
     16 C13         0.1165    1.3578   -0.1181 C.ar      1 <0>        -0.0593
     17 C14        -1.0196    2.1410   -0.1538 C.ar      1 <0>         0.0632
     18 C15        -0.9172    3.5326   -0.1301 C.ar      1 <0>        -0.1119
     19 C16         0.3033    4.1418   -0.0819 C.ar      1 <0>        -0.0966
     20 C17         1.4657    3.3752   -0.0504 C.ar      1 <0>         0.1150
     21 N1          2.8026    3.6824   -0.0007 N.pl3     1 <0>        -0.4783
     22 H1          3.1853    4.6060    0.0225 H         1 <0>         0.4591
     23 N2          3.5435    2.4962    0.0123 N.2       1 <0>        -0.1040
     24 N3         -2.2806    1.5366   -0.2092 N.pl3     1 <0>        -0.4821
     25 C18        -2.4696    0.6086    0.9145 C.3       1 <0>         0.0176
     26 C19        -3.8246   -0.0891    0.7741 C.3       1 <0>         0.0007
     27 C20        -4.7028    1.8487   -0.3802 C.3       1 <0>         0.0015
     28 C21        -3.3478    2.5464   -0.2398 C.3       1 <0>         0.0175
     29 H2          6.7071    1.3010   -5.1083 H         1 <0>         0.1327
     30 H3          6.6837    2.0649   -2.7726 H         1 <0>         0.1333
     31 H4          5.1031    1.1344   -1.1701 H         1 <0>         0.1392
     32 H5          5.1498   -0.4054   -5.8797 H         1 <0>         0.1358
     33 H6          3.2884   -1.9689   -5.3869 H         1 <0>         0.1407
     34 H7          1.7084   -2.9008   -3.7840 H         1 <0>         0.1397
     35 H8          1.6932   -2.1459   -1.4457 H         1 <0>         0.1478
     36 H9          0.0360    0.2809   -0.1328 H         1 <0>         0.1485
     37 H10        -1.8136    4.1344   -0.1539 H         1 <0>         0.1402
     38 H11         0.3678    5.2198   -0.0685 H         1 <0>         0.1407
     39 H12        -1.6744   -0.1368    0.9083 H         1 <0>         0.1332
     40 H13        -2.4415    1.1630    1.8526 H         1 <0>         0.0719
     41 H14        -3.9796   -0.7564    1.6218 H         1 <0>         0.1426
     42 H15        -3.8427   -0.6655   -0.1509 H         1 <0>         0.1418
     43 H16        -5.4980    2.5941   -0.3740 H         1 <0>         0.1411
     44 H17        -4.7310    1.2947   -1.3185 H         1 <0>         0.1410
     45 H18        -3.3297    3.1228    0.6851 H         1 <0>         0.0724
     46 H19        -3.1926    3.2140   -1.0874 H         1 <0>         0.1298
     47 N4         -4.8993    0.9212    0.7500 N.4       1 <0>        -0.5194
     48 H20        -4.8863    1.4509    1.6294 H         1 <0>         0.4314
     49 H21        -5.8056    0.4496    0.6479 H         1 <0>         0.4403
@<TRIPOS>BOND
     1    1    6 ar
     2    1    2 ar
     3    1   29 1
     4    2    3 ar
     5    2   30 1
     6    3    4 ar
     7    3   31 1
     8    4   10 ar
     9    4    5 ar
    10    5    6 ar
    11    5    7 ar
    12    6   32 1
    13    7    8 ar
    14    7   33 1
    15    8    9 ar
    16    8   34 1
    17    9   10 ar
    18    9   35 1
    19   10   11 1
    20   11   12 2
    21   11   13 2
    22   11   14 1
    23   14   23 2
    24   14   15 1
    25   15   20 ar
    26   15   16 ar
    27   16   17 ar
    28   16   36 1
    29   17   18 ar
    30   17   24 1
    31   18   19 ar
    32   18   37 1
    33   19   20 ar
    34   19   38 1
    35   20   21 1
    36   21   22 1
    37   21   23 1
    38   24   28 1
    39   24   25 1
    40   25   26 1
    41   25   39 1
    42   25   40 1
    43   26   41 1
    44   26   42 1
    45   26   47 1
    46   27   28 1
    47   27   43 1
    48   27   44 1
    49   27   47 1
    50   28   45 1
    51   28   46 1
    52   47   48 1
    53   47   49 1
@<TRIPOS>MOLECULE
ZINC19796084
   64    68     0     0     0
SMALL
USER_CHARGES

@<TRIPOS>ATOM
      1 C1         -0.2663   -0.3620    5.4641 C.ar      1 <0>        -0.0986
      2 C2          0.6994    0.5149    5.0004 C.ar      1 <0>        -0.1026
      3 C3          1.8638    0.0332    4.4352 C.ar      1 <0>        -0.1044
      4 C4          2.0664   -1.3346    4.3318 C.ar      1 <0>         0.0788
      5 C5          1.0924   -2.2191    4.7995 C.ar      1 <0>         0.0916
      6 C6         -0.0735   -1.7260    5.3654 C.ar      1 <0>        -0.0998
      7 N1          1.5706   -3.5059    4.5639 N.am      1 <0>        -0.6391
      8 H1          1.1107   -4.3313    4.7830 H         1 <0>         0.4399
      9 C7          2.7798   -3.4086    3.9799 C.2       1 <0>         0.6857
     10 O1          3.4724   -4.3503    3.6415 O.2       1 <0>        -0.5583
     11 N2          3.1062   -2.1115    3.8266 N.am      1 <0>        -0.5378
     12 C8          4.3442   -1.6036    3.2301 C.3       1 <0>         0.1610
     13 C9          4.4622   -2.1072    1.7886 C.3       1 <0>        -0.1674
     14 C10         5.7941   -1.6393    1.1981 C.3       1 <0>         0.0018
     15 N3          6.9027   -2.1747    1.9974 N.4       1 <0>        -0.3868
     16 C11         6.8368   -1.6390    3.3624 C.3       1 <0>        -0.0033
     17 C12         5.5451   -2.1068    4.0361 C.3       1 <0>        -0.1667
     18 C13         8.1794   -1.7878    1.3822 C.3       1 <0>        -0.0099
     19 C14         9.3321   -2.4478    2.1415 C.3       1 <0>        -0.1521
     20 C15        10.6618   -2.0449    1.5008 C.3       1 <0>        -0.1087
     21 C16        11.8145   -2.7048    2.2601 C.3       1 <0>         0.0020
     22 C17        11.7312   -4.2008    2.0984 C.ar      1 <0>        -0.0960
     23 C18        11.6406   -4.7550    0.8351 C.ar      1 <0>        -0.0887
     24 C19        11.5647   -6.1268    0.6856 C.ar      1 <0>        -0.1502
     25 C20        11.5793   -6.9462    1.8016 C.ar      1 <0>         0.1040
     26 C21        11.6701   -6.3900    3.0664 C.ar      1 <0>        -0.1491
     27 C22        11.7512   -5.0182    3.2131 C.ar      1 <0>        -0.0845
     28 F1         11.5046   -8.2873    1.6567 F         1 <0>        -0.1345
     29 C23        13.1272   -2.2122    1.7076 C.ar      1 <0>        -0.0972
     30 C24        13.3682   -2.2667    0.3474 C.ar      1 <0>        -0.0865
     31 C25        14.5714   -1.8148   -0.1604 C.ar      1 <0>        -0.1502
     32 C26        15.5358   -1.3073    0.6937 C.ar      1 <0>         0.1057
     33 C27        15.2933   -1.2531    2.0559 C.ar      1 <0>        -0.1489
     34 C28        14.0872   -1.7008    2.5608 C.ar      1 <0>        -0.0812
     35 F2         16.7126   -0.8656    0.1985 F         1 <0>        -0.1344
     36 H2         -1.1724    0.0221    5.9090 H         1 <0>         0.1403
     37 H3          0.5414    1.5802    5.0807 H         1 <0>         0.1389
     38 H4          2.6148    0.7203    4.0743 H         1 <0>         0.1287
     39 H5         -0.8291   -2.4070    5.7282 H         1 <0>         0.1370
     40 H6          4.3316   -0.5137    3.2367 H         1 <0>         0.1148
     41 H7          4.4224   -3.1964    1.7792 H         1 <0>         0.1076
     42 H8          3.6403   -1.7072    1.1949 H         1 <0>         0.1178
     43 H9          5.8813   -1.9960    0.1718 H         1 <0>         0.1377
     44 H10         5.8327   -0.5501    1.2078 H         1 <0>         0.1327
     45 H11         7.6939   -1.9955    3.9338 H         1 <0>         0.1389
     46 H12         6.8532   -0.5498    3.3259 H         1 <0>         0.1330
     47 H13         5.4972   -1.7066    5.0489 H         1 <0>         0.1174
     48 H14         5.5278   -3.1961    4.0734 H         1 <0>         0.1073
     49 H15         8.1953   -2.1141    0.3423 H         1 <0>         0.1326
     50 H16         8.2896   -0.7042    1.4247 H         1 <0>         0.1320
     51 H17         9.3162   -2.1215    3.1814 H         1 <0>         0.0898
     52 H18         9.2220   -3.5314    2.0990 H         1 <0>         0.0914
     53 H19        10.6777   -2.3712    0.4609 H         1 <0>         0.0799
     54 H20        10.7720   -0.9613    1.5433 H         1 <0>         0.0841
     55 H21        11.7465   -2.4493    3.3175 H         1 <0>         0.0944
     56 H22        11.6289   -4.1157   -0.0352 H         1 <0>         0.1319
     57 H23        11.4935   -6.5595   -0.3014 H         1 <0>         0.1380
     58 H24        11.6812   -7.0281    3.9376 H         1 <0>         0.1387
     59 H25        11.8265   -4.5844    4.1993 H         1 <0>         0.1333
     60 H26        12.6160   -2.6630   -0.3186 H         1 <0>         0.1302
     61 H27        14.7596   -1.8579   -1.2230 H         1 <0>         0.1383
     62 H28        16.0449   -0.8577    2.7231 H         1 <0>         0.1395
     63 H29        13.8961   -1.6545    3.6228 H         1 <0>         0.1335
     64 H30         6.8381   -3.1812    2.0286 H         1 <0>         0.4267
@<TRIPOS>BOND
     1    1    6 ar
     2    1    2 ar
     3    1   36 1
     4    2    3 ar
     5    2   37 1
     6    3    4 ar
     7    3   38 1
     8    4   11 1
     9    4    5 ar
    10    5    6 ar
    11    5    7 1
    12    6   39 1
    13    7    8 1
    14    7    9 am
    15    9   10 2
    16    9   11 am
    17   11   12 1
    18   12   17 1
    19   12   13 1
    20   12   40 1
    21   13   14 1
    22   13   41 1
    23   13   42 1
    24   14   15 1
    25   14   43 1
    26   14   44 1
    27   15   16 1
    28   15   18 1
    29   15   64 1
    30   16   17 1
    31   16   45 1
    32   16   46 1
    33   17   47 1
    34   17   48 1
    35   18   19 1
    36   18   49 1
    37   18   50 1
    38   19   20 1
    39   19   51 1
    40   19   52 1
    41   20   21 1
    42   20   53 1
    43   20   54 1
    44   21   22 1
    45   21   29 1
    46   21   55 1
    47   22   27 ar
    48   22   23 ar
    49   23   24 ar
    50   23   56 1
    51   24   25 ar
    52   24   57 1
    53   25   26 ar
    54   25   28 1
    55   26   27 ar
    56   26   58 1
    57   27   59 1
    58   29   34 ar
    59   29   30 ar
    60   30   31 ar
    61   30   60 1
    62   31   32 ar
    63   31   61 1
    64   32   33 ar
    65   32   35 1
    66   33   34 ar
    67   33   62 1
    68   34   63 1
@<TRIPOS>MOLECULE
ZINC01999162
   37    38     0     0     0
SMALL
USER_CHARGES
N-ethyl-N-[2-(1H-indol-3-yl)ethyl]ethanamine
@<TRIPOS>ATOM
      1 C1          1.3873    2.2514   -2.1830 C.3       1 <0>        -0.1892
      2 C2          0.2573    1.2223   -2.1140 C.3       1 <0>        -0.0094
      3 C3         -2.0225    0.9794   -1.3355 C.3       1 <0>        -0.0123
      4 C4         -2.6897    1.5534   -2.5870 C.3       1 <0>        -0.1894
      5 C5         -0.2424    1.4133    0.2474 C.3       1 <0>        -0.0050
      6 C6         -1.1788    2.0899    1.2505 C.3       1 <0>        -0.0590
      7 C7         -0.6751    1.8481    2.6501 C.2       1 <0>        -0.2040
      8 C8         -1.0728    0.8750    3.4849 C.2       1 <0>         0.0835
      9 N1         -0.3924    0.9685    4.6684 N.pl3     1 <0>        -0.5882
     10 H1         -0.5076    0.3736    5.4258 H         1 <0>         0.4231
     11 C9          0.4758    2.0363    4.6261 C.ar      1 <0>         0.0945
     12 C10         0.3369    2.6342    3.3600 C.ar      1 <0>        -0.1008
     13 C11         1.1037    3.7529    3.0300 C.ar      1 <0>        -0.0842
     14 C12         1.9868    4.2625    3.9400 C.ar      1 <0>        -0.1325
     15 C13         2.1273    3.6767    5.1904 C.ar      1 <0>        -0.0933
     16 C14         1.3805    2.5717    5.5367 C.ar      1 <0>        -0.1219
     17 H2          2.0712    1.9866   -2.9894 H         1 <0>         0.1051
     18 H3          0.9679    3.2395   -2.3721 H         1 <0>         0.0794
     19 H4          1.9280    2.2613   -1.2366 H         1 <0>         0.0802
     20 H5          0.6656    0.2528   -1.8286 H         1 <0>         0.1296
     21 H6         -0.2211    1.1420   -3.0901 H         1 <0>         0.1288
     22 H7         -1.8584   -0.0899   -1.4692 H         1 <0>         0.1297
     23 H8         -2.6678    1.1428   -0.4723 H         1 <0>         0.1303
     24 H9         -2.8672    2.6198   -2.4474 H         1 <0>         0.0803
     25 H10        -2.0379    1.4032   -3.4476 H         1 <0>         0.0788
     26 H11        -3.6393    1.0463   -2.7575 H         1 <0>         0.1054
     27 H12        -0.2137    0.3414    0.4431 H         1 <0>         0.1298
     28 H13         0.7603    1.8282    0.3495 H         1 <0>         0.1294
     29 H14        -1.2076    3.1618    1.0549 H         1 <0>         0.0903
     30 H15        -2.1816    1.6750    1.1485 H         1 <0>         0.0898
     31 H16        -1.8181    0.1277    3.2556 H         1 <0>         0.1725
     32 H17         0.9995    4.2142    2.0590 H         1 <0>         0.1177
     33 H18         2.5803    5.1278    3.6841 H         1 <0>         0.1271
     34 H19         2.8292    4.0909    5.8989 H         1 <0>         0.1316
     35 H20         1.4975    2.1227    6.5119 H         1 <0>         0.1255
     36 N2         -0.7375    1.6773   -1.1200 N.4       1 <0>        -0.3980
     37 H21        -0.8836    2.6873   -1.2326 H         1 <0>         0.4249
@<TRIPOS>BOND
     1    1    2 1
     2    1   17 1
     3    1   18 1
     4    1   19 1
     5    2   20 1
     6    2   21 1
     7    2   36 1
     8    3    4 1
     9    3   22 1
    10    3   23 1
    11    3   36 1
    12    4   24 1
    13    4   25 1
    14    4   26 1
    15    5    6 1
    16    5   27 1
    17    5   28 1
    18    5   36 1
    19    6    7 1
    20    6   29 1
    21    6   30 1
    22    7   12 1
    23    7    8 2
    24    8    9 1
    25    8   31 1
    26    9   10 1
    27    9   11 1
    28   11   16 ar
    29   11   12 ar
    30   12   13 ar
    31   13   14 ar
    32   13   32 1
    33   14   15 ar
    34   14   33 1
    35   15   16 ar
    36   15   34 1
    37   16   35 1
    38   36   37 1
@<TRIPOS>MOLECULE
ZINC01384090
   33    35     0     0     0
SMALL
USER_CHARGES

@<TRIPOS>ATOM
      1 C1         -0.0184    1.5028    0.0103 C.3       1 <0>        -0.1161
      2 C2          0.0021   -0.0041    0.0020 C.2       1 <0>         0.2366
      3 C3         -1.2046   -0.7188    0.0038 C.2       1 <0>        -0.2272
      4 C4         -1.1766   -2.0737   -0.0041 C.2       1 <0>         0.2066
      5 N1          0.0295   -2.7133   -0.0137 N.pl3     1 <0>        -0.3075
      6 C5          1.1892   -1.9810   -0.0152 C.2       1 <0>         0.3783
      7 N2          1.1487   -0.6418   -0.0124 N.2       1 <0>        -0.4798
      8 C6          2.2396   -2.8892   -0.0257 C.2       1 <0>        -0.8067
      9 C7          1.6934   -4.1637   -0.0303 C.2       1 <0>         0.1857
     10 N3          0.3829   -4.0673   -0.0233 N.2       1 <0>        -0.3057
     11 S1          3.9566   -2.4934   -0.0327 S.o2      1 <0>         2.6236
     12 O1          4.1567   -1.5347    0.9968 O.2       1 <0>        -0.9315
     13 O2          4.6580   -3.7287   -0.0701 O.2       1 <0>        -0.9425
     14 C8          4.2964   -1.6752   -1.5558 C.ar      1 <0>        -0.6567
     15 C9          4.6651   -2.4093   -2.6675 C.ar      1 <0>        -0.0224
     16 C10         4.9317   -1.7673   -3.8624 C.ar      1 <0>        -0.1437
     17 C11         4.8291   -0.3913   -3.9456 C.ar      1 <0>        -0.0651
     18 C12         4.4594    0.3427   -2.8341 C.ar      1 <0>        -0.1434
     19 C13         4.1887   -0.2996   -1.6404 C.ar      1 <0>        -0.0103
     20 C14        -2.4599   -2.8639   -0.0018 C.3       1 <0>        -0.1205
     21 H1          1.0042    1.8801    0.0026 H         1 <0>         0.0918
     22 H2         -0.5455    1.8639   -0.8728 H         1 <0>         0.0959
     23 H3         -0.5286    1.8543    0.9071 H         1 <0>         0.0973
     24 H4         -2.1484   -0.1937    0.0119 H         1 <0>         0.1757
     25 H5          2.2545   -5.0865   -0.0384 H         1 <0>         0.2163
     26 H6          4.7453   -3.4843   -2.6025 H         1 <0>         0.1414
     27 H7          5.2205   -2.3408   -4.7308 H         1 <0>         0.1328
     28 H8          5.0380    0.1103   -4.8790 H         1 <0>         0.1302
     29 H9          4.3796    1.4178   -2.8991 H         1 <0>         0.1326
     30 H10         3.8963    0.2735   -0.7730 H         1 <0>         0.1448
     31 H11        -3.3081   -2.1793    0.0066 H         1 <0>         0.0994
     32 H12        -2.5046   -3.4868   -0.8952 H         1 <0>         0.0948
     33 H13        -2.4951   -3.4970    0.8847 H         1 <0>         0.0954
@<TRIPOS>BOND
     1    1    2 1
     2    1   21 1
     3    1   22 1
     4    1   23 1
     5    2    7 2
     6    2    3 1
     7    3    4 2
     8    3   24 1
     9    4    5 1
    10    4   20 1
    11    5   10 1
    12    5    6 1
    13    6    7 1
    14    6    8 2
    15    8    9 1
    16    8   11 1
    17    9   10 2
    18    9   25 1
    19   11   12 2
    20   11   13 2
    21   11   14 1
    22   14   19 ar
    23   14   15 ar
    24   15   16 ar
    25   15   26 1
    26   16   17 ar
    27   16   27 1
    28   17   18 ar
    29   17   28 1
    30   18   19 ar
    31   18   29 1
    32   19   30 1
    33   20   31 1
    34   20   32 1
    35   20   33 1
@<TRIPOS>MOLECULE
ZINC00579013
   50    53     0     0     0
SMALL
USER_CHARGES
5-methyl-N,N-bis[5-methyl-6-(trifluoromethyl)indolin-7a-yl]-6-(trifluoromethyl)indoline-1-carboxamide
@<TRIPOS>ATOM
      1 C1         -1.2442   -0.8128    0.0795 C.3       1 <0>        -0.1335
      2 C2          0.0455   -0.0333    0.0659 C.ar      1 <0>        -0.0509
      3 C3          1.2576   -0.6987    0.0674 C.ar      1 <0>        -0.0798
      4 C4          2.4406    0.0146    0.0550 C.ar      1 <0>        -0.1007
      5 C5          2.4256    1.4004    0.0405 C.ar      1 <0>         0.1546
      6 C6          1.1981    2.0649    0.0386 C.ar      1 <0>        -0.0806
      7 C7          0.0198    1.3489    0.0515 C.ar      1 <0>        -0.1596
      8 C8         -1.3005    2.0754    0.0435 C.3       1 <0>         0.5116
      9 F1         -1.0732    3.4557    0.0291 F         1 <0>        -0.1730
     10 F2         -2.0266    1.7105   -1.0953 F         1 <0>        -0.1736
     11 F3         -2.0274    1.7343    1.1891 F         1 <0>        -0.1734
     12 N1          3.7201    1.9294    0.0296 N.am      1 <0>        -0.5620
     13 C9          4.7058    0.8451    0.0369 C.3       1 <0>         0.0930
     14 C10         3.8792   -0.4511    0.0540 C.3       1 <0>        -0.0865
     15 C11         4.0175    3.2438    0.0149 C.2       1 <0>         0.7179
     16 O1          3.1246    4.0692    0.0103 O.2       1 <0>        -0.5492
     17 N2          5.3047    3.6434    0.0053 N.am      1 <0>        -0.6693
     18 C12         5.6146    5.0059   -0.1041 C.ar      1 <0>         0.0769
     19 C13         4.7972    5.9656    0.4902 C.ar      1 <0>        -0.0387
     20 C14         5.1419    7.2985    0.3562 C.ar      1 <0>        -0.1599
     21 C15         6.2833    7.6342   -0.3610 C.ar      1 <0>         0.3006
     22 N3          7.0362    6.6972   -0.9119 N.ar      1 <0>        -0.5079
     23 C16         6.7417    5.4159   -0.8001 C.ar      1 <0>         0.1228
     24 O2          6.6299    8.9395   -0.4975 O.3       1 <0>        -0.2398
     25 C17         7.6911    9.2381   -1.2923 C.ar      1 <0>         0.0436
     26 C18         8.9410    9.4911   -0.7352 C.ar      1 <0>        -0.0682
     27 C19         9.9933    9.7870   -1.5862 C.ar      1 <0>        -0.1668
     28 C20         9.7672    9.8303   -2.9495 C.ar      1 <0>         0.1077
     29 N4          8.5691    9.5904   -3.4450 N.ar      1 <0>        -0.4716
     30 C21         7.5425    9.3006   -2.6702 C.ar      1 <0>         0.1375
     31 C22         6.1937    9.0352   -3.2876 C.3       1 <0>        -0.1037
     32 H1         -1.5594   -1.0116   -0.9449 H         1 <0>         0.0828
     33 H2         -1.0926   -1.7570    0.6026 H         1 <0>         0.0791
     34 H3         -2.0134   -0.2337    0.5904 H         1 <0>         0.0764
     35 H4          1.2795   -1.7784    0.0787 H         1 <0>         0.1408
     36 H5          1.1711    3.1445    0.0271 H         1 <0>         0.1578
     37 H6          5.3298    0.9074    0.9284 H         1 <0>         0.0882
     38 H7          5.3236    0.8877   -0.8600 H         1 <0>         0.0889
     39 H8          4.0932   -1.0266    0.9546 H         1 <0>         0.1009
     40 H9          4.0852   -1.0472   -0.8350 H         1 <0>         0.1010
     41 H10         6.0165    2.9881    0.0741 H         1 <0>         0.4117
     42 H11         3.9156    5.6755    1.0425 H         1 <0>         0.1612
     43 H12         4.5314    8.0687    0.8040 H         1 <0>         0.1509
     44 H13         7.3832    4.6785   -1.2595 H         1 <0>         0.1627
     45 H14         9.0878    9.4542    0.3341 H         1 <0>         0.1405
     46 H15        10.9779    9.9853   -1.1892 H         1 <0>         0.1427
     47 H16        10.5829   10.0642   -3.6176 H         1 <0>         0.1626
     48 H17         5.6398    9.9706   -3.3665 H         1 <0>         0.0842
     49 H18         6.3268    8.6070   -4.2811 H         1 <0>         0.0815
     50 H19         5.6389    8.3360   -2.6619 H         1 <0>         0.0684
@<TRIPOS>BOND
     1    1    2 1
     2    1   32 1
     3    1   33 1
     4    1   34 1
     5    2    7 ar
     6    2    3 ar
     7    3    4 ar
     8    3   35 1
     9    4   14 1
    10    4    5 ar
    11    5    6 ar
    12    5   12 1
    13    6    7 ar
    14    6   36 1
    15    7    8 1
    16    8    9 1
    17    8   10 1
    18    8   11 1
    19   12   13 1
    20   12   15 am
    21   13   14 1
    22   13   37 1
    23   13   38 1
    24   14   39 1
    25   14   40 1
    26   15   16 2
    27   15   17 am
    28   17   18 1
    29   17   41 1
    30   18   23 ar
    31   18   19 ar
    32   19   20 ar
    33   19   42 1
    34   20   21 ar
    35   20   43 1
    36   21   22 ar
    37   21   24 1
    38   22   23 ar
    39   23   44 1
    40   24   25 1
    41   25   30 ar
    42   25   26 ar
    43   26   27 ar
    44   26   45 1
    45   27   28 ar
    46   27   46 1
    47   28   29 ar
    48   28   47 1
    49   29   30 ar
    50   30   31 1
    51   31   48 1
    52   31   49 1
    53   31   50 1
@<TRIPOS>MOLECULE
ZINC29130869
   21    22     0     0     0
SMALL
USER_CHARGES

@<TRIPOS>ATOM
      1 C1         -0.0168    1.3851    0.0097 C.ar      1 <0>        -0.1114
      2 C2          1.1695    2.0923    0.0021 C.ar      1 <0>        -0.0557
      3 C3          2.3765    1.4166   -0.0142 C.ar      1 <0>        -0.0325
      4 C4          2.3977    0.0325   -0.0291 C.ar      1 <0>         0.0004
      5 C5          1.2119   -0.6819   -0.0241 C.ar      1 <0>        -0.1257
      6 C6          0.0021   -0.0041    0.0020 C.ar      1 <0>         0.1557
      7 N1         -1.2115   -0.7080    0.0366 N.pl3     1 <0>        -0.6439
      8 C7         -1.1703   -2.0782   -0.1764 C.cat     1 <0>         0.7629
      9 N2         -0.0513   -2.7297    0.3259 N.pl3     1 <0>        -0.7367
     10 C8          1.2613   -2.1888   -0.0559 C.3       1 <0>         0.1619
     11 N3         -2.1192   -2.7123   -0.8059 N.pl3     1 <0>        -0.7135
     12 Cl1         3.9156   -0.8096   -0.0547 Cl        1 <0>        -0.0101
     13 Cl2         3.8674    2.3060   -0.0167 Cl        1 <0>        -0.0128
     14 H1         -0.9593    1.9121    0.0260 H         1 <0>         0.1571
     15 H2          1.1549    3.1722    0.0086 H         1 <0>         0.1643
     16 H3         -2.0510   -0.2519    0.2042 H         1 <0>         0.4492
     17 H4          1.5138   -2.5230   -1.0622 H         1 <0>         0.1084
     18 H5          2.0175   -2.5425    0.6450 H         1 <0>         0.1321
     19 H6         -2.8871   -2.2251   -1.1432 H         1 <0>         0.4475
     20 H7         -0.1322   -3.5063    0.9014 H         1 <0>         0.4498
     21 H8         -2.0575   -3.6714   -0.9369 H         1 <0>         0.4529
@<TRIPOS>BOND
     1    1    6 ar
     2    1    2 ar
     3    1   14 1
     4    2    3 ar
     5    2   15 1
     6    3    4 ar
     7    3   13 1
     8    4    5 ar
     9    4   12 1
    10    5   10 1
    11    5    6 ar
    12    6    7 1
    13    7    8 1
    14    7   16 1
    15    8    9 1
    16    8   11 2
    17    9   10 1
    18    9   20 1
    19   10   17 1
    20   10   18 1
    21   11   19 1
    22   11   21 1
@<TRIPOS>MOLECULE
ZINC34451922
   61    65     0     0     0
SMALL
USER_CHARGES

@<TRIPOS>ATOM
      1 C1         -0.0312    1.4376    0.0625 C.3       1 <0>        -0.1149
      2 C2         -0.0229   -0.0693    0.0447 C.ar      1 <0>         0.1665
      3 C3         -0.0155   -0.7327   -1.1794 C.ar      1 <0>        -0.1630
      4 C4         -0.0074   -2.0992   -1.2143 C.ar      1 <0>        -0.0625
      5 C5         -0.0068   -2.7940    0.0070 C.ar      1 <0>        -0.1089
      6 C6         -0.0145   -2.0581    1.2176 C.ar      1 <0>         0.1381
      7 N1         -0.0173   -0.7211    1.1825 N.ar      1 <0>        -0.4673
      8 C7         -0.0139   -2.7495    2.4406 C.ar      1 <0>        -0.0799
      9 C8         -0.0055   -4.1115    2.4546 C.ar      1 <0>        -0.0967
     10 C9          0.0026   -4.8435    1.2722 C.ar      1 <0>        -0.1038
     11 C10         0.0018   -4.2041    0.0495 C.ar      1 <0>         0.1607
     12 N2          0.0100   -4.9428   -1.1301 N.pl3     1 <0>        -0.6732
     13 C11         1.2761   -5.3417   -1.7641 C.3       1 <0>         0.1189
     14 C12         1.2238   -4.9473   -3.2438 C.3       1 <0>        -0.0255
     15 N3          0.0263   -5.5297   -3.8626 N.4       1 <0>        -0.3804
     16 C13        -1.1805   -4.9526   -3.2570 C.3       1 <0>        -0.0322
     17 C14        -1.2473   -5.3521   -1.7749 C.3       1 <0>         0.1198
     18 C15         0.0336   -5.2439   -5.3035 C.3       1 <0>        -0.0072
     19 C16        -1.1461   -5.9543   -5.9703 C.3       1 <0>        -0.0971
     20 C17        -1.1386   -5.6610   -7.4485 C.ar      1 <0>        -0.0776
     21 C18        -1.8170   -4.5596   -7.9377 C.ar      1 <0>        -0.1386
     22 C19        -1.8126   -4.2871   -9.2931 C.ar      1 <0>        -0.0804
     23 C20        -1.1300   -5.1148  -10.1632 C.ar      1 <0>        -0.1434
     24 C21        -0.4479   -6.2214   -9.6753 C.ar      1 <0>         0.2020
     25 C22        -0.4497   -6.4892   -8.3125 C.ar      1 <0>        -0.1555
     26 N4          0.2445   -7.0619  -10.5542 N.am      1 <0>        -0.5742
     27 C23         1.0949   -8.1943  -10.1579 C.3       1 <0>         0.0857
     28 C24         1.6017   -8.7621  -11.4979 C.3       1 <0>         0.0889
     29 N5          0.9830   -7.8894  -12.5069 N.am      1 <0>        -0.7318
     30 C25         0.2334   -6.9663  -11.8902 C.2       1 <0>         0.6994
     31 O1         -0.3969   -6.1161  -12.4888 O.2       1 <0>        -0.5594
     32 H1          0.9944    1.8066    0.0650 H         1 <0>         0.0861
     33 H2         -0.5487    1.8085   -0.8223 H         1 <0>         0.0802
     34 H3         -0.5455    1.7876    0.9576 H         1 <0>         0.0841
     35 H4         -0.0165   -0.1684   -2.1002 H         1 <0>         0.1388
     36 H5         -0.0019   -2.6302   -2.1547 H         1 <0>         0.1232
     37 H6         -0.0198   -2.2006    3.3707 H         1 <0>         0.1418
     38 H7         -0.0048   -4.6322    3.4007 H         1 <0>         0.1381
     39 H8          0.0096   -5.9228    1.3114 H         1 <0>         0.1308
     40 H9          2.1065   -4.8299   -1.2777 H         1 <0>         0.1163
     41 H10         1.4054   -6.4205   -1.6769 H         1 <0>         0.0826
     42 H11         1.1855   -3.8614   -3.3293 H         1 <0>         0.1284
     43 H12         2.1133   -5.3208   -3.7511 H         1 <0>         0.1390
     44 H13        -1.1461   -3.8665   -3.3421 H         1 <0>         0.1294
     45 H14        -2.0627   -5.3301   -3.7741 H         1 <0>         0.1406
     46 H15        -1.3685   -6.4320   -1.6889 H         1 <0>         0.0832
     47 H16        -2.0861   -4.8472   -1.2958 H         1 <0>         0.1162
     48 H17        -0.0535   -4.1688   -5.4611 H         1 <0>         0.1311
     49 H18         0.9665   -5.6007   -5.7400 H         1 <0>         0.1329
     50 H19        -1.0590   -7.0293   -5.8127 H         1 <0>         0.0951
     51 H20        -2.0789   -5.5974   -5.5338 H         1 <0>         0.0966
     52 H21        -2.3517   -3.9111   -7.2594 H         1 <0>         0.1244
     53 H22        -2.3436   -3.4264   -9.6721 H         1 <0>         0.1341
     54 H23        -1.1272   -4.9017  -11.2220 H         1 <0>         0.1632
     55 H24         0.0839   -7.3464   -7.9293 H         1 <0>         0.1261
     56 H25         1.9301   -7.8505   -9.5478 H         1 <0>         0.0916
     57 H26         0.5107   -8.9423   -9.6219 H         1 <0>         0.0922
     58 H27         2.6885   -8.7002  -11.5531 H         1 <0>         0.0930
     59 H28         1.2691   -9.7921  -11.6273 H         1 <0>         0.0930
     60 H29         1.0964   -7.9716  -13.4667 H         1 <0>         0.4388
     61 H30         0.0277   -6.5286   -3.7203 H         1 <0>         0.4226
@<TRIPOS>BOND
     1    1    2 1
     2    1   32 1
     3    1   33 1
     4    1   34 1
     5    2    7 ar
     6    2    3 ar
     7    3    4 ar
     8    3   35 1
     9    4    5 ar
    10    4   36 1
    11    5   11 ar
    12    5    6 ar
    13    6    7 ar
    14    6    8 ar
    15    8    9 ar
    16    8   37 1
    17    9   10 ar
    18    9   38 1
    19   10   11 ar
    20   10   39 1
    21   11   12 1
    22   12   17 1
    23   12   13 1
    24   13   14 1
    25   13   40 1
    26   13   41 1
    27   14   15 1
    28   14   42 1
    29   14   43 1
    30   15   16 1
    31   15   18 1
    32   15   61 1
    33   16   17 1
    34   16   44 1
    35   16   45 1
    36   17   46 1
    37   17   47 1
    38   18   19 1
    39   18   48 1
    40   18   49 1
    41   19   20 1
    42   19   50 1
    43   19   51 1
    44   20   25 ar
    45   20   21 ar
    46   21   22 ar
    47   21   52 1
    48   22   23 ar
    49   22   53 1
    50   23   24 ar
    51   23   54 1
    52   24   25 ar
    53   24   26 1
    54   25   55 1
    55   26   30 am
    56   26   27 1
    57   27   28 1
    58   27   56 1
    59   27   57 1
    60   28   29 1
    61   28   58 1
    62   28   59 1
    63   29   30 am
    64   29   60 1
    65   30   31 2
@<TRIPOS>MOLECULE
ZINC34451922
   60    64     0     0     0
SMALL
USER_CHARGES

@<TRIPOS>ATOM
      1 C1         -0.0321    1.4340    0.0669 C.3       1 <0>        -0.1087
      2 C2         -0.0231   -0.0728    0.0484 C.ar      1 <0>         0.1614
      3 C3         -0.0155   -0.7357   -1.1761 C.ar      1 <0>        -0.1790
      4 C4         -0.0069   -2.1021   -1.2116 C.ar      1 <0>        -0.0439
      5 C5         -0.0060   -2.7975    0.0093 C.ar      1 <0>        -0.1162
      6 C6         -0.0140   -2.0623    1.2203 C.ar      1 <0>         0.1383
      7 N1         -0.0173   -0.7252    1.1858 N.ar      1 <0>        -0.4780
      8 C7         -0.0131   -2.7542    2.4430 C.ar      1 <0>        -0.1017
      9 C8         -0.0042   -4.1162    2.4563 C.ar      1 <0>        -0.0895
     10 C9          0.0042   -4.8477    1.2736 C.ar      1 <0>        -0.1280
     11 C10         0.0032   -4.2076    0.0512 C.ar      1 <0>         0.1972
     12 N2          0.0115   -4.9458   -1.1288 N.pl3     1 <0>        -0.6786
     13 C11         1.2784   -5.3431   -1.7618 C.3       1 <0>         0.1496
     14 C12         1.2359   -4.9304   -3.2369 C.3       1 <0>         0.0396
     15 N3          0.0281   -5.4851   -3.8627 N.3       1 <0>        -0.5337
     16 C13        -1.1893   -4.9364   -3.2504 C.3       1 <0>         0.0347
     17 C14        -1.2462   -5.3545   -1.7725 C.3       1 <0>         0.1493
     18 C15         0.0356   -5.2584   -5.3140 C.3       1 <0>         0.0625
     19 C16        -1.0979   -6.0570   -5.9608 C.3       1 <0>        -0.0749
     20 C17        -1.0902   -5.8244   -7.4498 C.ar      1 <0>        -0.0542
     21 C18        -1.8204   -4.7814   -7.9898 C.ar      1 <0>        -0.1431
     22 C19        -1.8159   -4.5647   -9.3553 C.ar      1 <0>        -0.0866
     23 C20        -1.0816   -5.3899  -10.1846 C.ar      1 <0>        -0.1581
     24 C21        -0.3474   -6.4379   -9.6456 C.ar      1 <0>         0.1910
     25 C22        -0.3495   -6.6495   -8.2729 C.ar      1 <0>        -0.1551
     26 N4          0.3976   -7.2758  -10.4831 N.am      1 <0>        -0.5709
     27 C23         1.3021   -8.3444  -10.0332 C.3       1 <0>         0.0845
     28 C24         1.8522   -8.9388  -11.3442 C.3       1 <0>         0.0912
     29 N5          1.1993   -8.1420  -12.3936 N.am      1 <0>        -0.7361
     30 C25         0.3956   -7.2356  -11.8220 C.2       1 <0>         0.6995
     31 O1         -0.2721   -6.4452  -12.4605 O.2       1 <0>        -0.5652
     32 H1          0.9934    1.8035    0.0696 H         1 <0>         0.0813
     33 H2         -0.5496    1.8052   -0.8177 H         1 <0>         0.0768
     34 H3         -0.5465    1.7834    0.9621 H         1 <0>         0.0795
     35 H4         -0.0168   -0.1709   -2.0966 H         1 <0>         0.1342
     36 H5         -0.0012   -2.6326   -2.1523 H         1 <0>         0.1348
     37 H6         -0.0192   -2.2057    3.3733 H         1 <0>         0.1347
     38 H7         -0.0032   -4.6373    3.4022 H         1 <0>         0.1312
     39 H8          0.0116   -5.9269    1.3122 H         1 <0>         0.1282
     40 H9          2.1089   -4.8415   -1.2650 H         1 <0>         0.0717
     41 H10         1.4019   -6.4235   -1.6872 H         1 <0>         0.0627
     42 H11         1.2167   -3.8430   -3.3100 H         1 <0>         0.0346
     43 H12         2.1191   -5.3142   -3.7476 H         1 <0>         0.0822
     44 H13        -1.1747   -3.8489   -3.3233 H         1 <0>         0.0351
     45 H14        -2.0649   -5.3244   -3.7708 H         1 <0>         0.0854
     46 H15        -1.3606   -6.4360   -1.6990 H         1 <0>         0.0631
     47 H16        -2.0854   -4.8605   -1.2829 H         1 <0>         0.0716
     48 H17        -0.1062   -4.1968   -5.5167 H         1 <0>         0.0355
     49 H18         0.9905   -5.5828   -5.7275 H         1 <0>         0.0763
     50 H19        -0.9561   -7.1185   -5.7582 H         1 <0>         0.0819
     51 H20        -2.0528   -5.7326   -5.5474 H         1 <0>         0.0744
     52 H21        -2.3957   -4.1350   -7.3435 H         1 <0>         0.1206
     53 H22        -2.3875   -3.7496   -9.7740 H         1 <0>         0.1267
     54 H23        -1.0788   -5.2204  -11.2512 H         1 <0>         0.1568
     55 H24         0.2243   -7.4609   -7.8501 H         1 <0>         0.1245
     56 H25         2.1115   -7.9321   -9.4307 H         1 <0>         0.0924
     57 H26         0.7524   -9.0998   -9.4716 H         1 <0>         0.0923
     58 H27         2.9348   -8.8217  -11.3927 H         1 <0>         0.0897
     59 H28         1.5757   -9.9893  -11.4336 H         1 <0>         0.0895
     60 H29         1.3270   -8.2573  -13.3482 H         1 <0>         0.4348
@<TRIPOS>BOND
     1    1    2 1
     2    1   32 1
     3    1   33 1
     4    1   34 1
     5    2    7 ar
     6    2    3 ar
     7    3    4 ar
     8    3   35 1
     9    4    5 ar
    10    4   36 1
    11    5   11 ar
    12    5    6 ar
    13    6    7 ar
    14    6    8 ar
    15    8    9 ar
    16    8   37 1
    17    9   10 ar
    18    9   38 1
    19   10   11 ar
    20   10   39 1
    21   11   12 1
    22   12   17 1
    23   12   13 1
    24   13   14 1
    25   13   40 1
    26   13   41 1
    27   14   15 1
    28   14   42 1
    29   14   43 1
    30   15   16 1
    31   15   18 1
    32   16   17 1
    33   16   44 1
    34   16   45 1
    35   17   46 1
    36   17   47 1
    37   18   19 1
    38   18   48 1
    39   18   49 1
    40   19   20 1
    41   19   50 1
    42   19   51 1
    43   20   25 ar
    44   20   21 ar
    45   21   22 ar
    46   21   52 1
    47   22   23 ar
    48   22   53 1
    49   23   24 ar
    50   23   54 1
    51   24   25 ar
    52   24   26 1
    53   25   55 1
    54   26   30 am
    55   26   27 1
    56   27   28 1
    57   27   56 1
    58   27   57 1
    59   28   29 1
    60   28   58 1
    61   28   59 1
    62   29   30 am
    63   29   60 1
    64   30   31 2
@<TRIPOS>MOLECULE
ZINC34451922
   62    66     0     0     0
SMALL
USER_CHARGES

@<TRIPOS>ATOM
      1 C1         -0.0312    1.4376    0.0625 C.3       1 <0>        -0.1610
      2 C2         -0.0229   -0.0693    0.0447 C.ar      1 <0>         0.2542
      3 C3         -0.0155   -0.7327   -1.1794 C.ar      1 <0>        -0.1670
      4 C4         -0.0074   -2.0992   -1.2143 C.ar      1 <0>         0.0386
      5 C5         -0.0068   -2.7940    0.0070 C.ar      1 <0>        -0.0964
      6 C6         -0.0145   -2.0581    1.2176 C.ar      1 <0>         0.1451
      7 N1         -0.0173   -0.7211    1.1825 N.ar      1 <0>        -0.4584
      8 C7         -0.0139   -2.7495    2.4406 C.ar      1 <0>        -0.1305
      9 C8         -0.0055   -4.1115    2.4546 C.ar      1 <0>        -0.0263
     10 C9          0.0026   -4.8435    1.2722 C.ar      1 <0>        -0.0895
     11 C10         0.0018   -4.2041    0.0495 C.ar      1 <0>         0.2051
     12 N2          0.0100   -4.9428   -1.1301 N.pl3     1 <0>        -0.6830
     13 C11         1.2761   -5.3417   -1.7641 C.3       1 <0>         0.1133
     14 C12         1.2238   -4.9473   -3.2438 C.3       1 <0>        -0.0251
     15 N3          0.0263   -5.5297   -3.8626 N.4       1 <0>        -0.3836
     16 C13        -1.1805   -4.9526   -3.2570 C.3       1 <0>        -0.0322
     17 C14        -1.2473   -5.3521   -1.7749 C.3       1 <0>         0.1142
     18 C15         0.0336   -5.2439   -5.3035 C.3       1 <0>        -0.0083
     19 C16        -1.1461   -5.9543   -5.9703 C.3       1 <0>        -0.0958
     20 C17        -1.1386   -5.6610   -7.4485 C.ar      1 <0>        -0.0824
     21 C18        -1.8170   -4.5596   -7.9377 C.ar      1 <0>        -0.1409
     22 C19        -1.8126   -4.2871   -9.2931 C.ar      1 <0>        -0.0796
     23 C20        -1.1300   -5.1148  -10.1632 C.ar      1 <0>        -0.1415
     24 C21        -0.4479   -6.2214   -9.6753 C.ar      1 <0>         0.2063
     25 C22        -0.4497   -6.4892   -8.3125 C.ar      1 <0>        -0.1564
     26 N4          0.2445   -7.0619  -10.5542 N.am      1 <0>        -0.5752
     27 C23         1.0949   -8.1943  -10.1579 C.3       1 <0>         0.0862
     28 C24         1.6017   -8.7621  -11.4979 C.3       1 <0>         0.0880
     29 N5          0.9830   -7.8894  -12.5069 N.am      1 <0>        -0.7302
     30 C25         0.2334   -6.9663  -11.8902 C.2       1 <0>         0.6992
     31 O1         -0.3969   -6.1161  -12.4888 O.2       1 <0>        -0.5578
     32 H1          0.9944    1.8066    0.0650 H         1 <0>         0.1292
     33 H2         -0.5487    1.8085   -0.8223 H         1 <0>         0.1262
     34 H3         -0.5455    1.7876    0.9576 H         1 <0>         0.1073
     35 H4         -0.0165   -0.1684   -2.1002 H         1 <0>         0.1869
     36 H5         -0.0019   -2.6302   -2.1547 H         1 <0>         0.1595
     37 H6         -0.0198   -2.2006    3.3707 H         1 <0>         0.1627
     38 H7         -0.0048   -4.6322    3.4007 H         1 <0>         0.1641
     39 H8          0.0096   -5.9228    1.3114 H         1 <0>         0.1565
     40 H9          2.1065   -4.8299   -1.2777 H         1 <0>         0.1196
     41 H10         1.4054   -6.4205   -1.6769 H         1 <0>         0.0952
     42 H11         1.1855   -3.8614   -3.3293 H         1 <0>         0.1261
     43 H12         2.1133   -5.3208   -3.7511 H         1 <0>         0.1471
     44 H13        -1.1461   -3.8665   -3.3421 H         1 <0>         0.1272
     45 H14        -2.0627   -5.3301   -3.7741 H         1 <0>         0.1488
     46 H15        -1.3685   -6.4320   -1.6889 H         1 <0>         0.0958
     47 H16        -2.0861   -4.8472   -1.2958 H         1 <0>         0.1195
     48 H17        -0.0535   -4.1688   -5.4611 H         1 <0>         0.1321
     49 H18         0.9665   -5.6007   -5.7400 H         1 <0>         0.1368
     50 H19        -1.0590   -7.0293   -5.8127 H         1 <0>         0.0966
     51 H20        -2.0789   -5.5974   -5.5338 H         1 <0>         0.0955
     52 H21        -2.3517   -3.9111   -7.2594 H         1 <0>         0.1224
     53 H22        -2.3436   -3.4264   -9.6721 H         1 <0>         0.1347
     54 H23        -1.1272   -4.9017  -11.2220 H         1 <0>         0.1647
     55 H24         0.0839   -7.3464   -7.9293 H         1 <0>         0.1263
     56 H25         1.9301   -7.8505   -9.5478 H         1 <0>         0.0912
     57 H26         0.5107   -8.9423   -9.6219 H         1 <0>         0.0923
     58 H27         2.6885   -8.7002  -11.5531 H         1 <0>         0.0940
     59 H28         1.2691   -9.7921  -11.6273 H         1 <0>         0.0943
     60 H29         1.0964   -7.9716  -13.4667 H         1 <0>         0.4403
     61 H30         0.0277   -6.5286   -3.7203 H         1 <0>         0.4274
     62 H31        -0.0190   -0.2237    2.0152 H         1 <0>         0.4506
@<TRIPOS>BOND
     1    1    2 1
     2    1   32 1
     3    1   33 1
     4    1   34 1
     5    2    7 ar
     6    2    3 ar
     7    3    4 ar
     8    3   35 1
     9    4    5 ar
    10    4   36 1
    11    5   11 ar
    12    5    6 ar
    13    6    7 ar
    14    6    8 ar
    15    7   62 1
    16    8    9 ar
    17    8   37 1
    18    9   10 ar
    19    9   38 1
    20   10   11 ar
    21   10   39 1
    22   11   12 1
    23   12   17 1
    24   12   13 1
    25   13   14 1
    26   13   40 1
    27   13   41 1
    28   14   15 1
    29   14   42 1
    30   14   43 1
    31   15   16 1
    32   15   18 1
    33   15   61 1
    34   16   17 1
    35   16   44 1
    36   16   45 1
    37   17   46 1
    38   17   47 1
    39   18   19 1
    40   18   48 1
    41   18   49 1
    42   19   20 1
    43   19   50 1
    44   19   51 1
    45   20   25 ar
    46   20   21 ar
    47   21   22 ar
    48   21   52 1
    49   22   23 ar
    50   22   53 1
    51   23   24 ar
    52   23   54 1
    53   24   25 ar
    54   24   26 1
    55   25   55 1
    56   26   30 am
    57   26   27 1
    58   27   28 1
    59   27   56 1
    60   27   57 1
    61   28   29 1
    62   28   58 1
    63   28   59 1
    64   29   30 am
    65   29   60 1
    66   30   31 2
@<TRIPOS>MOLECULE
ZINC66074133
   37    39     0     0     0
SMALL
USER_CHARGES

@<TRIPOS>ATOM
      1 C1         -0.0184    1.5028    0.0103 C.3       1 <0>        -0.1163
      2 C2          0.0021   -0.0041    0.0020 C.2       1 <0>         0.2348
      3 C3         -1.2039   -0.7185    0.0038 C.2       1 <0>        -0.2263
      4 C4         -1.1759   -2.0742   -0.0041 C.2       1 <0>         0.2044
      5 N1          0.0288   -2.7140   -0.0137 N.pl3     1 <0>        -0.3001
      6 C5          1.1894   -1.9818   -0.0152 C.2       1 <0>         0.3904
      7 N2          1.1491   -0.6421   -0.0124 N.2       1 <0>        -0.4692
      8 C6          2.2407   -2.8871   -0.0256 C.2       1 <0>        -0.7862
      9 C7          1.6934   -4.1686   -0.0303 C.2       1 <0>         0.1792
     10 N3          0.3783   -4.0691   -0.0233 N.2       1 <0>        -0.3125
     11 S1          2.6080   -5.6746   -0.0435 S.3       1 <0>         0.0397
     12 C8          1.3314   -6.9634   -0.0447 C.3       1 <0>        -0.1656
     13 S2          3.9570   -2.4886   -0.0323 S.o2      1 <0>         2.6129
     14 O1          4.6314   -3.6068   -0.5928 O.2       1 <0>        -0.9262
     15 O2          4.0682   -1.1807   -0.5766 O.2       1 <0>        -0.9239
     16 C9          4.4732   -2.3800    1.6489 C.ar      1 <0>        -0.6574
     17 C10         4.3996   -1.1726    2.3179 C.ar      1 <0>        -0.0193
     18 C11         4.8046   -1.0874    3.6368 C.ar      1 <0>        -0.1429
     19 C12         5.2827   -2.2097    4.2869 C.ar      1 <0>        -0.0655
     20 C13         5.3554   -3.4174    3.6182 C.ar      1 <0>        -0.1412
     21 C14         4.9464   -3.5035    2.3006 C.ar      1 <0>        -0.0196
     22 C15        -2.4594   -2.8640   -0.0018 C.3       1 <0>        -0.1195
     23 H1          1.0042    1.8801    0.0026 H         1 <0>         0.0939
     24 H2         -0.5455    1.8639   -0.8728 H         1 <0>         0.0968
     25 H3         -0.5286    1.8543    0.9071 H         1 <0>         0.0960
     26 H4         -2.1477   -0.1935    0.0119 H         1 <0>         0.1761
     27 H5          0.7062   -6.8548   -0.9310 H         1 <0>         0.0904
     28 H6          1.8058   -7.9447   -0.0527 H         1 <0>         0.1175
     29 H7          0.7150   -6.8650    0.8490 H         1 <0>         0.0884
     30 H8          4.0261   -0.2957    1.8100 H         1 <0>         0.1423
     31 H9          4.7478   -0.1438    4.1593 H         1 <0>         0.1326
     32 H10         5.5997   -2.1430    5.3172 H         1 <0>         0.1308
     33 H11         5.7292   -4.2942    4.1261 H         1 <0>         0.1342
     34 H12         4.9997   -4.4479    1.7792 H         1 <0>         0.1439
     35 H13        -3.3074   -2.1792    0.0066 H         1 <0>         0.1000
     36 H14        -2.5043   -3.4869   -0.8952 H         1 <0>         0.0939
     37 H15        -2.4948   -3.4971    0.8847 H         1 <0>         0.0934
@<TRIPOS>BOND
     1    1    2 1
     2    1   23 1
     3    1   24 1
     4    1   25 1
     5    2    7 2
     6    2    3 1
     7    3    4 2
     8    3   26 1
     9    4    5 1
    10    4   22 1
    11    5   10 1
    12    5    6 1
    13    6    7 1
    14    6    8 2
    15    8    9 1
    16    8   13 1
    17    9   10 2
    18    9   11 1
    19   11   12 1
    20   12   27 1
    21   12   28 1
    22   12   29 1
    23   13   14 2
    24   13   15 2
    25   13   16 1
    26   16   21 ar
    27   16   17 ar
    28   17   18 ar
    29   17   30 1
    30   18   19 ar
    31   18   31 1
    32   19   20 ar
    33   19   32 1
    34   20   21 ar
    35   20   33 1
    36   21   34 1
    37   22   35 1
    38   22   36 1
    39   22   37 1
@<TRIPOS>MOLECULE
ZINC66079137
   38    40     0     0     0
SMALL
USER_CHARGES

@<TRIPOS>ATOM
      1 C1         -0.0184    1.5028    0.0103 C.3       1 <0>        -0.1155
      2 C2          0.0021   -0.0041    0.0020 C.2       1 <0>         0.2327
      3 C3         -1.2039   -0.7185    0.0039 C.2       1 <0>        -0.2341
      4 C4         -1.1759   -2.0742   -0.0036 C.2       1 <0>         0.2106
      5 N1          0.0289   -2.7139   -0.0128 N.pl3     1 <0>        -0.2908
      6 C5          1.1893   -1.9817   -0.0144 C.2       1 <0>         0.3988
      7 N2          1.1491   -0.6421   -0.0124 N.2       1 <0>        -0.4751
      8 C6          2.2407   -2.8873   -0.0236 C.2       1 <0>        -0.8447
      9 C7          1.6933   -4.1683   -0.0275 C.2       1 <0>         0.4581
     10 N3          0.3787   -4.0689   -0.0211 N.2       1 <0>        -0.3585
     11 N4          2.4186   -5.3629   -0.0374 N.pl3     1 <0>        -0.7065
     12 C8          1.7144   -6.6475   -0.0405 C.3       1 <0>         0.0943
     13 S1          3.9571   -2.4892   -0.0302 S.o2      1 <0>         2.6228
     14 O1          4.6314   -3.6081   -0.5894 O.2       1 <0>        -0.9502
     15 O2          4.0687   -1.1818   -0.5757 O.2       1 <0>        -0.9239
     16 C9          4.4728   -2.3790    1.6510 C.ar      1 <0>        -0.6578
     17 C10         4.3993   -1.1709    2.3188 C.ar      1 <0>        -0.0175
     18 C11         4.8039   -1.0844    3.6377 C.ar      1 <0>        -0.1408
     19 C12         5.2816   -2.2062    4.2891 C.ar      1 <0>        -0.0659
     20 C13         5.3543   -3.4146    3.6216 C.ar      1 <0>        -0.1407
     21 C14         4.9456   -3.5020    2.3040 C.ar      1 <0>        -0.0247
     22 C15        -2.4594   -2.8640   -0.0012 C.3       1 <0>        -0.1184
     23 H1          1.0042    1.8801    0.0026 H         1 <0>         0.0923
     24 H2         -0.5455    1.8639   -0.8728 H         1 <0>         0.0954
     25 H3         -0.5286    1.8543    0.9071 H         1 <0>         0.0945
     26 H4         -2.1477   -0.1935    0.0117 H         1 <0>         0.1740
     27 H5          3.3884   -5.3414   -0.0422 H         1 <0>         0.4256
     28 H6          1.0937   -6.7237    0.8523 H         1 <0>         0.0589
     29 H7          1.0847   -6.7145   -0.9277 H         1 <0>         0.0595
     30 H8          2.4408   -7.4601   -0.0484 H         1 <0>         0.0832
     31 H9          4.0261   -0.2944    1.8099 H         1 <0>         0.1438
     32 H10         4.7472   -0.1404    4.1592 H         1 <0>         0.1336
     33 H11         5.5984   -2.1385    5.3194 H         1 <0>         0.1313
     34 H12         5.7278   -4.2909    4.1305 H         1 <0>         0.1334
     35 H13         4.9989   -4.4468    1.7836 H         1 <0>         0.1374
     36 H14        -3.3074   -2.1793    0.0069 H         1 <0>         0.0978
     37 H15        -2.5041   -3.4872   -0.8944 H         1 <0>         0.0938
     38 H16        -2.4949   -3.4969    0.8855 H         1 <0>         0.0933
@<TRIPOS>BOND
     1    1    2 1
     2    1   23 1
     3    1   24 1
     4    1   25 1
     5    2    7 2
     6    2    3 1
     7    3    4 2
     8    3   26 1
     9    4    5 1
    10    4   22 1
    11    5   10 1
    12    5    6 1
    13    6    7 1
    14    6    8 2
    15    8    9 1
    16    8   13 1
    17    9   10 2
    18    9   11 1
    19   11   12 1
    20   11   27 1
    21   12   28 1
    22   12   29 1
    23   12   30 1
    24   13   14 2
    25   13   15 2
    26   13   16 1
    27   16   21 ar
    28   16   17 ar
    29   17   18 ar
    30   17   31 1
    31   18   19 ar
    32   18   32 1
    33   19   20 ar
    34   19   33 1
    35   20   21 ar
    36   20   34 1
    37   21   35 1
    38   22   36 1
    39   22   37 1
    40   22   38 1
@<TRIPOS>MOLECULE
ZINC13611722
   52    55     0     0     0
SMALL
USER_CHARGES

@<TRIPOS>ATOM
      1 C1          0.2248    1.2220   -0.1132 C.3       1 <0>        -0.0536
      2 N1          0.2888   -0.2453   -0.0824 N.4       1 <0>        -0.3880
      3 C2          1.0383   -0.7273   -1.2502 C.3       1 <0>        -0.0472
      4 C3          0.9650   -0.6802    1.1471 C.3       1 <0>        -0.0099
      5 C4          0.1202   -0.2863    2.3604 C.3       1 <0>        -0.0603
      6 C5          0.8138   -0.7325    3.6217 C.2       1 <0>        -0.2059
      7 C6          0.6015   -1.8792    4.2865 C.2       1 <0>         0.0920
      8 N2          1.4143   -1.9390    5.3852 N.pl3     1 <0>        -0.5862
      9 H1          1.4409   -2.6723    6.0196 H         1 <0>         0.4249
     10 C7          2.1907   -0.8009    5.4560 C.ar      1 <0>         0.0905
     11 C8          1.8520    0.0003    4.3507 C.ar      1 <0>        -0.0813
     12 C9          2.4896    1.2271    4.1561 C.ar      1 <0>        -0.0937
     13 C10         3.4553    1.6444    5.0530 C.ar      1 <0>         0.1323
     14 C11         3.7910    0.8455    6.1448 C.ar      1 <0>        -0.1284
     15 C12         3.1612   -0.3618    6.3499 C.ar      1 <0>        -0.0945
     16 N3          4.0985    2.8730    4.8640 N.pl3     1 <0>        -1.0555
     17 S1          4.2875    3.9135    6.1384 S.o2      1 <0>         2.6878
     18 O1          4.8906    3.1668    7.1862 O.2       1 <0>        -0.9429
     19 O2          4.8715    5.0975    5.6128 O.2       1 <0>        -0.9409
     20 C13         2.6748    4.3522    6.6963 C.ar      1 <0>        -0.6686
     21 C14         1.9911    5.3927    6.0698 C.ar      1 <0>        -0.0385
     22 C15         0.7442    5.7567    6.4761 C.ar      1 <0>        -0.1146
     23 C16         0.1341    5.0754    7.5429 C.ar      1 <0>        -0.0042
     24 C17         0.8292    4.0172    8.1801 C.ar      1 <0>        -0.0693
     25 C18         2.1132    3.6663    7.7289 C.ar      1 <0>         0.0267
     26 C19         0.2189    3.3357    9.2465 C.ar      1 <0>        -0.0825
     27 C20        -1.0285    3.6991    9.6531 C.ar      1 <0>        -0.1111
     28 C21        -1.7126    4.7389    9.0276 C.ar      1 <0>        -0.0776
     29 C22        -1.1529    5.4225    7.9904 C.ar      1 <0>        -0.0425
     30 Cl1        -2.0236    6.7153    7.2260 Cl        1 <0>        -0.0508
     31 H2          1.2351    1.6303   -0.0903 H         1 <0>         0.1221
     32 H3         -0.2770    1.5447   -1.0255 H         1 <0>         0.1242
     33 H4         -0.3314    1.5797    0.7533 H         1 <0>         0.1248
     34 H5          2.0487   -0.3190   -1.2273 H         1 <0>         0.1214
     35 H6          1.0858   -1.8161   -1.2273 H         1 <0>         0.1228
     36 H7          0.5366   -0.4046   -2.1625 H         1 <0>         0.1239
     37 H8          1.0917   -1.7626    1.1286 H         1 <0>         0.1304
     38 H9          1.9417   -0.2010    1.2135 H         1 <0>         0.1298
     39 H10        -0.0066    0.7961    2.3789 H         1 <0>         0.0915
     40 H11        -0.8566   -0.7655    2.2940 H         1 <0>         0.0914
     41 H12        -0.1065   -2.6416    3.9970 H         1 <0>         0.1743
     42 H13         2.2303    1.8460    3.3099 H         1 <0>         0.1252
     43 H14         4.5469    1.1797    6.8400 H         1 <0>         0.1642
     44 H15         3.4302   -0.9736    7.1983 H         1 <0>         0.1349
     45 H16         4.4336    3.1151    3.9864 H         1 <0>         0.4272
     46 H17         2.4579    5.9182    5.2498 H         1 <0>         0.1415
     47 H18         0.2266    6.5652    5.9814 H         1 <0>         0.1422
     48 H19         2.6531    2.8594    8.2020 H         1 <0>         0.1514
     49 H20         0.7368    2.5272    9.7411 H         1 <0>         0.1411
     50 H21        -1.4949    3.1729   10.4728 H         1 <0>         0.1412
     51 H22        -2.7012    5.0071    9.3698 H         1 <0>         0.1420
     52 H23        -0.6465   -0.6232   -0.1036 H         1 <0>         0.4263
@<TRIPOS>BOND
     1    1    2 1
     2    1   31 1
     3    1   32 1
     4    1   33 1
     5    2    3 1
     6    2    4 1
     7    2   52 1
     8    3   34 1
     9    3   35 1
    10    3   36 1
    11    4    5 1
    12    4   37 1
    13    4   38 1
    14    5    6 1
    15    5   39 1
    16    5   40 1
    17    6   11 1
    18    6    7 2
    19    7    8 1
    20    7   41 1
    21    8    9 1
    22    8   10 1
    23   10   15 ar
    24   10   11 ar
    25   11   12 ar
    26   12   13 ar
    27   12   42 1
    28   13   14 ar
    29   13   16 1
    30   14   15 ar
    31   14   43 1
    32   15   44 1
    33   16   17 1
    34   16   45 1
    35   17   18 2
    36   17   19 2
    37   17   20 1
    38   20   25 ar
    39   20   21 ar
    40   21   22 ar
    41   21   46 1
    42   22   23 ar
    43   22   47 1
    44   23   29 ar
    45   23   24 ar
    46   24   25 ar
    47   24   26 ar
    48   25   48 1
    49   26   27 ar
    50   26   49 1
    51   27   28 ar
    52   27   50 1
    53   28   29 ar
    54   28   51 1
    55   29   30 1
@<TRIPOS>MOLECULE
ZINC13611722
   51    54     0     0     0
SMALL
USER_CHARGES

@<TRIPOS>ATOM
      1 C1         -0.0178    1.4648    0.0101 C.3       1 <0>        -0.0525
      2 N1          0.0021   -0.0041    0.0020 N.4       1 <0>        -0.3870
      3 C2          0.6897   -0.4778   -1.2066 C.3       1 <0>        -0.0458
      4 C3          0.7126   -0.4907    1.1921 C.3       1 <0>        -0.0111
      5 C4         -0.0711   -0.1034    2.4478 C.3       1 <0>        -0.0493
      6 C5          0.6578   -0.6026    3.6687 C.2       1 <0>        -0.2286
      7 C6          0.4366   -1.7594    4.3130 C.2       1 <0>         0.0737
      8 N2          1.2899   -1.8719    5.3763 N.pl3     1 <0>        -0.5896
      9 H1          1.3190   -2.6219    5.9908 H         1 <0>         0.4107
     10 C7          2.1032   -0.7597    5.4439 C.ar      1 <0>         0.0042
     11 C8          1.7460    0.0797    4.3733 C.ar      1 <0>        -0.0411
     12 C9          2.4130    1.2916    4.1835 C.ar      1 <0>        -0.1798
     13 C10         3.4258    1.6564    5.0509 C.ar      1 <0>         0.2703
     14 C11         3.7795    0.8199    6.1081 C.ar      1 <0>        -0.2095
     15 C12         3.1214   -0.3730    6.3086 C.ar      1 <0>        -0.0755
     16 N3          4.0986    2.8699    4.8665 N.2       1 <0>        -1.0894
     17 S1          5.3121    3.3097    5.9039 S.o2      1 <0>         2.6009
     18 O1          4.7059    3.5225    7.1713 O.2       1 <0>        -1.0269
     19 O2          6.3684    2.3789    5.7112 O.2       1 <0>        -1.0261
     20 C13         5.9160    4.8750    5.3654 C.ar      1 <0>        -0.6080
     21 C14         6.9571    4.9278    4.4403 C.ar      1 <0>        -0.0271
     22 C15         7.4468    6.1202    4.0037 C.ar      1 <0>        -0.1312
     23 C16         6.8968    7.3180    4.4909 C.ar      1 <0>        -0.0145
     24 C17         5.8380    7.2645    5.4317 C.ar      1 <0>        -0.0680
     25 C18         5.3551    6.0143    5.8549 C.ar      1 <0>         0.0067
     26 C19         5.2877    8.4621    5.9185 C.ar      1 <0>        -0.0807
     27 C20         5.7768    9.6552    5.4818 C.ar      1 <0>        -0.1224
     28 C21         6.8174    9.7090    4.5572 C.ar      1 <0>        -0.0912
     29 C22         7.3759    8.5688    4.0630 C.ar      1 <0>        -0.0367
     30 Cl1         8.6722    8.6597    2.9118 Cl        1 <0>        -0.0635
     31 H2          1.0047    1.8421    0.0024 H         1 <0>         0.1243
     32 H3         -0.5450    1.8259   -0.8730 H         1 <0>         0.1182
     33 H4         -0.5280    1.8163    0.9069 H         1 <0>         0.1269
     34 H5          1.7123   -0.1005   -1.2143 H         1 <0>         0.1214
     35 H6          0.7044   -1.5677   -1.2126 H         1 <0>         0.1195
     36 H7          0.1625   -0.1167   -2.0897 H         1 <0>         0.1187
     37 H8          0.8051   -1.5756    1.1418 H         1 <0>         0.1260
     38 H9          1.7055   -0.0428    1.2310 H         1 <0>         0.1338
     39 H10        -0.1636    0.9815    2.4982 H         1 <0>         0.0884
     40 H11        -1.0640   -0.5514    2.4090 H         1 <0>         0.0793
     41 H12        -0.3054   -2.4926    4.0335 H         1 <0>         0.1579
     42 H13         2.1397    1.9397    3.3640 H         1 <0>         0.1076
     43 H14         4.5722    1.1132    6.7804 H         1 <0>         0.1065
     44 H15         3.4047   -1.0143    7.1300 H         1 <0>         0.1080
     45 H16         7.3818    4.0087    4.0645 H         1 <0>         0.1397
     46 H17         8.2541    6.1457    3.2868 H         1 <0>         0.1361
     47 H18         4.5460    5.9579    6.5680 H         1 <0>         0.1472
     48 H19         4.4804    8.4363    6.6354 H         1 <0>         0.1378
     49 H20         5.3514   10.5740    5.8577 H         1 <0>         0.1349
     50 H21         7.1868   10.6687    4.2273 H         1 <0>         0.1351
     51 H22        -0.9445   -0.3533    0.0092 H         1 <0>         0.4217
@<TRIPOS>BOND
     1    1    2 1
     2    1   31 1
     3    1   32 1
     4    1   33 1
     5    2    3 1
     6    2    4 1
     7    2   51 1
     8    3   34 1
     9    3   35 1
    10    3   36 1
    11    4    5 1
    12    4   37 1
    13    4   38 1
    14    5    6 1
    15    5   39 1
    16    5   40 1
    17    6   11 1
    18    6    7 2
    19    7    8 1
    20    7   41 1
    21    8    9 1
    22    8   10 1
    23   10   15 ar
    24   10   11 ar
    25   11   12 ar
    26   12   13 ar
    27   12   42 1
    28   13   14 ar
    29   13   16 1
    30   14   15 ar
    31   14   43 1
    32   15   44 1
    33   16   17 1
    34   17   18 2
    35   17   19 2
    36   17   20 1
    37   20   25 ar
    38   20   21 ar
    39   21   22 ar
    40   21   45 1
    41   22   23 ar
    42   22   46 1
    43   23   29 ar
    44   23   24 ar
    45   24   25 ar
    46   24   26 ar
    47   25   47 1
    48   26   27 ar
    49   26   48 1
    50   27   28 ar
    51   27   49 1
    52   28   29 ar
    53   28   50 1
    54   29   30 1
@<TRIPOS>MOLECULE
ZINC71318229
   36    38     0     0     0
SMALL
USER_CHARGES

@<TRIPOS>ATOM
      1 C1         -0.0184    1.5028    0.0103 C.3       1 <0>        -0.1159
      2 C2          0.0021   -0.0041    0.0020 C.2       1 <0>         0.2327
      3 C3         -1.2046   -0.7188    0.0038 C.2       1 <0>        -0.2275
      4 C4         -1.1766   -2.0737   -0.0041 C.2       1 <0>         0.2046
      5 N1          0.0295   -2.7133   -0.0137 N.pl3     1 <0>        -0.3060
      6 C5          1.1892   -1.9810   -0.0152 C.2       1 <0>         0.3803
      7 N2          1.1487   -0.6418   -0.0124 N.2       1 <0>        -0.4704
      8 C6          2.2396   -2.8892   -0.0257 C.2       1 <0>        -0.8089
      9 C7          1.6934   -4.1637   -0.0303 C.2       1 <0>         0.2132
     10 N3          0.3829   -4.0673   -0.0233 N.2       1 <0>        -0.3094
     11 C8          2.4763   -5.4513   -0.0416 C.3       1 <0>        -0.1163
     12 S1          3.9566   -2.4934   -0.0327 S.o2      1 <0>         2.6211
     13 O1          4.6291   -3.6128   -0.5931 O.2       1 <0>        -0.9404
     14 O2          4.0698   -1.1858   -0.5773 O.2       1 <0>        -0.9253
     15 C9          4.4733   -2.3853    1.6484 C.ar      1 <0>        -0.6571
     16 C10         4.4018   -1.1776    2.3171 C.ar      1 <0>        -0.0190
     17 C11         4.8071   -1.0928    3.6360 C.ar      1 <0>        -0.1417
     18 C12         5.2835   -2.2158    4.2862 C.ar      1 <0>        -0.0658
     19 C13         5.3541   -3.4237    3.6178 C.ar      1 <0>        -0.1413
     20 C14         4.9448   -3.5095    2.3002 C.ar      1 <0>        -0.0240
     21 C15        -2.4599   -2.8639   -0.0018 C.3       1 <0>        -0.1196
     22 H1          1.0042    1.8801    0.0026 H         1 <0>         0.0932
     23 H2         -0.5455    1.8639   -0.8728 H         1 <0>         0.0962
     24 H3         -0.5286    1.8543    0.9071 H         1 <0>         0.0954
     25 H4         -2.1484   -0.1937    0.0119 H         1 <0>         0.1753
     26 H5          2.6701   -5.7677    0.9833 H         1 <0>         0.0941
     27 H6          1.9020   -6.2212   -0.5570 H         1 <0>         0.0904
     28 H7          3.4230   -5.2965   -0.5592 H         1 <0>         0.1211
     29 H8          4.0296   -0.3003    1.8091 H         1 <0>         0.1429
     30 H9          4.7519   -0.1491    4.1582 H         1 <0>         0.1330
     31 H10         5.6008   -2.1494    5.3164 H         1 <0>         0.1311
     32 H11         5.7266   -4.3010    4.1257 H         1 <0>         0.1340
     33 H12         4.9964   -4.4540    1.7790 H         1 <0>         0.1424
     34 H13        -3.3081   -2.1793    0.0066 H         1 <0>         0.0992
     35 H14        -2.5046   -3.4868   -0.8952 H         1 <0>         0.0946
     36 H15        -2.4951   -3.4970    0.8847 H         1 <0>         0.0940
@<TRIPOS>BOND
     1    1    2 1
     2    1   22 1
     3    1   23 1
     4    1   24 1
     5    2    7 2
     6    2    3 1
     7    3    4 2
     8    3   25 1
     9    4    5 1
    10    4   21 1
    11    5   10 1
    12    5    6 1
    13    6    7 1
    14    6    8 2
    15    8    9 1
    16    8   12 1
    17    9   10 2
    18    9   11 1
    19   11   26 1
    20   11   27 1
    21   11   28 1
    22   12   13 2
    23   12   14 2
    24   12   15 1
    25   15   20 ar
    26   15   16 ar
    27   16   17 ar
    28   16   29 1
    29   17   18 ar
    30   17   30 1
    31   18   19 ar
    32   18   31 1
    33   19   20 ar
    34   19   32 1
    35   20   33 1
    36   21   34 1
    37   21   35 1
    38   21   36 1
@<TRIPOS>MOLECULE
ZINC19376338
   32    34     0     0     0
SMALL
USER_CHARGES

@<TRIPOS>ATOM
      1 C1         -0.0239    1.3370    0.2441 C.ar      1 <0>        -0.1256
      2 C2          1.1550    2.0478    0.4568 C.ar      1 <0>        -0.0782
      3 C3          2.3643    1.4231    0.4379 C.ar      1 <0>        -0.1141
      4 C4          2.4311    0.0393    0.2011 C.ar      1 <0>         0.1744
      5 C5          1.2312   -0.6814   -0.0144 C.ar      1 <0>        -0.1375
      6 C6          0.0018   -0.0048    0.0116 C.ar      1 <0>        -0.0809
      7 C7          1.2976   -2.0694   -0.2519 C.ar      1 <0>        -0.0096
      8 C8          2.5231   -2.6645   -0.2643 C.ar      1 <0>        -0.2222
      9 C9          3.6751   -1.8960   -0.0441 C.ar      1 <0>         0.4150
     10 N1          3.6064   -0.5993    0.1777 N.ar      1 <0>        -0.5363
     11 N2          4.9157   -2.5156   -0.0597 N.pl3     1 <0>        -0.6266
     12 C10         6.1561   -1.7247   -0.0617 C.3       1 <0>         0.1015
     13 C11         7.0719   -2.2550    1.0465 C.3       1 <0>        -0.0225
     14 N3          7.2730   -3.6982    0.8653 N.4       1 <0>        -0.5046
     15 C12         5.9976   -4.4059    1.0344 C.3       1 <0>        -0.0221
     16 C13         5.0286   -3.9823   -0.0687 C.3       1 <0>         0.0992
     17 H1         -0.9708    1.8557    0.2683 H         1 <0>         0.1324
     18 H2          1.1089    3.1113    0.6392 H         1 <0>         0.1343
     19 H3          3.2692    1.9888    0.6039 H         1 <0>         0.1349
     20 H4         -0.9189   -0.5453   -0.1515 H         1 <0>         0.1333
     21 H5          0.4000   -2.6463   -0.4193 H         1 <0>         0.1464
     22 H6          2.6072   -3.7262   -0.4432 H         1 <0>         0.1365
     23 H7          6.6530   -1.8250   -1.0266 H         1 <0>         0.0880
     24 H8          5.9227   -0.6768    0.1263 H         1 <0>         0.1390
     25 H9          8.0340   -1.7450    0.9980 H         1 <0>         0.1449
     26 H10         6.6116   -2.0712    2.0173 H         1 <0>         0.1341
     27 H11         7.6328   -3.8727   -0.0611 H         1 <0>         0.4286
     28 H12         6.1681   -5.4809    0.9769 H         1 <0>         0.1469
     29 H13         5.5698   -4.1571    2.0056 H         1 <0>         0.1344
     30 H14         4.0501   -4.4261    0.1146 H         1 <0>         0.1284
     31 H15         5.4097   -4.3144   -1.0344 H         1 <0>         0.0943
     32 H16         7.9351   -4.0327    1.5492 H         1 <0>         0.4339
@<TRIPOS>BOND
     1    1    6 ar
     2    1    2 ar
     3    1   17 1
     4    2    3 ar
     5    2   18 1
     6    3    4 ar
     7    3   19 1
     8    4   10 ar
     9    4    5 ar
    10    5    6 ar
    11    5    7 ar
    12    6   20 1
    13    7    8 ar
    14    7   21 1
    15    8    9 ar
    16    8   22 1
    17    9   10 ar
    18    9   11 1
    19   11   16 1
    20   11   12 1
    21   12   13 1
    22   12   23 1
    23   12   24 1
    24   13   14 1
    25   13   25 1
    26   13   26 1
    27   14   15 1
    28   14   27 1
    29   14   32 1
    30   15   16 1
    31   15   28 1
    32   15   29 1
    33   16   30 1
    34   16   31 1
@<TRIPOS>MOLECULE
ZINC02568243
   34    36     0     0     0
SMALL
USER_CHARGES

@<TRIPOS>ATOM
      1 C1         -0.0173    1.4248    0.0099 C.3       1 <0>         0.0252
      2 O1          0.0021   -0.0041    0.0020 O.3       1 <0>        -0.3183
      3 C2         -1.2010   -0.6379    0.0101 C.ar      1 <0>         0.1169
      4 C3         -2.3775    0.1067    0.0195 C.ar      1 <0>        -0.1762
      5 C4         -3.6034   -0.5202    0.0273 C.ar      1 <0>        -0.0783
      6 C5         -3.6744   -1.9098    0.0258 C.ar      1 <0>         0.0592
      7 C6         -2.4884   -2.6622    0.0163 C.ar      1 <0>        -0.0484
      8 C7         -1.2520   -2.0182    0.0032 C.ar      1 <0>        -0.1259
      9 C8         -2.9033   -4.0754    0.0172 C.2       1 <0>        -0.1922
     10 C9         -4.2612   -4.0825    0.0269 C.2       1 <0>         0.1018
     11 N1         -4.7283   -2.8009    0.0320 N.pl3     1 <0>        -0.5832
     12 H1         -5.6658   -2.5518    0.0397 H         1 <0>         0.4236
     13 C10        -2.0157   -5.2547    0.0093 C.2       1 <0>        -0.0022
     14 C11        -1.3988   -5.5778   -1.1088 C.2       1 <0>        -0.1971
     15 C12        -0.4803   -6.7603   -1.2219 C.3       1 <0>         0.0381
     16 N2         -0.0462   -7.2002    0.1091 N.4       1 <0>        -0.5087
     17 C13        -1.2320   -7.4084    0.9551 C.3       1 <0>        -0.0039
     18 C14        -1.8429   -6.0411    1.2796 C.3       1 <0>        -0.1164
     19 H2          1.0053    1.8021    0.0021 H         1 <0>         0.1041
     20 H3         -0.5445    1.7859   -0.8732 H         1 <0>         0.0579
     21 H4         -0.5275    1.7763    0.9067 H         1 <0>         0.0578
     22 H5         -2.3280    1.1855    0.0211 H         1 <0>         0.1378
     23 H6         -4.5099    0.0668    0.0350 H         1 <0>         0.1301
     24 H7         -0.3392   -2.5953   -0.0086 H         1 <0>         0.1257
     25 H8         -4.8782   -4.9689    0.0300 H         1 <0>         0.1757
     26 H9         -1.5611   -4.9651   -1.9833 H         1 <0>         0.1495
     27 H10        -1.0039   -7.5772   -1.7186 H         1 <0>         0.1390
     28 H11         0.3928   -6.4834   -1.8127 H         1 <0>         0.1408
     29 H12         0.4669   -8.0652    0.0282 H         1 <0>         0.4342
     30 H13        -1.9591   -8.0207    0.4217 H         1 <0>         0.1341
     31 H14        -0.9391   -7.9058    1.8797 H         1 <0>         0.1381
     32 H15        -1.1844   -5.4970    1.9567 H         1 <0>         0.1074
     33 H16        -2.8140   -6.1827    1.7539 H         1 <0>         0.1225
     34 H17         0.5436   -6.4936    0.5225 H         1 <0>         0.4315
@<TRIPOS>BOND
     1    1    2 1
     2    1   19 1
     3    1   20 1
     4    1   21 1
     5    2    3 1
     6    3    8 ar
     7    3    4 ar
     8    4    5 ar
     9    4   22 1
    10    5    6 ar
    11    5   23 1
    12    6   11 1
    13    6    7 ar
    14    7    8 ar
    15    7    9 1
    16    8   24 1
    17    9   10 2
    18    9   13 1
    19   10   11 1
    20   10   25 1
    21   11   12 1
    22   13   18 1
    23   13   14 2
    24   14   15 1
    25   14   26 1
    26   15   16 1
    27   15   27 1
    28   15   28 1
    29   16   17 1
    30   16   29 1
    31   16   34 1
    32   17   18 1
    33   17   30 1
    34   17   31 1
    35   18   32 1
    36   18   33 1
@<TRIPOS>MOLECULE
ZINC19723714
   38    40     0     0     0
SMALL
USER_CHARGES
2-[3-(benzenesulfonyl)indol-1-yl]ethanamine
@<TRIPOS>ATOM
      1 C1          1.7783    7.1833   -3.8988 C.ar      1 <0>        -0.0598
      2 C2          0.9600    7.2457   -2.7864 C.ar      1 <0>        -0.1354
      3 C3          1.3668    6.6722   -1.5962 C.ar      1 <0>        -0.0225
      4 C4          2.5917    6.0364   -1.5184 C.ar      1 <0>        -0.6577
      5 C5          3.4122    5.9786   -2.6294 C.ar      1 <0>        -0.0241
      6 C6          3.0032    6.5475   -3.8210 C.ar      1 <0>        -0.1390
      7 S1          3.1104    5.3059   -0.0012 S.o2      1 <0>         2.6051
      8 O1          2.4044    5.9756    1.0343 O.2       1 <0>        -0.9271
      9 O2          4.5296    5.2489   -0.0421 O.2       1 <0>        -0.9412
     10 C7          2.5392    3.6390   -0.0035 C.2       1 <0>        -0.7158
     11 C8          3.3012    2.5339   -0.0164 C.2       1 <0>         0.1842
     12 N1          2.5071    1.4196   -0.0143 N.pl3     1 <0>        -0.4791
     13 C9          1.1809    1.7899    0.0004 C.ar      1 <0>         0.0813
     14 C10         1.1428    3.1964    0.0078 C.ar      1 <0>        -0.0361
     15 C11        -0.0853    3.8597    0.0226 C.ar      1 <0>        -0.0761
     16 C12        -1.2460    3.1383    0.0299 C.ar      1 <0>        -0.1181
     17 C13        -1.2138    1.7508    0.0173 C.ar      1 <0>        -0.0878
     18 C14        -0.0126    1.0758    0.0080 C.ar      1 <0>        -0.1277
     19 C15         2.9951    0.0383   -0.0252 C.3       1 <0>         0.0806
     20 C16         3.0324   -0.4781   -1.4649 C.3       1 <0>        -0.0259
     21 N2          3.5217   -1.8631   -1.4758 N.4       1 <0>        -0.6826
     22 H1          1.4607    7.6317   -4.8286 H         1 <0>         0.1345
     23 H2          0.0032    7.7428   -2.8471 H         1 <0>         0.1371
     24 H3          0.7276    6.7213   -0.7270 H         1 <0>         0.1412
     25 H4          4.3712    5.4856   -2.5674 H         1 <0>         0.1401
     26 H5          3.6427    6.4990   -4.6900 H         1 <0>         0.1350
     27 H6          4.3811    2.5256   -0.0269 H         1 <0>         0.1966
     28 H7         -0.1181    4.9392    0.0280 H         1 <0>         0.1340
     29 H8         -2.1959    3.6520    0.0417 H         1 <0>         0.1369
     30 H9         -2.1395    1.1946    0.0186 H         1 <0>         0.1359
     31 H10         0.0021   -0.0041    0.0020 H         1 <0>         0.1199
     32 H11         4.0077    0.0038    0.4031 H         1 <0>         0.1189
     33 H12         2.3221   -0.5931    0.5735 H         1 <0>         0.1131
     34 H13         2.0198   -0.4436   -1.8931 H         1 <0>         0.1362
     35 H14         3.7054    0.1533   -2.0636 H         1 <0>         0.1378
     36 H15         3.5485   -2.2343   -2.5109 H         1 <0>         0.4680
     37 H16         2.8487   -2.4944   -0.8771 H         1 <0>         0.4595
     38 H17         4.5343   -1.8976   -1.0475 H         1 <0>         0.4601
@<TRIPOS>BOND
     1    1    6 ar
     2    1    2 ar
     3    1   22 1
     4    2    3 ar
     5    2   23 1
     6    3    4 ar
     7    3   24 1
     8    4    5 ar
     9    4    7 1
    10    5    6 ar
    11    5   25 1
    12    6   26 1
    13    7    8 2
    14    7    9 2
    15    7   10 1
    16   10   14 1
    17   10   11 2
    18   11   12 1
    19   11   27 1
    20   12   13 1
    21   12   19 1
    22   13   18 ar
    23   13   14 ar
    24   14   15 ar
    25   15   16 ar
    26   15   28 1
    27   16   17 ar
    28   16   29 1
    29   17   18 ar
    30   17   30 1
    31   18   31 1
    32   19   20 1
    33   19   32 1
    34   19   33 1
    35   20   21 1
    36   20   34 1
    37   20   35 1
    38   21   36 1
    39   21   37 1
    40   21   38 1
@<TRIPOS>MOLECULE
ZINC02539813
   29    30     0     0     0
SMALL
USER_CHARGES

@<TRIPOS>ATOM
      1 C1         -0.0169    1.3975    0.0097 C.ar      1 <0>        -0.0643
      2 C2          1.1463    2.1089    0.0024 C.ar      1 <0>        -0.1252
      3 C3          2.3728    1.4480   -0.0128 C.ar      1 <0>         0.1197
      4 C4          2.4053    0.0394   -0.0207 C.ar      1 <0>        -0.1125
      5 C5          1.2161   -0.6846   -0.0130 C.ar      1 <0>        -0.0121
      6 C6          0.0021   -0.0041    0.0020 C.ar      1 <0>        -0.1565
      7 C7         -1.2668   -0.7591    0.0106 C.2       1 <0>         0.5664
      8 O1         -1.2509   -1.9747    0.0039 O.2       1 <0>        -0.5461
      9 N1         -2.4427   -0.1006    0.0258 N.am      1 <0>        -0.8483
     10 C8          3.8230   -0.3326   -0.0371 C.2       1 <0>        -0.1957
     11 C9          4.5266    0.8101   -0.0381 C.2       1 <0>         0.0855
     12 N2          3.6763    1.8825   -0.0237 N.pl3     1 <0>        -0.5837
     13 H1          3.9530    2.8122   -0.0215 H         1 <0>         0.4262
     14 C10         4.3836   -1.7314   -0.0499 C.3       1 <0>        -0.0648
     15 C11         4.4419   -2.2443   -1.4902 C.3       1 <0>        -0.0085
     16 N3          4.9884   -3.6078   -1.5026 N.4       1 <0>        -0.6386
     17 H2         -0.9624    1.9192    0.0261 H         1 <0>         0.1348
     18 H3          1.1168    3.1884    0.0082 H         1 <0>         0.1333
     19 H4          1.2355   -1.7645   -0.0193 H         1 <0>         0.1349
     20 H5         -2.4554    0.8693    0.0312 H         1 <0>         0.4024
     21 H6         -3.2762   -0.5966    0.0315 H         1 <0>         0.4094
     22 H7          5.6046    0.8742   -0.0483 H         1 <0>         0.1771
     23 H8          5.3877   -1.7243    0.3742 H         1 <0>         0.0945
     24 H9          3.7434   -2.3848    0.5429 H         1 <0>         0.0952
     25 H10         3.4379   -2.2514   -1.9143 H         1 <0>         0.1343
     26 H11         5.0821   -1.5909   -2.0829 H         1 <0>         0.1335
     27 H12         5.9178   -3.6013   -1.1100 H         1 <0>         0.4344
     28 H13         4.3958   -4.2127   -0.9539 H         1 <0>         0.4362
     29 H14         5.0268   -3.9461   -2.4524 H         1 <0>         0.4385
@<TRIPOS>BOND
     1    1    6 ar
     2    1    2 ar
     3    1   17 1
     4    2    3 ar
     5    2   18 1
     6    3   12 1
     7    3    4 ar
     8    4    5 ar
     9    4   10 1
    10    5    6 ar
    11    5   19 1
    12    6    7 1
    13    7    8 2
    14    7    9 am
    15    9   20 1
    16    9   21 1
    17   10   11 2
    18   10   14 1
    19   11   12 1
    20   11   22 1
    21   12   13 1
    22   14   15 1
    23   14   23 1
    24   14   24 1
    25   15   16 1
    26   15   25 1
    27   15   26 1
    28   16   27 1
    29   16   28 1
    30   16   29 1
@<TRIPOS>MOLECULE
ZINC17005092
   30    32     0     0     0
SMALL
USER_CHARGES

@<TRIPOS>ATOM
      1 C1          0.1530    1.1520   -1.6252 C.ar      1 <0>        -0.1219
      2 C2          1.3398    1.8702   -1.6149 C.ar      1 <0>        -0.1218
      3 C3          2.5093    1.2826   -1.1781 C.ar      1 <0>        -0.1019
      4 C4          2.4991   -0.0389   -0.7443 C.ar      1 <0>        -0.0676
      5 C5          1.2940   -0.7736   -0.7524 C.ar      1 <0>        -0.0810
      6 C6          0.1209   -0.1578   -1.1998 C.ar      1 <0>        -0.0974
      7 C7          1.5789   -2.1192   -0.2498 C.2       1 <0>        -0.1181
      8 C8          2.8862   -2.2256    0.0567 C.2       1 <0>        -0.1224
      9 C9          3.5440   -0.9458   -0.2285 C.2       1 <0>        -0.0931
     10 C10         4.8770   -0.6481   -0.0502 C.2       1 <0>        -0.0096
     11 C11         5.3385    0.7371   -0.1581 C.ar      1 <0>        -0.1482
     12 C12         4.6152    1.7698    0.4567 C.ar      1 <0>        -0.0323
     13 C13         5.0499    3.0599    0.3530 C.ar      1 <0>        -0.2102
     14 C14         6.2096    3.3516   -0.3618 C.ar      1 <0>         0.2338
     15 C15         6.9315    2.3296   -0.9747 C.ar      1 <0>        -0.2064
     16 C16         6.5087    1.0354   -0.8718 C.ar      1 <0>        -0.0417
     17 N1          6.6478    4.6667   -0.4643 N.pl3     1 <0>        -0.8703
     18 H1         -0.7557    1.6258   -1.9658 H         1 <0>         0.1226
     19 H2          1.3485    2.8963   -1.9516 H         1 <0>         0.1220
     20 H3          3.4301    1.8471   -1.1733 H         1 <0>         0.1338
     21 H4         -0.8083   -0.7082   -1.2122 H         1 <0>         0.1216
     22 H5          0.8496   -2.9083   -0.1408 H         1 <0>         0.1354
     23 H6          3.3704   -3.1079    0.4485 H         1 <0>         0.1421
     24 H7          5.5817   -1.4366    0.1691 H         1 <0>         0.1335
     25 H8          3.7159    1.5448    1.0107 H         1 <0>         0.1255
     26 H9          4.4935    3.8558    0.8257 H         1 <0>         0.1236
     27 H10         7.8295    2.5610   -1.5283 H         1 <0>         0.1231
     28 H11         7.0716    0.2434   -1.3432 H         1 <0>         0.1258
     29 H12         6.1463    5.3795   -0.0385 H         1 <0>         0.4005
     30 H13         7.4550    4.8716   -0.9616 H         1 <0>         0.4004
@<TRIPOS>BOND
     1    1    6 ar
     2    1    2 ar
     3    1   18 1
     4    2    3 ar
     5    2   19 1
     6    3    4 ar
     7    3   20 1
     8    4    9 1
     9    4    5 ar
    10    5    6 ar
    11    5    7 1
    12    6   21 1
    13    7    8 2
    14    7   22 1
    15    8    9 1
    16    8   23 1
    17    9   10 2
    18   10   11 1
    19   10   24 1
    20   11   16 ar
    21   11   12 ar
    22   12   13 ar
    23   12   25 1
    24   13   14 ar
    25   13   26 1
    26   14   15 ar
    27   14   17 1
    28   15   16 ar
    29   15   27 1
    30   16   28 1
    31   17   29 1
    32   17   30 1
@<TRIPOS>MOLECULE
ZINC28529300
   39    41     0     0     0
SMALL
USER_CHARGES
1-(benzenesulfonyl)-N,N'-dimethyl-indole-4,6-diamine
@<TRIPOS>ATOM
      1 C1          5.2590    1.1578    4.4924 C.3       1 <0>         0.0951
      2 N1          4.3596    1.0834    3.3384 N.pl3     1 <0>        -0.7577
      3 C2          3.1269    0.4346    3.4538 C.ar      1 <0>         0.2978
      4 C3          2.7595   -0.1390    4.6694 C.ar      1 <0>        -0.2953
      5 C4          1.5395   -0.7758    4.7978 C.ar      1 <0>         0.3097
      6 C5          0.6783   -0.8534    3.6933 C.ar      1 <0>        -0.2088
      7 C6         -0.6430   -1.4485    3.4759 C.2       1 <0>        -0.1259
      8 C7         -0.9777   -1.2057    2.1996 C.2       1 <0>         0.0070
      9 N2          0.0238   -0.5021    1.5812 N.pl3     1 <0>        -0.8266
     10 C8          1.0529   -0.2768    2.4680 C.ar      1 <0>         0.1944
     11 C9          2.2818    0.3678    2.3599 C.ar      1 <0>        -0.2775
     12 S1          0.0021   -0.0041    0.0020 S.o2      1 <0>         2.6790
     13 O1         -1.2429   -0.4241   -0.5392 O.2       1 <0>        -0.9347
     14 O2          1.2475   -0.3902   -0.5628 O.2       1 <0>        -0.9285
     15 C10        -0.0218    1.7577    0.0117 C.ar      1 <0>        -0.6738
     16 C11        -1.2282    2.4326    0.0211 C.ar      1 <0>        -0.0150
     17 C12        -1.2469    3.8147    0.0336 C.ar      1 <0>        -0.1387
     18 C13        -0.0593    4.5221    0.0261 C.ar      1 <0>        -0.0564
     19 C14         1.1470    3.8473    0.0114 C.ar      1 <0>        -0.1375
     20 C15         1.1658    2.4651    0.0042 C.ar      1 <0>        -0.0140
     21 N3          1.1733   -1.3519    6.0149 N.pl3     1 <0>        -0.7526
     22 C16         2.0759   -1.2684    7.1658 C.3       1 <0>         0.0929
     23 H1          6.1726    1.7019    4.2107 H         1 <0>         0.0734
     24 H2          5.5234    0.1407    4.8174 H         1 <0>         0.0510
     25 H3          4.7563    1.6867    5.3155 H         1 <0>         0.0505
     26 H4          4.6544    1.5381    2.3811 H         1 <0>         0.4219
     27 H5          3.4274   -0.0800    5.5160 H         1 <0>         0.1248
     28 H6         -1.2350   -1.9821    4.2048 H         1 <0>         0.1494
     29 H7         -1.8987   -1.5172    1.7295 H         1 <0>         0.1853
     30 H8          2.5760    0.8157    1.4222 H         1 <0>         0.1193
     31 H9         -2.1561    1.8799    0.0225 H         1 <0>         0.1420
     32 H10        -2.1894    4.3420    0.0448 H         1 <0>         0.1367
     33 H11        -0.0740    5.6020    0.0313 H         1 <0>         0.1344
     34 H12         2.0749    4.4000    0.0051 H         1 <0>         0.1364
     35 H13         2.1083    1.9379   -0.0077 H         1 <0>         0.1409
     36 H14         0.2069   -1.8687    6.1102 H         1 <0>         0.4234
     37 H15         1.6187   -1.7760    8.0279 H         1 <0>         0.0742
     38 H16         2.2555   -0.2122    7.4151 H         1 <0>         0.0515
     39 H17         3.0313   -1.7543    6.9185 H         1 <0>         0.0520
@<TRIPOS>BOND
     1    1    2 1
     2    1   23 1
     3    1   24 1
     4    1   25 1
     5    2    3 1
     6    2   26 1
     7    3   11 ar
     8    3    4 ar
     9    4    5 ar
    10    4   27 1
    11    5    6 ar
    12    5   21 1
    13    6   10 ar
    14    6    7 1
    15    7    8 2
    16    7   28 1
    17    8    9 1
    18    8   29 1
    19    9   10 1
    20    9   12 1
    21   10   11 ar
    22   11   30 1
    23   12   13 2
    24   12   14 2
    25   12   15 1
    26   15   20 ar
    27   15   16 ar
    28   16   17 ar
    29   16   31 1
    30   17   18 ar
    31   17   32 1
    32   18   19 ar
    33   18   33 1
    34   19   20 ar
    35   19   34 1
    36   20   35 1
    37   21   22 1
    38   21   36 1
    39   22   37 1
    40   22   38 1
    41   22   39 1
@<TRIPOS>MOLECULE
ZINC03825965
   61    64     0     0     0
SMALL
USER_CHARGES
2-[4-[4-(7-methoxy-1-naphthyl)piperazin-1-yl]butyl]-4-methyl-1,2,4-triazine-3,5-dione
@<TRIPOS>ATOM
      1 C1         -2.0231    1.8137    0.6582 C.3       1 <0>         0.0742
      2 N1         -0.7874    2.5524    0.3867 N.am      1 <0>        -0.5564
      3 C2         -0.8326    3.8813    0.1583 C.2       1 <0>         0.5084
      4 O1         -1.8956    4.4738    0.1762 O.2       1 <0>        -0.4669
      5 C3          0.4140    4.6017   -0.1163 C.2       1 <0>         0.0634
      6 N2          1.5380    3.9407   -0.1287 N.2       1 <0>        -0.1777
      7 N3          1.5393    2.5628    0.1185 N.am      1 <0>        -0.4527
      8 C4          0.3932    1.9057    0.3704 C.2       1 <0>         0.6789
      9 O2          0.4233    0.7087    0.5818 O.2       1 <0>        -0.5327
     10 C5          2.8060    1.8269    0.1029 C.3       1 <0>         0.1443
     11 C6          3.0823    1.3171   -1.3129 C.3       1 <0>        -0.1367
     12 C7          4.4051    0.5485   -1.3292 C.3       1 <0>        -0.1456
     13 C8          4.6814    0.0387   -2.7450 C.3       1 <0>        -0.0029
     14 C9          7.0843    0.1963   -2.4877 C.3       1 <0>        -0.0008
     15 C10         8.3766   -0.6219   -2.4340 C.3       1 <0>         0.0217
     16 N4          8.5611   -1.3257   -3.7108 N.pl3     1 <0>        -0.4829
     17 C11         7.4284   -2.2213   -3.9837 C.3       1 <0>         0.0173
     18 C12         6.1361   -1.4030   -4.0374 C.3       1 <0>         0.0026
     19 C13         9.7664   -2.0260   -3.7256 C.ar      1 <0>         0.0812
     20 C14        10.4947   -2.1813   -2.5657 C.ar      1 <0>        -0.1408
     21 C15        11.6964   -2.8835   -2.5687 C.ar      1 <0>        -0.1158
     22 C16        12.1912   -3.4252   -3.7158 C.ar      1 <0>        -0.0881
     23 C17        11.4824   -3.2847   -4.9213 C.ar      1 <0>        -0.0708
     24 C18        10.2549   -2.5774   -4.9297 C.ar      1 <0>        -0.0049
     25 C19         9.5469   -2.4379   -6.1332 C.ar      1 <0>        -0.1649
     26 C20        10.0499   -2.9838   -7.2801 C.ar      1 <0>         0.1412
     27 C21        11.2610   -3.6818   -7.2702 C.ar      1 <0>        -0.1852
     28 C22        11.9704   -3.8345   -6.1198 C.ar      1 <0>        -0.0583
     29 O3          9.3633   -2.8476   -8.4452 O.3       1 <0>        -0.3171
     30 C23         9.9390   -3.4413   -9.6106 C.3       1 <0>         0.0231
     31 H1         -2.2167    1.8112    1.7308 H         1 <0>         0.0809
     32 H2         -2.8540    2.2926    0.1401 H         1 <0>         0.0986
     33 H3         -1.9180    0.7877    0.3055 H         1 <0>         0.0965
     34 H4          0.4017    5.6648   -0.3060 H         1 <0>         0.2278
     35 H5          3.6143    2.4882    0.4152 H         1 <0>         0.1043
     36 H6          2.7433    0.9812    0.7878 H         1 <0>         0.1061
     37 H7          2.2740    0.6558   -1.6252 H         1 <0>         0.0811
     38 H8          3.1449    2.1627   -1.9978 H         1 <0>         0.0840
     39 H9          5.2134    1.2098   -1.0169 H         1 <0>         0.0927
     40 H10         4.3425   -0.2971   -0.6443 H         1 <0>         0.0923
     41 H11         3.8731   -0.6226   -3.0573 H         1 <0>         0.1313
     42 H12         4.7441    0.8843   -3.4299 H         1 <0>         0.1342
     43 H13         7.1581    0.9411   -3.2801 H         1 <0>         0.1413
     44 H14         6.9304    0.6962   -1.5314 H         1 <0>         0.1384
     45 H15         8.3135   -1.3486   -1.6240 H         1 <0>         0.0709
     46 H16         9.2218    0.0441   -2.2604 H         1 <0>         0.1291
     47 H17         7.3545   -2.9661   -3.1914 H         1 <0>         0.0693
     48 H18         7.5822   -2.7212   -4.9400 H         1 <0>         0.1333
     49 H19         5.2909   -2.0691   -4.2110 H         1 <0>         0.1378
     50 H20         6.1987   -0.6764   -4.8475 H         1 <0>         0.1413
     51 H21        10.1265   -1.7571   -1.6432 H         1 <0>         0.1270
     52 H22        12.2479   -2.9965   -1.6471 H         1 <0>         0.1296
     53 H23        13.1276   -3.9630   -3.6992 H         1 <0>         0.1330
     54 H24         8.6099   -1.9012   -6.1528 H         1 <0>         0.1365
     55 H25        11.6388   -4.1055   -8.1890 H         1 <0>         0.1364
     56 H26        12.9046   -4.3763   -6.1269 H         1 <0>         0.1387
     57 H27         9.2919   -3.2592  -10.4686 H         1 <0>         0.1058
     58 H28        10.9195   -3.0024   -9.7954 H         1 <0>         0.0600
     59 H29        10.0448   -4.5152   -9.4568 H         1 <0>         0.0595
     60 N5          5.9513   -0.7185   -2.7404 N.4       1 <0>        -0.3980
     61 H30         5.9174   -1.4221   -1.9934 H         1 <0>         0.4253
@<TRIPOS>BOND
     1    1    2 1
     2    1   31 1
     3    1   32 1
     4    1   33 1
     5    2    8 am
     6    2    3 am
     7    3    4 2
     8    3    5 1
     9    5    6 2
    10    5   34 1
    11    6    7 1
    12    7    8 am
    13    7   10 1
    14    8    9 2
    15   10   11 1
    16   10   35 1
    17   10   36 1
    18   11   12 1
    19   11   37 1
    20   11   38 1
    21   12   13 1
    22   12   39 1
    23   12   40 1
    24   13   41 1
    25   13   42 1
    26   13   60 1
    27   14   15 1
    28   14   43 1
    29   14   44 1
    30   14   60 1
    31   15   16 1
    32   15   45 1
    33   15   46 1
    34   16   17 1
    35   16   19 1
    36   17   18 1
    37   17   47 1
    38   17   48 1
    39   18   49 1
    40   18   50 1
    41   18   60 1
    42   19   24 ar
    43   19   20 ar
    44   20   21 ar
    45   20   51 1
    46   21   22 ar
    47   21   52 1
    48   22   23 ar
    49   22   53 1
    50   23   28 ar
    51   23   24 ar
    52   24   25 ar
    53   25   26 ar
    54   25   54 1
    55   26   27 ar
    56   26   29 1
    57   27   28 ar
    58   27   55 1
    59   28   56 1
    60   29   30 1
    61   30   57 1
    62   30   58 1
    63   30   59 1
    64   60   61 1
@<TRIPOS>MOLECULE
ZINC04639456
   31    33     0     0     0
SMALL
USER_CHARGES
4-piperazin-1-yl-1H-indole
@<TRIPOS>ATOM
      1 C1          2.3861    1.3964   -0.0189 C.ar      1 <0>        -0.0806
      2 C2          2.4183    0.0192    0.0020 C.ar      1 <0>        -0.1286
      3 C3          1.2302   -0.7059    0.0272 C.ar      1 <0>         0.1128
      4 C4          0.0026   -0.0219    0.0311 C.ar      1 <0>        -0.1059
      5 C5         -1.0372   -1.0531    0.0585 C.2       1 <0>        -0.2071
      6 C6         -0.4118   -2.2405    0.0691 C.2       1 <0>         0.0642
      7 N1          0.9447   -2.0527    0.0507 N.pl3     1 <0>        -0.5922
      8 H1          1.6058   -2.7626    0.0538 H         1 <0>         0.4223
      9 C7         -0.0167    1.3795    0.0096 C.ar      1 <0>         0.1254
     10 C8          1.1778    2.0775   -0.0153 C.ar      1 <0>        -0.1859
     11 N2         -1.2318    2.0659    0.0191 N.pl3     1 <0>        -0.4839
     12 C9         -1.0225    3.5043    0.2358 C.3       1 <0>         0.0197
     13 C10        -2.3792    4.2077    0.3189 C.3       1 <0>         0.0015
     14 C11        -3.3382    2.5303   -1.1390 C.3       1 <0>         0.0008
     15 C12        -1.9814    1.8269   -1.2221 C.3       1 <0>         0.0249
     16 H2          3.3121    1.9519   -0.0381 H         1 <0>         0.1324
     17 H3          3.3662   -0.4984   -0.0007 H         1 <0>         0.1266
     18 H4         -2.1046   -0.8890    0.0683 H         1 <0>         0.1457
     19 H5         -0.9049   -3.2012    0.0886 H         1 <0>         0.1754
     20 H6          1.1693    3.1573   -0.0322 H         1 <0>         0.1260
     21 H7         -0.4766    3.6561    1.1670 H         1 <0>         0.1282
     22 H8         -0.4489    3.9174   -0.5939 H         1 <0>         0.0706
     23 H9         -2.2260    5.2788    0.4506 H         1 <0>         0.1403
     24 H10        -2.9421    3.8140    1.1652 H         1 <0>         0.1398
     25 H11        -3.8841    2.3785   -2.0702 H         1 <0>         0.1399
     26 H12        -3.9119    2.1170   -0.3095 H         1 <0>         0.1400
     27 H13        -1.4187    2.2209   -2.0684 H         1 <0>         0.0668
     28 H14        -2.1343    0.7558   -1.3540 H         1 <0>         0.1294
     29 N3         -3.1320    3.9758   -0.9284 N.4       1 <0>        -0.5187
     30 H15        -2.6039    4.3617   -1.7198 H         1 <0>         0.4309
     31 H16        -4.0443    4.4427   -0.8655 H         1 <0>         0.4391
@<TRIPOS>BOND
     1    1   10 ar
     2    1    2 ar
     3    1   16 1
     4    2    3 ar
     5    2   17 1
     6    3    7 1
     7    3    4 ar
     8    4    5 1
     9    4    9 ar
    10    5    6 2
    11    5   18 1
    12    6    7 1
    13    6   19 1
    14    7    8 1
    15    9   10 ar
    16    9   11 1
    17   10   20 1
    18   11   15 1
    19   11   12 1
    20   12   13 1
    21   12   21 1
    22   12   22 1
    23   13   23 1
    24   13   24 1
    25   13   29 1
    26   14   15 1
    27   14   25 1
    28   14   26 1
    29   14   29 1
    30   15   27 1
    31   15   28 1
    32   29   30 1
    33   29   31 1
@<TRIPOS>MOLECULE
ZINC22142484
   33    34     0     0     0
SMALL
USER_CHARGES

@<TRIPOS>ATOM
      1 C1          6.8766   -5.3105   -0.1846 C.ar      1 <0>        -0.0619
      2 C2          5.5067   -5.3083   -0.3699 C.ar      1 <0>        -0.1465
      3 C3          4.8047   -4.1184   -0.3223 C.ar      1 <0>        -0.0228
      4 C4          5.4725   -2.9308   -0.0889 C.ar      1 <0>        -0.6765
      5 C5          6.8422   -2.9331    0.0974 C.ar      1 <0>        -0.0165
      6 C6          7.5444   -4.1228    0.0483 C.ar      1 <0>        -0.1374
      7 S1          4.5778   -1.4140   -0.0293 S.o2      1 <0>         2.6836
      8 O1          5.4718   -0.3979   -0.4624 O.2       1 <0>        -0.9375
      9 O2          3.3302   -1.6531   -0.6661 O.2       1 <0>        -0.9404
     10 N1          4.2448   -1.1042    1.5630 N.pl3     1 <0>        -1.0680
     11 C7          3.4385   -1.9818    2.2914 C.ar      1 <0>         0.1349
     12 C8          2.0642   -1.9961    2.0880 C.ar      1 <0>        -0.0701
     13 C9          1.2701   -2.8654    2.8095 C.ar      1 <0>        -0.1021
     14 C10         1.8413   -3.7208    3.7341 C.ar      1 <0>        -0.0831
     15 C11         3.2086   -3.7088    3.9394 C.ar      1 <0>        -0.1660
     16 C12         4.0095   -2.8461    3.2166 C.ar      1 <0>        -0.0892
     17 C13         3.8264   -4.6419    4.9486 C.3       1 <0>         0.0481
     18 N2          4.1834   -5.9066    4.2920 N.4       1 <0>        -0.6387
     19 H1          7.4244   -6.2406   -0.2174 H         1 <0>         0.1348
     20 H2          4.9850   -6.2362   -0.5523 H         1 <0>         0.1350
     21 H3          3.7345   -4.1166   -0.4678 H         1 <0>         0.1413
     22 H4          7.3640   -2.0052    0.2794 H         1 <0>         0.1423
     23 H5          8.6146   -4.1245    0.1935 H         1 <0>         0.1379
     24 H6          4.6096   -0.3132    1.9898 H         1 <0>         0.4327
     25 H7          1.6175   -1.3280    1.3667 H         1 <0>         0.1495
     26 H8          0.2018   -2.8770    2.6519 H         1 <0>         0.1459
     27 H9          1.2179   -4.3994    4.2974 H         1 <0>         0.1384
     28 H10         5.0779   -2.8406    3.3740 H         1 <0>         0.1385
     29 H11         4.7229   -4.1836    5.3661 H         1 <0>         0.1412
     30 H12         3.1119   -4.8368    5.7483 H         1 <0>         0.1442
     31 H13         3.3535   -6.3308    3.9055 H         1 <0>         0.4356
     32 H14         4.8448   -5.7262    3.5517 H         1 <0>         0.4338
     33 H15         4.5970   -6.5314    4.9677 H         1 <0>         0.4391
@<TRIPOS>BOND
     1    1    6 ar
     2    1    2 ar
     3    1   19 1
     4    2    3 ar
     5    2   20 1
     6    3    4 ar
     7    3   21 1
     8    4    5 ar
     9    4    7 1
    10    5    6 ar
    11    5   22 1
    12    6   23 1
    13    7    8 2
    14    7    9 2
    15    7   10 1
    16   10   11 1
    17   10   24 1
    18   11   16 ar
    19   11   12 ar
    20   12   13 ar
    21   12   25 1
    22   13   14 ar
    23   13   26 1
    24   14   15 ar
    25   14   27 1
    26   15   16 ar
    27   15   17 1
    28   16   28 1
    29   17   18 1
    30   17   29 1
    31   17   30 1
    32   18   31 1
    33   18   32 1
    34   18   33 1
@<TRIPOS>MOLECULE
ZINC22142484
   32    33     0     0     0
SMALL
USER_CHARGES

@<TRIPOS>ATOM
      1 C1         -0.0167    1.3781    0.0096 C.ar      1 <0>        -0.0786
      2 C2          1.1709    2.0855    0.0021 C.ar      1 <0>        -0.1458
      3 C3          2.3773    1.4107   -0.0130 C.ar      1 <0>        -0.0257
      4 C4          2.3960    0.0285   -0.0201 C.ar      1 <0>        -0.6215
      5 C5          1.2084   -0.6789   -0.0117 C.ar      1 <0>        -0.0249
      6 C6          0.0021   -0.0041    0.0020 C.ar      1 <0>        -0.1450
      7 S1          3.9337   -0.8316   -0.0405 S.o2      1 <0>         2.6123
      8 O1          3.6744   -2.1140   -0.5951 O.2       1 <0>        -1.0227
      9 O2          4.8903    0.0598   -0.5970 O.2       1 <0>        -1.0248
     10 N1          4.3776   -1.0785    1.5357 N.2       1 <0>        -1.0871
     11 C7          5.5694   -1.7449    1.8294 C.ar      1 <0>         0.2834
     12 C8          6.3866   -2.1962    0.8004 C.ar      1 <0>        -0.2340
     13 C9          7.5644   -2.8543    1.0942 C.ar      1 <0>        -0.0600
     14 C10         7.9308   -3.0647    2.4112 C.ar      1 <0>        -0.2097
     15 C11         7.1197   -2.6173    3.4377 C.ar      1 <0>        -0.1312
     16 C12         5.9432   -1.9529    3.1508 C.ar      1 <0>        -0.1630
     17 C13         7.5226   -2.8497    4.8711 C.3       1 <0>         0.0537
     18 N2          8.3286   -1.7159    5.3432 N.4       1 <0>        -0.6357
     19 H1         -0.9591    1.9053    0.0259 H         1 <0>         0.1264
     20 H2          1.1563    3.1654    0.0076 H         1 <0>         0.1281
     21 H3          3.3051    1.9634   -0.0196 H         1 <0>         0.1354
     22 H4          1.2231   -1.7588   -0.0176 H         1 <0>         0.1361
     23 H5         -0.9258   -0.5567    0.0082 H         1 <0>         0.1285
     24 H6          6.1007   -2.0329   -0.2282 H         1 <0>         0.1066
     25 H7          8.2000   -3.2054    0.2948 H         1 <0>         0.1142
     26 H8          8.8524   -3.5800    2.6383 H         1 <0>         0.1091
     27 H9          5.3125   -1.5994    3.9530 H         1 <0>         0.1194
     28 H10         6.6294   -2.9428    5.4890 H         1 <0>         0.1320
     29 H11         8.1090   -3.7659    4.9397 H         1 <0>         0.1304
     30 H12         9.1553   -1.6297    4.7712 H         1 <0>         0.4322
     31 H13         7.7857   -0.8678    5.2797 H         1 <0>         0.4348
     32 H14         8.5983   -1.8716    6.3030 H         1 <0>         0.4272
@<TRIPOS>BOND
     1    1    6 ar
     2    1    2 ar
     3    1   19 1
     4    2    3 ar
     5    2   20 1
     6    3    4 ar
     7    3   21 1
     8    4    5 ar
     9    4    7 1
    10    5    6 ar
    11    5   22 1
    12    6   23 1
    13    7    8 2
    14    7    9 2
    15    7   10 1
    16   10   11 1
    17   11   16 ar
    18   11   12 ar
    19   12   13 ar
    20   12   24 1
    21   13   14 ar
    22   13   25 1
    23   14   15 ar
    24   14   26 1
    25   15   16 ar
    26   15   17 1
    27   16   27 1
    28   17   18 1
    29   17   28 1
    30   17   29 1
    31   18   30 1
    32   18   31 1
    33   18   32 1
@<TRIPOS>MOLECULE
ZINC03716178
   40    42     0     0     0
SMALL
USER_CHARGES
1-(4-phenylsulfonylphenyl)piperazine
@<TRIPOS>ATOM
      1 C1         -1.2377    3.1328    0.0303 C.ar      1 <0>        -0.0588
      2 C2         -1.2190    1.7507    0.0173 C.ar      1 <0>        -0.1376
      3 C3         -0.0126    1.0758    0.0080 C.ar      1 <0>        -0.0237
      4 C4          1.1750    1.7832    0.0004 C.ar      1 <0>        -0.6612
      5 C5          1.1563    3.1654    0.0076 C.ar      1 <0>        -0.0231
      6 C6         -0.0501    3.8402    0.0223 C.ar      1 <0>        -0.1371
      7 S1          2.7127    0.9231   -0.0189 S.o2      1 <0>         2.5804
      8 O1          3.6804    1.8087    0.5274 O.2       1 <0>        -0.9305
      9 O2          2.4644   -0.3650    0.5273 O.2       1 <0>        -0.9315
     10 C7          3.1512    0.6779   -1.7078 C.ar      1 <0>        -0.6676
     11 C8          2.7426   -0.4668   -2.3674 C.ar      1 <0>         0.0096
     12 C9          3.0798   -0.6595   -3.6928 C.ar      1 <0>        -0.1845
     13 C10         3.8399    0.2928   -4.3599 C.ar      1 <0>         0.1434
     14 C11         4.2535    1.4388   -3.6926 C.ar      1 <0>        -0.1499
     15 C12         3.9080    1.6278   -2.3689 C.ar      1 <0>         0.0076
     16 N1          4.1879    0.0982   -5.6985 N.pl3     1 <0>        -0.4913
     17 C13         5.6453    0.1572   -5.8777 C.3       1 <0>         0.0231
     18 C14         5.9798    0.0193   -7.3649 C.3       1 <0>         0.0010
     19 C15         3.9836   -1.3103   -7.6905 C.3       1 <0>         0.0014
     20 C16         3.6492   -1.1724   -6.2034 C.3       1 <0>         0.0153
     21 H1         -2.1802    3.6600    0.0422 H         1 <0>         0.1352
     22 H2         -2.1469    1.1980    0.0188 H         1 <0>         0.1367
     23 H3          0.0021   -0.0041    0.0020 H         1 <0>         0.1420
     24 H4          2.0841    3.7181    0.0014 H         1 <0>         0.1426
     25 H5         -0.0647    4.9201    0.0280 H         1 <0>         0.1371
     26 H6          2.1557   -1.2090   -1.8468 H         1 <0>         0.1498
     27 H7          2.7566   -1.5516   -4.2086 H         1 <0>         0.1387
     28 H8          4.8449    2.1809   -4.2083 H         1 <0>         0.1400
     29 H9          4.2290    2.5187   -1.8497 H         1 <0>         0.1517
     30 H10         6.0188    1.1121   -5.5080 H         1 <0>         0.1316
     31 H11         6.1132   -0.6561   -5.3229 H         1 <0>         0.0747
     32 H12         7.0616    0.0338   -7.4972 H         1 <0>         0.1441
     33 H13         5.5346    0.8477   -7.9160 H         1 <0>         0.1419
     34 H14         3.6101   -2.2652   -8.0603 H         1 <0>         0.1438
     35 H15         3.5154   -0.4973   -8.2455 H         1 <0>         0.1414
     36 H16         4.0943   -2.0008   -5.6523 H         1 <0>         0.0766
     37 H17         2.5673   -1.1869   -6.0711 H         1 <0>         0.1322
     38 N2          5.4464   -1.2585   -7.8738 N.4       1 <0>        -0.5196
     39 H18         5.8800   -2.0351   -7.3608 H         1 <0>         0.4324
     40 H19         5.6661   -1.3435   -8.8731 H         1 <0>         0.4418
@<TRIPOS>BOND
     1    1    6 ar
     2    1    2 ar
     3    1   21 1
     4    2    3 ar
     5    2   22 1
     6    3    4 ar
     7    3   23 1
     8    4    5 ar
     9    4    7 1
    10    5    6 ar
    11    5   24 1
    12    6   25 1
    13    7    8 2
    14    7    9 2
    15    7   10 1
    16   10   15 ar
    17   10   11 ar
    18   11   12 ar
    19   11   26 1
    20   12   13 ar
    21   12   27 1
    22   13   14 ar
    23   13   16 1
    24   14   15 ar
    25   14   28 1
    26   15   29 1
    27   16   20 1
    28   16   17 1
    29   17   18 1
    30   17   30 1
    31   17   31 1
    32   18   32 1
    33   18   33 1
    34   18   38 1
    35   19   20 1
    36   19   34 1
    37   19   35 1
    38   19   38 1
    39   20   36 1
    40   20   37 1
    41   38   39 1
    42   38   40 1
@<TRIPOS>MOLECULE
ZINC05845906
   47    50     0     0     0
SMALL
USER_CHARGES
N,N-diethylBLAHcarboxamide
@<TRIPOS>ATOM
      1 C1         10.1154    4.0908    0.9629 C.3       1 <0>        -0.1689
      2 C2          9.3827    2.8749    0.3922 C.3       1 <0>         0.1059
      3 N1          8.0009    2.8649    0.8788 N.am      1 <0>        -0.5994
      4 C3          7.6685    2.1724    2.1263 C.3       1 <0>         0.0952
      5 C4          7.4223    0.6903    1.8369 C.3       1 <0>        -0.1777
      6 C5          7.0353    3.4927    0.1787 C.2       1 <0>         0.5275
      7 O1          7.2960    4.0041   -0.8897 O.2       1 <0>        -0.5215
      8 C6          5.6318    3.5591    0.7234 C.3       1 <0>        -0.1037
      9 H1          5.6614    3.5800    1.8128 H         1 <0>         0.1318
     10 C7          4.9344    4.8203    0.2009 C.3       1 <0>         0.0123
     11 C8          2.7678    3.7075    0.1065 C.3       1 <0>         0.0770
     12 H2          2.4882    4.0087   -0.9030 H         1 <0>         0.1432
     13 C9          1.4649    3.5406    0.9006 C.3       1 <0>        -0.0418
     14 C10         0.7175    2.3378    0.3870 C.2       1 <0>        -0.2020
     15 C11        -0.5543    1.9528    0.3780 C.2       1 <0>         0.0975
     16 N2         -0.6768    0.7107   -0.2254 N.pl3     1 <0>        -0.5870
     17 H3         -1.5125    0.2323   -0.3424 H         1 <0>         0.4251
     18 C12         0.5420    0.2565   -0.6301 C.ar      1 <0>         0.1110
     19 C13         1.4473    1.2572   -0.2660 C.ar      1 <0>        -0.1239
     20 C14         2.8384    1.2287   -0.4974 C.ar      1 <0>        -0.0315
     21 C15         3.3141    0.1000   -1.1249 C.ar      1 <0>        -0.1002
     22 C16         2.4291   -0.9121   -1.4903 C.ar      1 <0>        -0.0995
     23 C17         1.0578   -0.8723   -1.2655 C.ar      1 <0>        -0.0957
     24 C18         3.5615    2.4339   -0.0168 C.2       1 <0>        -0.0571
     25 C19         4.8510    2.3587    0.2604 C.2       1 <0>        -0.1318
     26 H4          9.6109    5.0024    0.6427 H         1 <0>         0.0578
     27 H5         10.1140    4.0379    2.0516 H         1 <0>         0.0583
     28 H6         11.1436    4.0983    0.6009 H         1 <0>         0.0748
     29 H7          9.8872    1.9633    0.7124 H         1 <0>         0.0855
     30 H8          9.3842    2.9278   -0.6965 H         1 <0>         0.0902
     31 H9          8.4957    2.2728    2.8290 H         1 <0>         0.0904
     32 H10         6.7696    2.6126    2.5579 H         1 <0>         0.0795
     33 H11         6.6661    0.5930    1.0579 H         1 <0>         0.0576
     34 H12         8.3502    0.2263    1.5026 H         1 <0>         0.0670
     35 H13         7.0751    0.1958    2.7441 H         1 <0>         0.0761
     36 H14         5.4408    5.7053    0.5861 H         1 <0>         0.1448
     37 H15         4.9603    4.8285   -0.8888 H         1 <0>         0.1508
     38 H16         0.8482    4.4312    0.7788 H         1 <0>         0.1024
     39 H17         1.6977    3.4007    1.9562 H         1 <0>         0.0943
     40 H18        -1.3758    2.5276    0.7793 H         1 <0>         0.1766
     41 H19         4.3689   -0.0006   -1.3337 H         1 <0>         0.1277
     42 H20         2.8350   -1.7850   -1.9798 H         1 <0>         0.1319
     43 H21         0.4160   -1.6853   -1.5713 H         1 <0>         0.1379
     44 H22         5.3579    1.4112    0.1523 H         1 <0>         0.1469
     45 N3          3.5405    4.8156    0.6902 N.4       1 <0>        -0.5113
     46 H23         3.0942    5.7044    0.4349 H         1 <0>         0.4451
     47 H24         3.5459    4.7166    1.7122 H         1 <0>         0.4312
@<TRIPOS>BOND
     1    1    2 1
     2    1   26 1
     3    1   27 1
     4    1   28 1
     5    2    3 1
     6    2   29 1
     7    2   30 1
     8    3    4 1
     9    3    6 am
    10    4    5 1
    11    4   31 1
    12    4   32 1
    13    5   33 1
    14    5   34 1
    15    5   35 1
    16    6    7 2
    17    6    8 1
    18    8    9 1
    19    8   25 1
    20    8   10 1
    21   10   36 1
    22   10   37 1
    23   10   45 1
    24   11   12 1
    25   11   24 1
    26   11   13 1
    27   11   45 1
    28   13   14 1
    29   13   38 1
    30   13   39 1
    31   14   19 1
    32   14   15 2
    33   15   16 1
    34   15   40 1
    35   16   17 1
    36   16   18 1
    37   18   23 ar
    38   18   19 ar
    39   19   20 ar
    40   20   21 ar
    41   20   24 1
    42   21   22 ar
    43   21   41 1
    44   22   23 ar
    45   22   42 1
    46   23   43 1
    47   24   25 2
    48   25   44 1
    49   45   46 1
    50   45   47 1
@<TRIPOS>MOLECULE
ZINC28884074
   31    33     0     0     0
SMALL
USER_CHARGES

@<TRIPOS>ATOM
      1 C1         -0.0165    1.3620    0.0095 C.ar      1 <0>        -0.1494
      2 C2          1.1697    2.0834    0.0021 C.ar      1 <0>        -0.1011
      3 C3          2.3856    1.4362   -0.0134 C.ar      1 <0>        -0.1287
      4 C4          2.4281    0.0456   -0.0212 C.ar      1 <0>         0.1020
      5 C5          1.2234   -0.6807   -0.0132 C.ar      1 <0>        -0.1117
      6 C6          0.0021   -0.0041    0.0020 C.ar      1 <0>        -0.0715
      7 C7          1.6036   -2.0953   -0.0245 C.2       1 <0>        -0.2071
      8 C8          2.9451   -2.1410   -0.0380 C.2       1 <0>         0.0535
      9 N1          3.4551   -0.8713   -0.0363 N.pl3     1 <0>        -0.4778
     10 C9          4.8815   -0.5372   -0.0482 C.3       1 <0>         0.1587
     11 C10         5.3560   -0.3100    1.3640 C.ar      1 <0>        -0.1772
     12 C11         5.2947    0.9559    1.9171 C.ar      1 <0>        -0.0475
     13 C12         5.7288    1.1676    3.2109 C.ar      1 <0>        -0.1993
     14 C13         6.2272    0.1071    3.9569 C.ar      1 <0>         0.2256
     15 C14         6.2873   -1.1633    3.3983 C.ar      1 <0>        -0.2004
     16 C15         5.8464   -1.3691    2.1058 C.ar      1 <0>        -0.0490
     17 N2          6.6675    0.3178    5.2656 N.pl3     1 <0>        -0.8765
     18 H1         -0.9613    1.8849    0.0259 H         1 <0>         0.1205
     19 H2          1.1388    3.1630    0.0081 H         1 <0>         0.1229
     20 H3          3.3028    2.0064   -0.0198 H         1 <0>         0.1152
     21 H4         -0.9246   -0.5587    0.0082 H         1 <0>         0.1201
     22 H5          0.9320   -2.9411   -0.0220 H         1 <0>         0.1450
     23 H6          3.5346   -3.0459   -0.0490 H         1 <0>         0.1654
     24 H7          5.4433   -1.3588   -0.4925 H         1 <0>         0.0956
     25 H8          5.0376    0.3686   -0.6341 H         1 <0>         0.0901
     26 H9          4.9074    1.7801    1.3364 H         1 <0>         0.1199
     27 H10         5.6810    2.1566    3.6422 H         1 <0>         0.1217
     28 H11         6.6747   -1.9899    3.9754 H         1 <0>         0.1217
     29 H12         5.8887   -2.3574    1.6723 H         1 <0>         0.1207
     30 H13         6.6253    1.2054    5.6546 H         1 <0>         0.3995
     31 H14         7.0153   -0.4235    5.7856 H         1 <0>         0.3994
@<TRIPOS>BOND
     1    1    6 ar
     2    1    2 ar
     3    1   18 1
     4    2    3 ar
     5    2   19 1
     6    3    4 ar
     7    3   20 1
     8    4    9 1
     9    4    5 ar
    10    5    6 ar
    11    5    7 1
    12    6   21 1
    13    7    8 2
    14    7   22 1
    15    8    9 1
    16    8   23 1
    17    9   10 1
    18   10   11 1
    19   10   24 1
    20   10   25 1
    21   11   16 ar
    22   11   12 ar
    23   12   13 ar
    24   12   26 1
    25   13   14 ar
    26   13   27 1
    27   14   15 ar
    28   14   17 1
    29   15   16 ar
    30   15   28 1
    31   16   29 1
    32   17   30 1
    33   17   31 1
@<TRIPOS>MOLECULE
ZINC04131968
   55    57     0     0     0
SMALL
USER_CHARGES
N-[2-(2-methoxyphenoxy)ethyl]-5-(4-methylpiperazin-1-yl)-2-nitro-aniline
@<TRIPOS>ATOM
      1 C1         -0.1202    0.3541    2.0508 C.3       1 <0>        -0.0411
      2 C2         -0.0840    0.6675   -0.3503 C.3       1 <0>         0.0017
      3 C3         -0.8168    1.3273   -1.5208 C.3       1 <0>         0.0162
      4 N1         -0.8233    2.7847   -1.3324 N.pl3     1 <0>        -0.4884
      5 C4         -1.4898    3.1471   -0.0737 C.3       1 <0>         0.0247
      6 C5         -0.7570    2.4873    1.0968 C.3       1 <0>         0.0014
      7 C6         -1.4217    3.4271   -2.4186 C.ar      1 <0>         0.1915
      8 C7         -1.9067    2.6818   -3.4868 C.ar      1 <0>        -0.2292
      9 C8         -2.5025    3.3162   -4.5596 C.ar      1 <0>         0.0262
     10 C9         -2.6098    4.6936   -4.5790 C.ar      1 <0>        -0.1382
     11 C10        -2.1223    5.4451   -3.5168 C.ar      1 <0>         0.3113
     12 C11        -1.5274    4.8105   -2.4352 C.ar      1 <0>        -0.2228
     13 N2         -2.2304    6.8374   -3.5376 N.pl3     1 <0>        -0.7056
     14 C12        -1.8317    7.6207   -2.3656 C.3       1 <0>         0.1156
     15 C13        -2.0484    9.1086   -2.6487 C.3       1 <0>         0.0429
     16 O1         -3.4445    9.3631   -2.8164 O.3       1 <0>        -0.3026
     17 C14        -3.8112   10.6466   -3.0764 C.ar      1 <0>         0.0948
     18 C15        -2.8488   11.6398   -3.1625 C.ar      1 <0>        -0.1714
     19 C16        -3.2228   12.9431   -3.4321 C.ar      1 <0>        -0.1166
     20 C17        -4.5571   13.2607   -3.6061 C.ar      1 <0>        -0.1104
     21 C18        -5.5228   12.2756   -3.5159 C.ar      1 <0>        -0.1720
     22 C19        -5.1542   10.9664   -3.2511 C.ar      1 <0>         0.1032
     23 O2         -6.1029    9.9962   -3.1616 O.3       1 <0>        -0.3085
     24 C20        -7.4612   10.3974   -3.3520 C.3       1 <0>         0.0251
     25 N3         -3.2443    5.3694   -5.7328 N.pl3     1 <0>         0.0478
     26 O3         -3.7708    4.7097   -6.6109 O.2       1 <0>        -0.1479
     27 O4         -3.2401    6.5853   -5.8042 O.3       1 <0>        -0.1937
     28 H1          0.9279    0.6466    2.1132 H         1 <0>         0.1251
     29 H2         -0.6325    0.6398    2.9696 H         1 <0>         0.1240
     30 H3         -0.1889   -0.7255    1.9173 H         1 <0>         0.1243
     31 H4         -0.1031   -0.4154   -0.4732 H         1 <0>         0.1412
     32 H5          0.9496    1.0127   -0.3273 H         1 <0>         0.1417
     33 H6         -0.3070    1.0834   -2.4529 H         1 <0>         0.1347
     34 H7         -1.8427    0.9611   -1.5605 H         1 <0>         0.0784
     35 H8         -1.4707    4.2299    0.0492 H         1 <0>         0.1308
     36 H9         -2.5234    2.8016   -0.0970 H         1 <0>         0.0760
     37 H10         0.2688    2.8535    1.1364 H         1 <0>         0.1421
     38 H11        -1.2666    2.7315    2.0289 H         1 <0>         0.1408
     39 H12        -1.8207    1.6053   -3.4766 H         1 <0>         0.1457
     40 H13        -2.8816    2.7345   -5.3868 H         1 <0>         0.1587
     41 H14        -1.1474    5.3923   -1.6084 H         1 <0>         0.1475
     42 H15        -2.5694    7.2858   -4.3281 H         1 <0>         0.4285
     43 H16        -2.4339    7.3227   -1.5073 H         1 <0>         0.0812
     44 H17        -0.7783    7.4415   -2.1500 H         1 <0>         0.0919
     45 H18        -1.6697    9.6965   -1.8126 H         1 <0>         0.0854
     46 H19        -1.5165    9.3865   -3.5586 H         1 <0>         0.0748
     47 H20        -1.8063   11.3952   -3.0226 H         1 <0>         0.1335
     48 H21        -2.4714   13.7156   -3.5030 H         1 <0>         0.1297
     49 H22        -4.8457   14.2808   -3.8125 H         1 <0>         0.1303
     50 H23        -6.5644   12.5265   -3.6514 H         1 <0>         0.1373
     51 H24        -8.1134    9.5295   -3.2548 H         1 <0>         0.1009
     52 H25        -7.7296   11.1397   -2.6003 H         1 <0>         0.0562
     53 H26        -7.5765   10.8290   -4.3463 H         1 <0>         0.0577
     54 N4         -0.7767    1.0215    0.9063 N.4       1 <0>        -0.4009
     55 H27        -1.7519    0.7052    0.8504 H         1 <0>         0.4285
@<TRIPOS>BOND
     1    1   28 1
     2    1   29 1
     3    1   30 1
     4    1   54 1
     5    2    3 1
     6    2   31 1
     7    2   32 1
     8    2   54 1
     9    3    4 1
    10    3   33 1
    11    3   34 1
    12    4    5 1
    13    4    7 1
    14    5    6 1
    15    5   35 1
    16    5   36 1
    17    6   37 1
    18    6   38 1
    19    6   54 1
    20    7   12 ar
    21    7    8 ar
    22    8    9 ar
    23    8   39 1
    24    9   10 ar
    25    9   40 1
    26   10   11 ar
    27   10   25 1
    28   11   12 ar
    29   11   13 1
    30   12   41 1
    31   13   14 1
    32   13   42 1
    33   14   15 1
    34   14   43 1
    35   14   44 1
    36   15   16 1
    37   15   45 1
    38   15   46 1
    39   16   17 1
    40   17   22 ar
    41   17   18 ar
    42   18   19 ar
    43   18   47 1
    44   19   20 ar
    45   19   48 1
    46   20   21 ar
    47   20   49 1
    48   21   22 ar
    49   21   50 1
    50   22   23 1
    51   23   24 1
    52   24   51 1
    53   24   52 1
    54   24   53 1
    55   25   26 2
    56   25   27 1
    57   54   55 1
@<TRIPOS>MOLECULE
ZINC04687384
   50    52     0     0     0
SMALL
USER_CHARGES
5-(4-methylpiperazin-1-yl)-2-nitro-N-phenethyl-aniline
@<TRIPOS>ATOM
      1 C1         -1.0766    0.9648    2.6382 C.3       1 <0>        -0.0411
      2 C2         -0.5492    1.1044    0.2787 C.3       1 <0>         0.0016
      3 C3         -1.0618    1.6046   -1.0739 C.3       1 <0>         0.0164
      4 N1         -1.2216    3.0646   -1.0248 N.pl3     1 <0>        -0.4882
      5 C4         -2.1692    3.4527    0.0292 C.3       1 <0>         0.0250
      6 C5         -1.6565    2.9526    1.3818 C.3       1 <0>         0.0013
      7 C6         -1.6202    3.5665   -2.2658 C.ar      1 <0>         0.1856
      8 C7         -1.8050    2.7026   -3.3389 C.ar      1 <0>        -0.2230
      9 C8         -2.2052    3.1975   -4.5648 C.ar      1 <0>         0.0198
     10 C9         -2.4112    4.5535   -4.7321 C.ar      1 <0>        -0.1310
     11 C10        -2.2228    5.4233   -3.6651 C.ar      1 <0>         0.3055
     12 C11        -1.8266    4.9287   -2.4302 C.ar      1 <0>        -0.2141
     13 N2         -2.4321    6.7937   -3.8348 N.pl3     1 <0>        -0.7202
     14 C12        -2.1109    7.7238   -2.7494 C.3       1 <0>         0.1233
     15 C13        -2.4313    9.1532   -3.1909 C.3       1 <0>        -0.0940
     16 C14        -2.1009   10.1098   -2.0744 C.ar      1 <0>        -0.0886
     17 C15        -3.0626   10.4363   -1.1366 C.ar      1 <0>        -0.1152
     18 C16        -2.7579   11.3098   -0.1094 C.ar      1 <0>        -0.1176
     19 C17        -1.4948   11.8652   -0.0263 C.ar      1 <0>        -0.1168
     20 C18        -0.5348   11.5432   -0.9674 C.ar      1 <0>        -0.1160
     21 C19        -0.8378   10.6653   -1.9913 C.ar      1 <0>        -0.1127
     22 N3         -2.8336    5.0801   -6.0493 N.pl3     1 <0>         0.0333
     23 O1         -3.6160    4.4473   -6.7356 O.2       1 <0>        -0.1431
     24 O2         -2.3989    6.1461   -6.4469 O.3       1 <0>        -0.1735
     25 H1         -0.0922    1.3593    2.8901 H         1 <0>         0.1252
     26 H2         -1.7950    1.2667    3.4003 H         1 <0>         0.1241
     27 H3         -1.0311   -0.1233    2.5924 H         1 <0>         0.1244
     28 H4         -0.4575    0.0186    0.2539 H         1 <0>         0.1413
     29 H5          0.4255    1.5471    0.4844 H         1 <0>         0.1418
     30 H6         -0.3462    1.3431   -1.8534 H         1 <0>         0.1344
     31 H7         -2.0237    1.1407   -1.2923 H         1 <0>         0.0782
     32 H8         -2.2608    4.5386    0.0540 H         1 <0>         0.1302
     33 H9         -3.1436    3.0098   -0.1767 H         1 <0>         0.0758
     34 H10        -0.6946    3.4165    1.6003 H         1 <0>         0.1422
     35 H11        -2.3719    3.2145    2.1613 H         1 <0>         0.1408
     36 H12        -1.6398    1.6428   -3.2128 H         1 <0>         0.1459
     37 H13        -2.3527    2.5235   -5.3958 H         1 <0>         0.1534
     38 H14        -1.6791    5.6026   -1.5993 H         1 <0>         0.1479
     39 H15        -2.7902    7.1297   -4.6713 H         1 <0>         0.4166
     40 H16        -2.7036    7.4738   -1.8694 H         1 <0>         0.0693
     41 H17        -1.0509    7.6473   -2.5072 H         1 <0>         0.0749
     42 H18        -1.8387    9.4031   -4.0709 H         1 <0>         0.0876
     43 H19        -3.4913    9.2296   -3.4331 H         1 <0>         0.0828
     44 H20        -4.0508   10.0058   -1.2041 H         1 <0>         0.1211
     45 H21        -3.5078   11.5611    0.6260 H         1 <0>         0.1243
     46 H22        -1.2578   12.5505    0.7741 H         1 <0>         0.1246
     47 H23         0.4521   11.9772   -0.9024 H         1 <0>         0.1254
     48 H24        -0.0878   10.4137   -2.7266 H         1 <0>         0.1235
     49 N4         -1.5212    1.4816    1.3262 N.4       1 <0>        -0.4007
     50 H25        -2.4341    1.0708    1.0979 H         1 <0>         0.4284
@<TRIPOS>BOND
     1    1   25 1
     2    1   26 1
     3    1   27 1
     4    1   49 1
     5    2    3 1
     6    2   28 1
     7    2   29 1
     8    2   49 1
     9    3    4 1
    10    3   30 1
    11    3   31 1
    12    4    5 1
    13    4    7 1
    14    5    6 1
    15    5   32 1
    16    5   33 1
    17    6   34 1
    18    6   35 1
    19    6   49 1
    20    7   12 ar
    21    7    8 ar
    22    8    9 ar
    23    8   36 1
    24    9   10 ar
    25    9   37 1
    26   10   11 ar
    27   10   22 1
    28   11   12 ar
    29   11   13 1
    30   12   38 1
    31   13   14 1
    32   13   39 1
    33   14   15 1
    34   14   40 1
    35   14   41 1
    36   15   16 1
    37   15   42 1
    38   15   43 1
    39   16   21 ar
    40   16   17 ar
    41   17   18 ar
    42   17   44 1
    43   18   19 ar
    44   18   45 1
    45   19   20 ar
    46   19   46 1
    47   20   21 ar
    48   20   47 1
    49   21   48 1
    50   22   23 2
    51   22   24 1
    52   49   50 1
@<TRIPOS>MOLECULE
ZINC04131974
   55    57     0     0     0
SMALL
USER_CHARGES
N-[2-(4-methoxyphenoxy)ethyl]-5-(4-methylpiperazin-1-yl)-2-nitro-aniline
@<TRIPOS>ATOM
      1 C1         -0.1202    0.3541    2.0508 C.3       1 <0>        -0.0411
      2 C2         -0.0840    0.6675   -0.3503 C.3       1 <0>         0.0016
      3 C3         -0.8168    1.3273   -1.5208 C.3       1 <0>         0.0162
      4 N1         -0.8233    2.7847   -1.3324 N.pl3     1 <0>        -0.4886
      5 C4         -1.4898    3.1471   -0.0737 C.3       1 <0>         0.0248
      6 C5         -0.7570    2.4873    1.0968 C.3       1 <0>         0.0014
      7 C6         -1.4217    3.4271   -2.4186 C.ar      1 <0>         0.1918
      8 C7         -1.9067    2.6818   -3.4868 C.ar      1 <0>        -0.2286
      9 C8         -2.5025    3.3162   -4.5596 C.ar      1 <0>         0.0263
     10 C9         -2.6098    4.6936   -4.5790 C.ar      1 <0>        -0.1381
     11 C10        -2.1223    5.4451   -3.5168 C.ar      1 <0>         0.3107
     12 C11        -1.5274    4.8105   -2.4352 C.ar      1 <0>        -0.2228
     13 N2         -2.2304    6.8374   -3.5376 N.pl3     1 <0>        -0.7070
     14 C12        -1.8317    7.6207   -2.3656 C.3       1 <0>         0.1150
     15 C13        -2.0484    9.1086   -2.6487 C.3       1 <0>         0.0449
     16 O1         -3.4445    9.3631   -2.8164 O.3       1 <0>        -0.3133
     17 C14        -3.8112   10.6465   -3.0764 C.ar      1 <0>         0.0877
     18 C15        -2.8466   11.6395   -3.1622 C.ar      1 <0>        -0.1666
     19 C16        -3.2187   12.9424   -3.4307 C.ar      1 <0>        -0.1693
     20 C17        -4.5577   13.2593   -3.6049 C.ar      1 <0>         0.0985
     21 C18        -5.5227   12.2672   -3.5144 C.ar      1 <0>        -0.1104
     22 C19        -5.1502   10.9635   -3.2502 C.ar      1 <0>        -0.1055
     23 O2         -4.9244   14.5427   -3.8650 O.3       1 <0>        -0.3158
     24 C20        -3.8782   15.5129   -3.9444 C.3       1 <0>         0.0263
     25 N3         -3.2443    5.3694   -5.7328 N.pl3     1 <0>         0.0476
     26 O3         -3.7708    4.7097   -6.6109 O.2       1 <0>        -0.1465
     27 O4         -3.2401    6.5853   -5.8042 O.3       1 <0>        -0.1947
     28 H1          0.9279    0.6466    2.1132 H         1 <0>         0.1251
     29 H2         -0.6325    0.6398    2.9696 H         1 <0>         0.1241
     30 H3         -0.1889   -0.7255    1.9173 H         1 <0>         0.1244
     31 H4         -0.1031   -0.4154   -0.4732 H         1 <0>         0.1413
     32 H5          0.9496    1.0127   -0.3273 H         1 <0>         0.1417
     33 H6         -0.3070    1.0834   -2.4529 H         1 <0>         0.1348
     34 H7         -1.8427    0.9611   -1.5605 H         1 <0>         0.0785
     35 H8         -1.4707    4.2299    0.0492 H         1 <0>         0.1307
     36 H9         -2.5234    2.8016   -0.0970 H         1 <0>         0.0761
     37 H10         0.2688    2.8535    1.1364 H         1 <0>         0.1420
     38 H11        -1.2666    2.7315    2.0289 H         1 <0>         0.1409
     39 H12        -1.8207    1.6053   -3.4766 H         1 <0>         0.1460
     40 H13        -2.8816    2.7345   -5.3868 H         1 <0>         0.1590
     41 H14        -1.1474    5.3923   -1.6084 H         1 <0>         0.1476
     42 H15        -2.5694    7.2858   -4.3281 H         1 <0>         0.4283
     43 H16        -2.4339    7.3227   -1.5073 H         1 <0>         0.0813
     44 H17        -0.7783    7.4415   -2.1500 H         1 <0>         0.0916
     45 H18        -1.6697    9.6965   -1.8126 H         1 <0>         0.0849
     46 H19        -1.5165    9.3865   -3.5586 H         1 <0>         0.0743
     47 H20        -1.8044   11.3934   -3.0225 H         1 <0>         0.1290
     48 H21        -2.4673   13.7149   -3.5012 H         1 <0>         0.1328
     49 H22        -6.5653   12.5140   -3.6500 H         1 <0>         0.1411
     50 H23        -5.9016   10.1910   -3.1793 H         1 <0>         0.1381
     51 H24        -3.3423   15.5479   -2.9959 H         1 <0>         0.0552
     52 H25        -3.1878   15.2382   -4.7419 H         1 <0>         0.0558
     53 H26        -4.3065   16.4926   -4.1561 H         1 <0>         0.1032
     54 N4         -0.7767    1.0215    0.9063 N.4       1 <0>        -0.4008
     55 H27        -1.7519    0.7052    0.8504 H         1 <0>         0.4286
@<TRIPOS>BOND
     1    1   28 1
     2    1   29 1
     3    1   30 1
     4    1   54 1
     5    2    3 1
     6    2   31 1
     7    2   32 1
     8    2   54 1
     9    3    4 1
    10    3   33 1
    11    3   34 1
    12    4    5 1
    13    4    7 1
    14    5    6 1
    15    5   35 1
    16    5   36 1
    17    6   37 1
    18    6   38 1
    19    6   54 1
    20    7   12 ar
    21    7    8 ar
    22    8    9 ar
    23    8   39 1
    24    9   10 ar
    25    9   40 1
    26   10   11 ar
    27   10   25 1
    28   11   12 ar
    29   11   13 1
    30   12   41 1
    31   13   14 1
    32   13   42 1
    33   14   15 1
    34   14   43 1
    35   14   44 1
    36   15   16 1
    37   15   45 1
    38   15   46 1
    39   16   17 1
    40   17   22 ar
    41   17   18 ar
    42   18   19 ar
    43   18   47 1
    44   19   20 ar
    45   19   48 1
    46   20   21 ar
    47   20   23 1
    48   21   22 ar
    49   21   49 1
    50   22   50 1
    51   23   24 1
    52   24   51 1
    53   24   52 1
    54   24   53 1
    55   25   26 2
    56   25   27 1
    57   54   55 1
@<TRIPOS>MOLECULE
ZINC04180759
   54    56     0     0     0
SMALL
USER_CHARGES
N-[2-(2-methylphenoxy)ethyl]-5-(4-methylpiperazin-1-yl)-2-nitro-aniline
@<TRIPOS>ATOM
      1 C1         -6.1999    9.8878   -3.1508 C.3       1 <0>        -0.1060
      2 C2         -5.1498   10.9641   -3.2503 C.ar      1 <0>        -0.1123
      3 C3         -5.5197   12.2688   -3.5144 C.ar      1 <0>        -0.0825
      4 C4         -4.5569   13.2566   -3.6053 C.ar      1 <0>        -0.1473
      5 C5         -3.2215   12.9419   -3.4318 C.ar      1 <0>        -0.0856
      6 C6         -2.8470   11.6400   -3.1623 C.ar      1 <0>        -0.2043
      7 C7         -3.8109   10.6457   -3.0763 C.ar      1 <0>         0.1222
      8 O1         -3.4445    9.3631   -2.8164 O.3       1 <0>        -0.3106
      9 C8         -2.0484    9.1086   -2.6487 C.3       1 <0>         0.0441
     10 C9         -1.8317    7.6207   -2.3656 C.3       1 <0>         0.1153
     11 N1         -2.2304    6.8374   -3.5376 N.pl3     1 <0>        -0.7070
     12 C10        -2.1223    5.4451   -3.5168 C.ar      1 <0>         0.3108
     13 C11        -1.5274    4.8105   -2.4352 C.ar      1 <0>        -0.2228
     14 C12        -1.4217    3.4271   -2.4186 C.ar      1 <0>         0.1919
     15 C13        -1.9067    2.6818   -3.4868 C.ar      1 <0>        -0.2285
     16 C14        -2.5025    3.3162   -4.5596 C.ar      1 <0>         0.0263
     17 C15        -2.6098    4.6936   -4.5790 C.ar      1 <0>        -0.1382
     18 N2         -3.2443    5.3694   -5.7328 N.pl3     1 <0>         0.0477
     19 O2         -3.7708    4.7097   -6.6109 O.2       1 <0>        -0.1464
     20 O3         -3.2401    6.5853   -5.8042 O.3       1 <0>        -0.1951
     21 N3         -0.8233    2.7847   -1.3324 N.pl3     1 <0>        -0.4885
     22 C16        -0.8168    1.3273   -1.5208 C.3       1 <0>         0.0162
     23 C17        -0.0840    0.6675   -0.3503 C.3       1 <0>         0.0016
     24 C18        -0.7570    2.4873    1.0968 C.3       1 <0>         0.0014
     25 C19        -1.4898    3.1471   -0.0737 C.3       1 <0>         0.0249
     26 C20        -0.1202    0.3541    2.0508 C.3       1 <0>        -0.0411
     27 H1         -6.5415    9.8077   -2.1188 H         1 <0>         0.0668
     28 H2         -7.0426   10.1419   -3.7937 H         1 <0>         0.0676
     29 H3         -5.7752    8.9354   -3.4679 H         1 <0>         0.0673
     30 H4         -6.5620   12.5172   -3.6496 H         1 <0>         0.1312
     31 H5         -4.8481   14.2759   -3.8118 H         1 <0>         0.1269
     32 H6         -2.4712   13.7155   -3.5029 H         1 <0>         0.1265
     33 H7         -1.8044   11.3955   -3.0224 H         1 <0>         0.1258
     34 H8         -1.6697    9.6965   -1.8126 H         1 <0>         0.0857
     35 H9         -1.5165    9.3865   -3.5586 H         1 <0>         0.0750
     36 H10        -2.4339    7.3227   -1.5073 H         1 <0>         0.0811
     37 H11        -0.7783    7.4415   -2.1500 H         1 <0>         0.0918
     38 H12        -2.5694    7.2858   -4.3281 H         1 <0>         0.4282
     39 H13        -1.1474    5.3923   -1.6084 H         1 <0>         0.1475
     40 H14        -1.8207    1.6053   -3.4766 H         1 <0>         0.1461
     41 H15        -2.8816    2.7345   -5.3868 H         1 <0>         0.1590
     42 H16        -0.3070    1.0834   -2.4529 H         1 <0>         0.1348
     43 H17        -1.8427    0.9611   -1.5605 H         1 <0>         0.0785
     44 H18        -0.1031   -0.4154   -0.4732 H         1 <0>         0.1414
     45 H19         0.9496    1.0127   -0.3273 H         1 <0>         0.1418
     46 H20         0.2688    2.8535    1.1364 H         1 <0>         0.1421
     47 H21        -1.2666    2.7315    2.0289 H         1 <0>         0.1409
     48 H22        -1.4707    4.2299    0.0492 H         1 <0>         0.1306
     49 H23        -2.5234    2.8016   -0.0970 H         1 <0>         0.0761
     50 H24         0.9279    0.6466    2.1132 H         1 <0>         0.1251
     51 H25        -0.6325    0.6398    2.9696 H         1 <0>         0.1241
     52 H26        -0.1889   -0.7255    1.9173 H         1 <0>         0.1244
     53 N4         -0.7767    1.0215    0.9063 N.4       1 <0>        -0.4008
     54 H27        -1.7519    0.7052    0.8504 H         1 <0>         0.4285
@<TRIPOS>BOND
     1    1    2 1
     2    1   27 1
     3    1   28 1
     4    1   29 1
     5    2    7 ar
     6    2    3 ar
     7    3    4 ar
     8    3   30 1
     9    4    5 ar
    10    4   31 1
    11    5    6 ar
    12    5   32 1
    13    6    7 ar
    14    6   33 1
    15    7    8 1
    16    8    9 1
    17    9   10 1
    18    9   34 1
    19    9   35 1
    20   10   11 1
    21   10   36 1
    22   10   37 1
    23   11   12 1
    24   11   38 1
    25   12   17 ar
    26   12   13 ar
    27   13   14 ar
    28   13   39 1
    29   14   15 ar
    30   14   21 1
    31   15   16 ar
    32   15   40 1
    33   16   17 ar
    34   16   41 1
    35   17   18 1
    36   18   19 2
    37   18   20 1
    38   21   25 1
    39   21   22 1
    40   22   23 1
    41   22   42 1
    42   22   43 1
    43   23   44 1
    44   23   45 1
    45   23   53 1
    46   24   25 1
    47   24   46 1
    48   24   47 1
    49   24   53 1
    50   25   48 1
    51   25   49 1
    52   26   50 1
    53   26   51 1
    54   26   52 1
    55   26   53 1
    56   53   54 1
@<TRIPOS>MOLECULE
ZINC04117526
   43    45     0     0     0
SMALL
USER_CHARGES

@<TRIPOS>ATOM
      1 C1          0.5707    0.0363    0.0776 C.ar      1 <0>        -0.1706
      2 C2          1.6328    0.9263    0.0234 C.ar      1 <0>        -0.0488
      3 C3          2.9202    0.4250    0.1386 C.ar      1 <0>        -0.1792
      4 C4          3.1011   -0.9355    0.3024 C.ar      1 <0>         0.1223
      5 N1          2.0672   -1.7526    0.3490 N.ar      1 <0>        -0.4822
      6 C5          0.8290   -1.3110    0.2433 C.ar      1 <0>         0.1169
      7 C6          4.1074    1.3517    0.0853 C.3       1 <0>         0.1700
      8 N2          4.4308    1.8093    1.4389 N.pl3     1 <0>        -0.7190
      9 C7          5.5012    2.6828    1.6437 C.ar      1 <0>         0.3227
     10 C8          6.3331    3.0222    0.5858 C.ar      1 <0>        -0.2717
     11 C9          7.3954    3.8903    0.7936 C.ar      1 <0>         0.2892
     12 C10         7.6233    4.4168    2.0595 C.ar      1 <0>        -0.2391
     13 C11         6.7938    4.0766    3.1103 C.ar      1 <0>         0.0361
     14 C12         5.7312    3.2173    2.9055 C.ar      1 <0>        -0.1582
     15 N3          4.8408    2.8610    4.0328 N.pl3     1 <0>         0.0425
     16 O1          3.6534    2.7296    3.8470 O.2       1 <0>        -0.1796
     17 O2          5.3007    2.7013    5.1394 O.3       1 <0>        -0.1454
     18 N4          8.2352    4.2341   -0.2682 N.pl3     1 <0>        -0.6362
     19 C13         7.9386    3.7942   -1.6402 C.3       1 <0>         0.0932
     20 C14         8.0045    5.0133   -2.5661 C.3       1 <0>        -0.0231
     21 N5          9.3057    5.6755   -2.4100 N.4       1 <0>        -0.5048
     22 C15         9.4361    6.2069   -1.0473 C.3       1 <0>        -0.0234
     23 C16         9.4380    5.0517   -0.0470 C.3       1 <0>         0.0922
     24 H1         -0.4456    0.3922   -0.0043 H         1 <0>         0.1431
     25 H2          1.4612    1.9847   -0.1058 H         1 <0>         0.1374
     26 H3          4.1008   -1.3340    0.3929 H         1 <0>         0.1547
     27 H4          0.0073   -2.0106    0.2869 H         1 <0>         0.1633
     28 H5          4.9632    0.8221   -0.3333 H         1 <0>         0.0790
     29 H6          3.8698    2.2110   -0.5417 H         1 <0>         0.0794
     30 H7          3.9014    1.5057    2.1929 H         1 <0>         0.4171
     31 H8          6.1541    2.6114   -0.3968 H         1 <0>         0.1431
     32 H9          8.4500    5.0925    2.2219 H         1 <0>         0.1421
     33 H10         6.9734    4.4866    4.0932 H         1 <0>         0.1524
     34 H11         8.6751    3.0549   -1.9551 H         1 <0>         0.0956
     35 H12         6.9398    3.3594   -1.6776 H         1 <0>         0.1280
     36 H13         7.8824    4.6912   -3.6003 H         1 <0>         0.1471
     37 H14         7.2082    5.7106   -2.3061 H         1 <0>         0.1362
     38 H15        10.0437    5.0092   -2.5818 H         1 <0>         0.4296
     39 H16        10.3688    6.7644   -0.9623 H         1 <0>         0.1480
     40 H17         8.5964    6.8681   -0.8332 H         1 <0>         0.1363
     41 H18         9.4301    5.4478    0.9684 H         1 <0>         0.1322
     42 H19        10.3285    4.4415   -0.1983 H         1 <0>         0.0958
     43 H20         9.3782    6.4325   -3.0732 H         1 <0>         0.4359
@<TRIPOS>BOND
     1    1    6 ar
     2    1    2 ar
     3    1   24 1
     4    2    3 ar
     5    2   25 1
     6    3    4 ar
     7    3    7 1
     8    4    5 ar
     9    4   26 1
    10    5    6 ar
    11    6   27 1
    12    7    8 1
    13    7   28 1
    14    7   29 1
    15    8    9 1
    16    8   30 1
    17    9   14 ar
    18    9   10 ar
    19   10   11 ar
    20   10   31 1
    21   11   12 ar
    22   11   18 1
    23   12   13 ar
    24   12   32 1
    25   13   14 ar
    26   13   33 1
    27   14   15 1
    28   15   16 2
    29   15   17 1
    30   18   23 1
    31   18   19 1
    32   19   20 1
    33   19   34 1
    34   19   35 1
    35   20   21 1
    36   20   36 1
    37   20   37 1
    38   21   22 1
    39   21   38 1
    40   21   43 1
    41   22   23 1
    42   22   39 1
    43   22   40 1
    44   23   41 1
    45   23   42 1
@<TRIPOS>MOLECULE
ZINC04608369
   44    46     0     0     0
SMALL
USER_CHARGES
N-[(4-chlorophenyl)methyl]-2-nitro-5-piperazin-1-yl-aniline
@<TRIPOS>ATOM
      1 C1          1.1332    2.0035   -0.0305 C.ar      1 <0>        -0.0831
      2 C2          2.3337    1.3188   -0.0474 C.ar      1 <0>        -0.1100
      3 C3          2.3411   -0.0646   -0.0293 C.ar      1 <0>        -0.0199
      4 C4          1.1466   -0.7618    0.0057 C.ar      1 <0>        -0.1103
      5 C5         -0.0533   -0.0760    0.0225 C.ar      1 <0>        -0.0835
      6 C6         -0.0601    1.3063    0.0044 C.ar      1 <0>        -0.1190
      7 C7         -1.3688    2.0534    0.0164 C.3       1 <0>         0.1567
      8 N1         -1.7698    2.3137    1.4012 N.pl3     1 <0>        -0.7076
      9 C8         -2.9581    2.9977    1.6673 C.ar      1 <0>         0.3100
     10 C9         -3.6991    3.5349    0.6239 C.ar      1 <0>        -0.2221
     11 C10        -4.8790    4.2138    0.8926 C.ar      1 <0>         0.1914
     12 C11        -5.3150    4.3538    2.2050 C.ar      1 <0>        -0.2283
     13 C12        -4.5749    3.8183    3.2411 C.ar      1 <0>         0.0262
     14 C13        -3.4026    3.1363    2.9765 C.ar      1 <0>        -0.1383
     15 N2         -2.6162    2.5585    4.0893 N.pl3     1 <0>         0.0476
     16 O1         -3.0565    2.5858    5.2246 O.2       1 <0>        -0.1453
     17 O2         -1.5288    2.0558    3.8697 O.3       1 <0>        -0.1967
     18 N3         -5.6279    4.7555   -0.1544 N.pl3     1 <0>        -0.4891
     19 C14        -5.9793    3.7233   -1.1397 C.3       1 <0>         0.0245
     20 C15        -6.7287    4.3700   -2.3070 C.3       1 <0>         0.0004
     21 C16        -7.5820    6.0742   -0.8149 C.3       1 <0>         0.0007
     22 C17        -6.8326    5.4275    0.3524 C.3       1 <0>         0.0159
     23 Cl1         3.8485   -0.9252   -0.0498 Cl        1 <0>        -0.0555
     24 H1          1.1273    3.0834   -0.0446 H         1 <0>         0.1341
     25 H2          3.2658    1.8636   -0.0743 H         1 <0>         0.1399
     26 H3          1.1517   -1.8416    0.0202 H         1 <0>         0.1396
     27 H4         -0.9858   -0.6201    0.0502 H         1 <0>         0.1329
     28 H5         -1.2520    2.9995   -0.5120 H         1 <0>         0.0808
     29 H6         -2.1339    1.4539   -0.4768 H         1 <0>         0.0788
     30 H7         -1.2101    2.0109    2.1333 H         1 <0>         0.4265
     31 H8         -3.3583    3.4244   -0.3949 H         1 <0>         0.1483
     32 H9         -6.2333    4.8821    2.4148 H         1 <0>         0.1461
     33 H10        -4.9159    3.9285    4.2599 H         1 <0>         0.1591
     34 H11        -5.0702    3.2489   -1.5093 H         1 <0>         0.1307
     35 H12        -6.6157    2.9736   -0.6696 H         1 <0>         0.0764
     36 H13        -7.0157    3.6018   -3.0251 H         1 <0>         0.1443
     37 H14        -6.0825    5.1003   -2.7940 H         1 <0>         0.1424
     38 H15        -8.4911    6.5486   -0.4453 H         1 <0>         0.1447
     39 H16        -6.9457    6.8242   -1.2847 H         1 <0>         0.1420
     40 H17        -7.4787    4.6972    0.8394 H         1 <0>         0.0790
     41 H18        -6.5456    6.1954    1.0708 H         1 <0>         0.1347
     42 N4         -7.9426    5.0399   -1.8029 N.4       1 <0>        -0.5198
     43 H19        -8.5535    4.3447   -1.3583 H         1 <0>         0.4325
     44 H20        -8.4381    5.4789   -2.5878 H         1 <0>         0.4423
@<TRIPOS>BOND
     1    1    6 ar
     2    1    2 ar
     3    1   24 1
     4    2    3 ar
     5    2   25 1
     6    3    4 ar
     7    3   23 1
     8    4    5 ar
     9    4   26 1
    10    5    6 ar
    11    5   27 1
    12    6    7 1
    13    7    8 1
    14    7   28 1
    15    7   29 1
    16    8    9 1
    17    8   30 1
    18    9   14 ar
    19    9   10 ar
    20   10   11 ar
    21   10   31 1
    22   11   12 ar
    23   11   18 1
    24   12   13 ar
    25   12   32 1
    26   13   14 ar
    27   13   33 1
    28   14   15 1
    29   15   16 2
    30   15   17 1
    31   18   22 1
    32   18   19 1
    33   19   20 1
    34   19   34 1
    35   19   35 1
    36   20   36 1
    37   20   37 1
    38   20   42 1
    39   21   22 1
    40   21   38 1
    41   21   39 1
    42   21   42 1
    43   22   40 1
    44   22   41 1
    45   42   43 1
    46   42   44 1
