@<TRIPOS>MOLECULE
ZINC13579578
   20    21     0     0     0
SMALL
USER_CHARGES
7-methyl-1H-1,8-naphthyridin-4-one
@<TRIPOS>ATOM
      1 C1         -2.4908    3.9133    0.0454 C.3       1 <0>        -0.1121
      2 C2         -1.1863    3.1590    0.0294 C.ar      1 <0>         0.2000
      3 C3         -1.2069    1.7725    0.0173 C.ar      1 <0>        -0.2151
      4 C4         -0.0126    1.0758    0.0080 C.ar      1 <0>         0.0165
      5 C5          1.1742    1.8120    0.0006 C.ar      1 <0>        -0.2544
      6 C6          2.4912    1.1546   -0.0146 C.2       1 <0>         0.4197
      7 O1          2.5895   -0.0614   -0.0212 O.2       1 <0>        -0.4956
      8 C7          3.6397    1.9822   -0.0206 C.2       1 <0>        -0.3194
      9 C8          3.5025    3.3238   -0.0126 C.2       1 <0>         0.1877
     10 N1          2.2926    3.9347    0.0013 N.pl3     1 <0>        -0.6119
     11 H1          2.2310    5.0330    0.0074 H         1 <0>         0.4527
     12 C9          1.1201    3.2174    0.0082 C.ar      1 <0>         0.3887
     13 N2         -0.0552    3.8324    0.0222 N.ar      1 <0>        -0.5296
     14 H2         -3.3273    3.1990    0.0496 H         1 <0>         0.0823
     15 H3         -2.5570    4.5502   -0.8490 H         1 <0>         0.0851
     16 H4         -2.5402    4.5412    0.9472 H         1 <0>         0.0851
     17 H5         -2.1473    1.2415    0.0188 H         1 <0>         0.1454
     18 H6          0.0021   -0.0041    0.0020 H         1 <0>         0.1506
     19 H7          4.6248    1.5396   -0.0321 H         1 <0>         0.1541
     20 H8          4.3923    3.9360   -0.0171 H         1 <0>         0.1703
@<TRIPOS>BOND
     1    1    2 1
     2    1   14 1
     3    1   15 1
     4    1   16 1
     5    2   13 ar
     6    2    3 ar
     7    3    4 ar
     8    3   17 1
     9    4    5 ar
    10    4   18 1
    11    5   12 ar
    12    5    6 1
    13    6    7 2
    14    6    8 1
    15    8    9 2
    16    8   19 1
    17    9   10 1
    18    9   20 1
    19   10   11 1
    20   10   12 1
    21   12   13 ar
@<TRIPOS>MOLECULE
ZINC15880093
   34    36     0     0     0
SMALL
USER_CHARGES

@<TRIPOS>ATOM
      1 C1         -0.0178    1.4608    0.0101 C.3       1 <0>         0.0854
      2 N1          0.0021   -0.0041    0.0020 N.am      1 <0>        -0.5106
      3 C2         -1.1889   -0.7120    0.0039 C.2       1 <0>         0.3238
      4 C3         -1.1437   -2.1005   -0.0039 C.2       1 <0>        -0.1540
      5 C4          0.1107   -2.7476   -0.0134 C.2       1 <0>         0.5938
      6 O1          0.1765   -3.9638   -0.0207 O.2       1 <0>        -0.5125
      7 N2          1.2361   -2.0032   -0.0148 N.am      1 <0>        -0.5511
      8 C5          1.1776   -0.6603   -0.0127 C.2       1 <0>         0.7080
      9 O2          2.2126   -0.0219   -0.0196 O.2       1 <0>        -0.5321
     10 C6          2.5413   -2.6685   -0.0246 C.3       1 <0>         0.0833
     11 N3         -2.4557   -2.5297    0.0001 N.pl3     1 <0>        -0.5129
     12 H1         -2.7618   -3.4502   -0.0030 H         1 <0>         0.4351
     13 C7         -3.2306   -1.4275    0.0098 C.2       1 <0>         0.3086
     14 N4         -2.4766   -0.3579    0.0120 N.2       1 <0>        -0.4911
     15 C8         -4.7376   -1.4266    0.0162 C.3       1 <0>        -0.0169
     16 C9         -5.2635   -2.6576    0.7829 C.3       1 <0>        -0.1247
     17 C10        -6.5224   -3.0893   -0.0094 C.3       1 <0>        -0.1243
     18 C11        -6.1023   -2.8421   -1.4796 C.3       1 <0>        -0.1289
     19 C12        -5.2709   -1.5439   -1.4224 C.3       1 <0>        -0.1171
     20 H2          1.0048    1.8381    0.0023 H         1 <0>         0.1034
     21 H3         -0.5450    1.8219   -0.8730 H         1 <0>         0.0796
     22 H4         -0.5280    1.8123    0.9069 H         1 <0>         0.0799
     23 H5          2.8601   -2.8279   -1.0547 H         1 <0>         0.0772
     24 H6          3.2716   -2.0434    0.4891 H         1 <0>         0.0972
     25 H7          2.4632   -3.6292    0.4844 H         1 <0>         0.0953
     26 H8         -5.1081   -0.5116    0.4783 H         1 <0>         0.1182
     27 H9         -4.5198   -3.4544    0.7812 H         1 <0>         0.0624
     28 H10        -5.5302   -2.3856    1.8042 H         1 <0>         0.0826
     29 H11        -6.7412   -4.1439    0.1577 H         1 <0>         0.0739
     30 H12        -7.3782   -2.4691    0.2573 H         1 <0>         0.0763
     31 H13        -5.4941   -3.6687   -1.8467 H         1 <0>         0.0666
     32 H14        -6.9812   -2.7047   -2.1096 H         1 <0>         0.0745
     33 H15        -5.9010   -0.6863   -1.6581 H         1 <0>         0.0826
     34 H16        -4.4397   -1.6015   -2.1252 H         1 <0>         0.0685
@<TRIPOS>BOND
     1    1    2 1
     2    1   20 1
     3    1   21 1
     4    1   22 1
     5    2    8 am
     6    2    3 1
     7    3   14 1
     8    3    4 2
     9    4    5 1
    10    4   11 1
    11    5    6 2
    12    5    7 am
    13    7    8 am
    14    7   10 1
    15    8    9 2
    16   10   23 1
    17   10   24 1
    18   10   25 1
    19   11   12 1
    20   11   13 1
    21   13   14 2
    22   13   15 1
    23   15   19 1
    24   15   16 1
    25   15   26 1
    26   16   17 1
    27   16   27 1
    28   16   28 1
    29   17   18 1
    30   17   29 1
    31   17   30 1
    32   18   19 1
    33   18   31 1
    34   18   32 1
    35   19   33 1
    36   19   34 1
@<TRIPOS>MOLECULE
ZINC04019695
   40    42     0     0     0
SMALL
USER_CHARGES

@<TRIPOS>ATOM
      1 C1         -0.0187    1.5258    0.0104 C.3       1 <0>        -0.1466
      2 C2          0.0021   -0.0041    0.0020 C.3       1 <0>        -0.0623
      3 C3          0.7182   -0.4975   -1.2568 C.3       1 <0>        -0.1465
      4 C4          0.7309   -0.5033    1.2229 C.ar      1 <0>        -0.0503
      5 C5          2.0512   -0.1457    1.4310 C.ar      1 <0>        -0.1153
      6 C6          2.7244   -0.5996    2.5464 C.ar      1 <0>        -0.0589
      7 C7          2.0704   -1.4210    3.4662 C.ar      1 <0>        -0.0448
      8 C8          0.7383   -1.7776    3.2504 C.ar      1 <0>        -0.0930
      9 C9          0.0752   -1.3125    2.1336 C.ar      1 <0>        -0.1155
     10 C10         2.7857   -1.9115    4.6633 C.2       1 <0>         0.3455
     11 N1          2.2548   -2.7189    5.6223 N.pl3     1 <0>        -0.5146
     12 H1          1.3520   -3.0730    5.6454 H         1 <0>         0.4368
     13 C11         3.2493   -2.9373    6.5558 C.2       1 <0>        -0.1450
     14 C12         4.3667   -2.2369    6.1127 C.2       1 <0>         0.3272
     15 N2          4.0396   -1.6404    4.9670 N.2       1 <0>        -0.4836
     16 N3          5.5268   -2.2819    6.8705 N.am      1 <0>        -0.5106
     17 C13         5.5600   -2.9936    8.0127 C.2       1 <0>         0.7076
     18 O1          6.5865   -3.0208    8.6641 O.2       1 <0>        -0.5299
     19 N4          4.4876   -3.6746    8.4517 N.am      1 <0>        -0.5509
     20 C14         3.3300   -3.6703    7.7588 C.2       1 <0>         0.5935
     21 O2          2.3654   -4.2919    8.1673 O.2       1 <0>        -0.5110
     22 C15         4.5773   -4.4334    9.7016 C.3       1 <0>         0.0831
     23 C16         6.7185   -1.5541    6.4274 C.3       1 <0>         0.0883
     24 H2          1.0039    1.9031    0.0027 H         1 <0>         0.0590
     25 H3         -0.5459    1.8868   -0.8726 H         1 <0>         0.0614
     26 H4         -0.5289    1.8773    0.9072 H         1 <0>         0.0573
     27 H5         -1.0205   -0.3814    0.0098 H         1 <0>         0.0810
     28 H6          1.7408   -0.1202   -1.2645 H         1 <0>         0.0589
     29 H7          0.7330   -1.5874   -1.2628 H         1 <0>         0.0573
     30 H8          0.1910   -0.1364   -2.1398 H         1 <0>         0.0614
     31 H9          2.5561    0.4899    0.7186 H         1 <0>         0.1328
     32 H10         3.7552   -0.3204    2.7073 H         1 <0>         0.1415
     33 H11         0.2267   -2.4131    3.9581 H         1 <0>         0.1227
     34 H12        -0.9569   -1.5841    1.9678 H         1 <0>         0.1316
     35 H13         4.2889   -3.7943   10.5362 H         1 <0>         0.0775
     36 H14         3.9082   -5.2926    9.6539 H         1 <0>         0.0954
     37 H15         5.6014   -4.7780    9.8448 H         1 <0>         0.0974
     38 H16         6.7037   -0.5461    6.8418 H         1 <0>         0.0744
     39 H17         7.6116   -2.0755    6.7718 H         1 <0>         0.0946
     40 H18         6.7269   -1.4994    5.3388 H         1 <0>         0.0926
@<TRIPOS>BOND
     1    1    2 1
     2    1   24 1
     3    1   25 1
     4    1   26 1
     5    2    3 1
     6    2    4 1
     7    2   27 1
     8    3   28 1
     9    3   29 1
    10    3   30 1
    11    4    9 ar
    12    4    5 ar
    13    5    6 ar
    14    5   31 1
    15    6    7 ar
    16    6   32 1
    17    7    8 ar
    18    7   10 1
    19    8    9 ar
    20    8   33 1
    21    9   34 1
    22   10   15 2
    23   10   11 1
    24   11   12 1
    25   11   13 1
    26   13   20 1
    27   13   14 2
    28   14   15 1
    29   14   16 1
    30   16   17 am
    31   16   23 1
    32   17   18 2
    33   17   19 am
    34   19   20 am
    35   19   22 1
    36   20   21 2
    37   22   35 1
    38   22   36 1
    39   22   37 1
    40   23   38 1
    41   23   39 1
    42   23   40 1
@<TRIPOS>MOLECULE
ZINC17107058
   33    35     0     0     0
SMALL
USER_CHARGES

@<TRIPOS>ATOM
      1 C1         -0.5043    1.4538    0.0792 C.3       1 <0>        -0.1099
      2 C2         -0.2310   -0.0276    0.0350 C.ar      1 <0>        -0.0670
      3 C3         -0.3304   -0.7138   -1.1583 C.ar      1 <0>        -0.1277
      4 C4         -0.0803   -2.0735   -1.2002 C.ar      1 <0>        -0.1342
      5 C5          0.2705   -2.7537   -0.0476 C.ar      1 <0>        -0.1344
      6 C6          0.3729   -2.0783    1.1511 C.ar      1 <0>        -0.0994
      7 C7          0.1281   -0.7064    1.1984 C.ar      1 <0>         0.0347
      8 C8          0.2424    0.0262    2.4821 C.2       1 <0>         0.1692
      9 N1          0.1370    1.3359    2.6201 N.2       1 <0>        -0.4400
     10 C9          0.2958    1.6325    3.9232 C.2       1 <0>        -0.1552
     11 C10         0.5094    0.4046    4.5929 C.2       1 <0>         0.2273
     12 N2          0.4621   -0.5418    3.6740 N.2       1 <0>        -0.5328
     13 N3          0.7053    0.4147    5.9634 N.am      1 <0>        -0.5041
     14 C11         0.6906    1.5805    6.6373 C.2       1 <0>         0.7054
     15 O1          0.8648    1.5709    7.8408 O.2       1 <0>        -0.5741
     16 N4          0.4890    2.7542    6.0150 N.am      1 <0>        -0.5387
     17 C12         0.2894    2.8148    4.6685 C.2       1 <0>         0.5531
     18 O2          0.0887    3.9995    4.0632 O.3       1 <0>        -0.6003
     19 C13         0.4827    3.9918    6.7991 C.3       1 <0>         0.0905
     20 C14         0.9282   -0.8431    6.6807 C.3       1 <0>         0.0992
     21 H1          0.4367    1.9992    0.0078 H         1 <0>         0.0663
     22 H2         -1.1483    1.7295   -0.7560 H         1 <0>         0.0423
     23 H3         -0.9991    1.7042    1.0175 H         1 <0>         0.0999
     24 H4         -0.6042   -0.1881   -2.0612 H         1 <0>         0.1158
     25 H5         -0.1596   -2.6064   -2.1363 H         1 <0>         0.1124
     26 H6          0.4643   -3.8154   -0.0863 H         1 <0>         0.1148
     27 H7          0.6465   -2.6103    2.0503 H         1 <0>         0.1264
     28 H8          1.4939    4.3957    6.8484 H         1 <0>         0.0650
     29 H9         -0.1763    4.7190    6.3248 H         1 <0>         0.0896
     30 H10         0.1260    3.7813    7.8073 H         1 <0>         0.0851
     31 H11         1.9962   -1.0586    6.7131 H         1 <0>         0.0588
     32 H12         0.5443   -0.7547    7.6970 H         1 <0>         0.0790
     33 H13         0.4098   -1.6519    6.1656 H         1 <0>         0.0828
@<TRIPOS>BOND
     1    1    2 1
     2    1   21 1
     3    1   22 1
     4    1   23 1
     5    2    7 ar
     6    2    3 ar
     7    3    4 ar
     8    3   24 1
     9    4    5 ar
    10    4   25 1
    11    5    6 ar
    12    5   26 1
    13    6    7 ar
    14    6   27 1
    15    7    8 1
    16    8   12 1
    17    8    9 2
    18    9   10 1
    19   10   11 1
    20   10   17 2
    21   11   12 2
    22   11   13 1
    23   13   14 am
    24   13   20 1
    25   14   15 2
    26   14   16 am
    27   16   17 1
    28   16   19 1
    29   17   18 1
    30   19   28 1
    31   19   29 1
    32   19   30 1
    33   20   31 1
    34   20   32 1
    35   20   33 1
@<TRIPOS>MOLECULE
ZINC17107058
   34    36     0     0     0
SMALL
USER_CHARGES
1,3-dimethyl-8-(o-tolyl)-9H-purine-2,6-dione
@<TRIPOS>ATOM
      1 C1         -2.6282    1.1722    0.2637 C.3       1 <0>        -0.1473
      2 C2         -2.4655   -0.3203    0.1339 C.ar      1 <0>        -0.0690
      3 C3         -3.5408   -1.1553    0.3591 C.ar      1 <0>        -0.1156
      4 C4         -3.3916   -2.5259    0.2460 C.ar      1 <0>        -0.0934
      5 C5         -2.1663   -3.0684   -0.0990 C.ar      1 <0>        -0.1227
      6 C6         -1.0849   -2.2444   -0.3324 C.ar      1 <0>        -0.0608
      7 C7         -1.2287   -0.8607   -0.2200 C.ar      1 <0>        -0.0366
      8 C8         -0.0736    0.0286   -0.4689 C.2       1 <0>         0.3075
      9 N1          1.2163   -0.3866   -0.6878 N.2       1 <0>        -0.4767
     10 H1         -0.9411    1.8943   -0.3881 H         1 <0>         0.4437
     11 C9          1.9768    0.7243   -0.8742 C.2       1 <0>         0.3160
     12 C10         1.1199    1.8154   -0.7626 C.2       1 <0>        -0.1690
     13 N2         -0.1199    1.3380   -0.5153 N.pl3     1 <0>        -0.4796
     14 C11         1.6827    3.1585   -0.9225 C.2       1 <0>         0.5962
     15 O1          0.9745    4.1449   -0.8349 O.2       1 <0>        -0.5060
     16 N3          3.0051    3.2775   -1.1697 N.am      1 <0>        -0.5504
     17 C12         3.7897    2.1915   -1.2675 C.2       1 <0>         0.7084
     18 O2          4.9753    2.3430   -1.4911 O.2       1 <0>        -0.5306
     19 N4          3.3106    0.9431   -1.1273 N.am      1 <0>        -0.5066
     20 C13         4.2212   -0.1985   -1.2458 C.3       1 <0>         0.0873
     21 C14         3.5921    4.6097   -1.3342 C.3       1 <0>         0.0831
     22 H2         -2.8211    1.6035   -0.7186 H         1 <0>         0.0861
     23 H3         -3.4652    1.3902    0.9269 H         1 <0>         0.0931
     24 H4         -1.7158    1.6026    0.6766 H         1 <0>         0.0710
     25 H5         -4.4998   -0.7380    0.6284 H         1 <0>         0.1327
     26 H6         -4.2353   -3.1753    0.4274 H         1 <0>         0.1310
     27 H7         -2.0563   -4.1393   -0.1854 H         1 <0>         0.1338
     28 H8         -0.1292   -2.6690   -0.6020 H         1 <0>         0.1418
     29 H9          4.2619   -0.5244   -2.2850 H         1 <0>         0.0742
     30 H10         5.2180    0.0963   -0.9180 H         1 <0>         0.0945
     31 H11         3.8609   -1.0168   -0.6222 H         1 <0>         0.0925
     32 H12         3.5523    4.8970   -2.3849 H         1 <0>         0.0779
     33 H13         3.0309    5.3299   -0.7390 H         1 <0>         0.0952
     34 H14         4.6298    4.5931   -1.0011 H         1 <0>         0.0983
@<TRIPOS>BOND
     1    1    2 1
     2    1   22 1
     3    1   23 1
     4    1   24 1
     5    2    7 ar
     6    2    3 ar
     7    3    4 ar
     8    3   25 1
     9    4    5 ar
    10    4   26 1
    11    5    6 ar
    12    5   27 1
    13    6    7 ar
    14    6   28 1
    15    7    8 1
    16    8    9 2
    17    8   13 1
    18    9   11 1
    19   10   13 1
    20   11   19 1
    21   11   12 2
    22   12   13 1
    23   12   14 1
    24   14   15 2
    25   14   16 am
    26   16   17 am
    27   16   21 1
    28   17   18 2
    29   17   19 am
    30   19   20 1
    31   20   29 1
    32   20   30 1
    33   20   31 1
    34   21   32 1
    35   21   33 1
    36   21   34 1
@<TRIPOS>MOLECULE
ZINC04019690
   32    34     0     0     0
SMALL
USER_CHARGES
8-(3-hydroxyphenyl)-1,3-dimethyl-7H-purine-2,6-dione
@<TRIPOS>ATOM
      1 C1          2.7657    8.5870    0.0239 C.3       1 <0>         0.0874
      2 N1          1.3008    8.5863    0.0372 N.am      1 <0>        -0.5104
      3 C2          0.6092    7.3847    0.0372 C.2       1 <0>         0.3202
      4 C3         -0.7817    7.4121    0.0504 C.2       1 <0>        -0.1508
      5 C4         -1.4445    8.6578    0.0633 C.2       1 <0>         0.5942
      6 O1         -2.6616    8.7078    0.0745 O.2       1 <0>        -0.5113
      7 N2         -0.7151    9.7927    0.0625 N.am      1 <0>        -0.5507
      8 C5          0.6283    9.7524    0.0502 C.2       1 <0>         0.7070
      9 O2          1.2523   10.7961    0.0503 O.2       1 <0>        -0.5308
     10 C6         -1.3977   11.0889    0.0759 C.3       1 <0>         0.0782
     11 N3         -1.1993    6.0955    0.0468 N.pl3     1 <0>        -0.5233
     12 H1         -2.2736    5.8592    0.0555 H         1 <0>         0.4703
     13 C7         -0.0760    5.3264    0.0319 C.2       1 <0>         0.3487
     14 N4          0.9865    6.1068    0.0321 N.2       1 <0>        -0.4853
     15 C8         -0.0515    3.8483    0.0232 C.ar      1 <0>         0.0061
     16 C9         -1.2474    3.1277    0.0308 C.ar      1 <0>        -0.1415
     17 C10        -1.2208    1.7484    0.0174 C.ar      1 <0>        -0.0735
     18 C11        -0.0126    1.0758    0.0080 C.ar      1 <0>        -0.1422
     19 C12         1.1815    1.7837    0.0004 C.ar      1 <0>         0.1607
     20 C13         1.1664    3.1685    0.0079 C.ar      1 <0>        -0.1639
     21 O3          2.3660    1.1175   -0.0141 O.3       1 <0>        -0.5064
     22 H2          3.1328    7.5501    0.0144 H         1 <0>         0.0998
     23 H3          3.1403    9.1004    0.9217 H         1 <0>         0.0807
     24 H4          3.1240    9.1110   -0.8745 H         1 <0>         0.0808
     25 H5         -0.6509   11.8966    0.0732 H         1 <0>         0.1078
     26 H6         -2.0188   11.1668    0.9804 H         1 <0>         0.0832
     27 H7         -2.0358   11.1765   -0.8158 H         1 <0>         0.0833
     28 H8         -2.1927    3.6498    0.0426 H         1 <0>         0.1242
     29 H9         -2.1466    1.1921    0.0187 H         1 <0>         0.1385
     30 H10         0.0021   -0.0041    0.0020 H         1 <0>         0.1354
     31 H11         2.0947    3.7204    0.0017 H         1 <0>         0.1442
     32 H12         3.3123    1.6782   -0.0201 H         1 <0>         0.4395
@<TRIPOS>BOND
     1    1    2 1
     2    1   22 1
     3    1   23 1
     4    1   24 1
     5    2    8 am
     6    2    3 1
     7    3   14 1
     8    3    4 2
     9    4    5 1
    10    4   11 1
    11    5    6 2
    12    5    7 am
    13    7    8 am
    14    7   10 1
    15    8    9 2
    16   10   25 1
    17   10   26 1
    18   10   27 1
    19   11   12 1
    20   11   13 1
    21   13   14 2
    22   13   15 1
    23   15   20 ar
    24   15   16 ar
    25   16   17 ar
    26   16   28 1
    27   17   18 ar
    28   17   29 1
    29   18   19 ar
    30   18   30 1
    31   19   20 ar
    32   19   21 1
    33   20   31 1
    34   21   32 1
@<TRIPOS>MOLECULE
ZINC13361338
   34    36     0     0     0
SMALL
USER_CHARGES

@<TRIPOS>ATOM
      1 C1         -0.0178    1.4608    0.0101 C.3       1 <0>         0.0958
      2 N1          0.0021   -0.0041    0.0020 N.am      1 <0>        -0.5045
      3 C2         -1.1874   -0.7124    0.0038 C.2       1 <0>         0.2290
      4 N2         -2.4633   -0.3739    0.0127 N.2       1 <0>        -0.5299
      5 C3         -3.2048   -1.4884    0.0104 C.2       1 <0>         0.1640
      6 N3         -2.4197   -2.5515   -0.0000 N.2       1 <0>        -0.4453
      7 C4         -1.1418   -2.1264   -0.0046 C.2       1 <0>        -0.1504
      8 C5          0.1027   -2.7608   -0.0151 C.2       1 <0>         0.5539
      9 O1          0.1815   -4.1040   -0.0237 O.3       1 <0>        -0.6003
     10 N4          1.2362   -2.0038   -0.0169 N.am      1 <0>        -0.5384
     11 C6          1.1773   -0.6614   -0.0127 C.2       1 <0>         0.7065
     12 O2          2.2126   -0.0233   -0.0192 O.2       1 <0>        -0.5730
     13 C7          2.5429   -2.6661   -0.0279 C.3       1 <0>         0.0890
     14 C8         -4.6860   -1.5248    0.0187 C.ar      1 <0>         0.0454
     15 C9         -5.4140   -0.3347    0.0243 C.ar      1 <0>        -0.0868
     16 C10        -6.7914   -0.3708    0.0321 C.ar      1 <0>        -0.0994
     17 C11        -7.4561   -1.5929    0.0345 C.ar      1 <0>        -0.1014
     18 C12        -6.7322   -2.7808    0.0290 C.ar      1 <0>        -0.1311
     19 C13        -5.3547   -2.7492    0.0153 C.ar      1 <0>        -0.0863
     20 S1         -9.2176   -1.6361    0.0451 S.3       1 <0>        -0.1412
     21 C14        -9.6131   -3.4065    0.0451 C.3       1 <0>        -0.1394
     22 H1          1.0048    1.8381    0.0023 H         1 <0>         0.0893
     23 H2         -0.5450    1.8219   -0.8730 H         1 <0>         0.0674
     24 H3         -0.5280    1.8123    0.9069 H         1 <0>         0.0675
     25 H4          2.4024   -3.7470   -0.0333 H         1 <0>         0.1003
     26 H5          3.0944   -2.3670   -0.9192 H         1 <0>         0.0706
     27 H6          3.1042   -2.3772    0.8607 H         1 <0>         0.0706
     28 H7         -4.8983    0.6142    0.0228 H         1 <0>         0.1346
     29 H8         -7.3553    0.5502    0.0367 H         1 <0>         0.1232
     30 H9         -7.2503   -3.7284    0.0308 H         1 <0>         0.1187
     31 H10        -4.7931   -3.6717    0.0065 H         1 <0>         0.1338
     32 H11       -10.6952   -3.5370    0.0515 H         1 <0>         0.1034
     33 H12        -9.1962   -3.8719   -0.8481 H         1 <0>         0.0822
     34 H13        -9.1855   -3.8743    0.9319 H         1 <0>         0.0822
@<TRIPOS>BOND
     1    1    2 1
     2    1   22 1
     3    1   23 1
     4    1   24 1
     5    2   11 am
     6    2    3 1
     7    3    4 2
     8    3    7 1
     9    4    5 1
    10    5   14 1
    11    5    6 2
    12    6    7 1
    13    7    8 2
    14    8    9 1
    15    8   10 1
    16   10   11 am
    17   10   13 1
    18   11   12 2
    19   13   25 1
    20   13   26 1
    21   13   27 1
    22   14   19 ar
    23   14   15 ar
    24   15   16 ar
    25   15   28 1
    26   16   17 ar
    27   16   29 1
    28   17   18 ar
    29   17   20 1
    30   18   19 ar
    31   18   30 1
    32   19   31 1
    33   20   21 1
    34   21   32 1
    35   21   33 1
    36   21   34 1
@<TRIPOS>MOLECULE
ZINC13361338
   35    37     0     0     0
SMALL
USER_CHARGES
1,3-dimethyl-8-(4-methylsulfanylphenyl)-9H-purine-2,6-dione
@<TRIPOS>ATOM
      1 C1          6.7702    1.8950   -0.0585 C.3       1 <0>         0.0870
      2 N1          6.0188    0.6375   -0.0611 N.am      1 <0>        -0.5066
      3 C2          4.6439    0.6679   -0.0390 C.2       1 <0>         0.3177
      4 C3          3.9392   -0.5316   -0.0481 C.2       1 <0>        -0.1617
      5 C4          4.7000   -1.7831   -0.0686 C.2       1 <0>         0.5960
      6 O1          4.1295   -2.8585   -0.0725 O.2       1 <0>        -0.5048
      7 N2          6.0488   -1.7168   -0.0834 N.am      1 <0>        -0.5504
      8 C5          6.6818   -0.5320   -0.0796 C.2       1 <0>         0.7083
      9 O2          7.8977   -0.5167   -0.0931 O.2       1 <0>        -0.5298
     10 C6          6.8325   -2.9544   -0.1036 C.3       1 <0>         0.0831
     11 N3          2.6204   -0.2319   -0.0253 N.pl3     1 <0>        -0.4724
     12 C7          2.4777    1.0719   -0.0164 C.2       1 <0>         0.3111
     13 N4          3.7169    1.6627   -0.0251 N.2       1 <0>        -0.4756
     14 H1          1.8741   -0.8974   -0.0165 H         1 <0>         0.4410
     15 C8          1.1869    1.7912    0.0003 C.ar      1 <0>        -0.0433
     16 C9         -0.0126    1.0758    0.0080 C.ar      1 <0>        -0.0787
     17 C10        -1.2142    1.7489    0.0173 C.ar      1 <0>        -0.1322
     18 C11        -1.2338    3.1402    0.0313 C.ar      1 <0>        -0.0639
     19 C12        -0.0402    3.8554    0.0232 C.ar      1 <0>        -0.0998
     20 C13         1.1643    3.1876    0.0081 C.ar      1 <0>        -0.0420
     21 S1         -2.7728    3.9978    0.0512 S.3       1 <0>        -0.1007
     22 C14        -4.0130    2.6739    0.0564 C.3       1 <0>        -0.1491
     23 H2          6.9684    2.1977    0.9698 H         1 <0>         0.0744
     24 H3          7.7146    1.7551   -0.5845 H         1 <0>         0.0948
     25 H4          6.1868    2.6681   -0.5587 H         1 <0>         0.0930
     26 H5          7.0384   -3.2707    0.9190 H         1 <0>         0.0780
     27 H6          6.2693   -3.7327   -0.6183 H         1 <0>         0.0953
     28 H7          7.7730   -2.7804   -0.6263 H         1 <0>         0.0984
     29 H8          0.0021   -0.0041    0.0020 H         1 <0>         0.1259
     30 H9         -2.1421    1.1962    0.0187 H         1 <0>         0.1328
     31 H10        -0.0584    4.9353    0.0293 H         1 <0>         0.1398
     32 H11         2.0903    3.7432    0.0019 H         1 <0>         0.1480
     33 H12        -5.0113    3.1113    0.0687 H         1 <0>         0.1131
     34 H13        -3.8952    2.0623   -0.8381 H         1 <0>         0.0867
     35 H14        -3.8775    2.0527    0.9417 H         1 <0>         0.0867
@<TRIPOS>BOND
     1    1    2 1
     2    1   23 1
     3    1   24 1
     4    1   25 1
     5    2    8 am
     6    2    3 1
     7    3   13 1
     8    3    4 2
     9    4    5 1
    10    4   11 1
    11    5    6 2
    12    5    7 am
    13    7    8 am
    14    7   10 1
    15    8    9 2
    16   10   26 1
    17   10   27 1
    18   10   28 1
    19   11   12 1
    20   11   14 1
    21   12   15 1
    22   12   13 2
    23   15   20 ar
    24   15   16 ar
    25   16   17 ar
    26   16   29 1
    27   17   18 ar
    28   17   30 1
    29   18   19 ar
    30   18   21 1
    31   19   20 ar
    32   19   31 1
    33   20   32 1
    34   21   22 1
    35   22   33 1
    36   22   34 1
    37   22   35 1
@<TRIPOS>MOLECULE
ZINC13473627
   39    41     0     0     0
SMALL
USER_CHARGES

@<TRIPOS>ATOM
      1 C1         -0.0127    1.0858    0.0080 C.3       1 <0>         0.0888
      2 N1         -0.7213    1.5711   -1.1789 N.am      1 <0>        -0.5110
      3 C2         -2.0905    1.7830   -1.1292 C.2       1 <0>         0.3298
      4 C3         -2.7388    2.2443   -2.2707 C.2       1 <0>        -0.1533
      5 C4         -1.9869    2.4816   -3.4395 C.2       1 <0>         0.5937
      6 O1         -2.5321    2.8859   -4.4512 O.2       1 <0>        -0.5158
      7 N2         -0.6568    2.2563   -3.4251 N.am      1 <0>        -0.5516
      8 C5         -0.0410    1.8159   -2.3145 C.2       1 <0>         0.7074
      9 O2          1.1603    1.6293   -2.3375 O.2       1 <0>        -0.5309
     10 C6          0.1294    2.5011   -4.6368 C.3       1 <0>         0.0832
     11 N3         -4.0762    2.3635   -1.9405 N.pl3     1 <0>        -0.5208
     12 C7         -4.1955    1.9799   -0.6389 C.2       1 <0>         0.3628
     13 N4         -3.0087    1.6393   -0.1746 N.2       1 <0>        -0.4926
     14 H1         -4.7915    2.6630   -2.5232 H         1 <0>         0.4353
     15 C8         -5.4549    1.9499    0.1310 C.ar      1 <0>        -0.1084
     16 C9         -6.6551    2.3305   -0.4749 C.ar      1 <0>        -0.0419
     17 C10        -7.8280    2.3015    0.2459 C.ar      1 <0>        -0.1993
     18 C11        -7.8189    1.8938    1.5762 C.ar      1 <0>         0.2409
     19 C12        -6.6253    1.5146    2.1826 C.ar      1 <0>        -0.2023
     20 C13        -5.4500    1.5355    1.4654 C.ar      1 <0>        -0.0082
     21 N5         -9.0071    1.8656    2.3025 N.pl3     1 <0>        -0.6290
     22 C14       -10.2645    2.2649    1.6657 C.3       1 <0>         0.0864
     23 C15        -8.9993    1.4365    3.7033 C.3       1 <0>         0.0863
     24 H2          0.0021   -0.0041    0.0020 H         1 <0>         0.0737
     25 H3          1.0099    1.4631    0.0003 H         1 <0>         0.0937
     26 H4         -0.5229    1.4373    0.9048 H         1 <0>         0.0923
     27 H5         -0.5277    2.8562   -5.4307 H         1 <0>         0.1035
     28 H6          0.8898    3.2544   -4.4305 H         1 <0>         0.0825
     29 H7          0.6110    1.5751   -4.9507 H         1 <0>         0.0825
     30 H8         -6.6627    2.6473   -1.5073 H         1 <0>         0.1216
     31 H9         -8.7559    2.5958   -0.2218 H         1 <0>         0.1317
     32 H10        -6.6215    1.1990    3.2154 H         1 <0>         0.1330
     33 H11        -4.5247    1.2365    1.9352 H         1 <0>         0.1406
     34 H12       -10.7346    1.3928    1.2113 H         1 <0>         0.0538
     35 H13       -10.9329    2.6886    2.4153 H         1 <0>         0.0710
     36 H14       -10.0617    3.0104    0.8968 H         1 <0>         0.0721
     37 H15        -8.8391    2.3013    4.3472 H         1 <0>         0.0542
     38 H16        -9.9558    0.9742    3.9470 H         1 <0>         0.0708
     39 H17        -8.1971    0.7149    3.8578 H         1 <0>         0.0733
@<TRIPOS>BOND
     1    1   24 1
     2    1   25 1
     3    1   26 1
     4    1    2 1
     5    2    3 1
     6    2    8 am
     7    3   13 1
     8    3    4 2
     9    4    5 1
    10    4   11 1
    11    5    7 am
    12    5    6 2
    13    7    8 am
    14    7   10 1
    15    8    9 2
    16   10   27 1
    17   10   28 1
    18   10   29 1
    19   11   14 1
    20   11   12 1
    21   12   15 1
    22   12   13 2
    23   15   20 ar
    24   15   16 ar
    25   16   17 ar
    26   16   30 1
    27   17   18 ar
    28   17   31 1
    29   18   19 ar
    30   18   21 1
    31   19   20 ar
    32   19   32 1
    33   20   33 1
    34   21   22 1
    35   21   23 1
    36   22   34 1
    37   22   35 1
    38   22   36 1
    39   23   37 1
    40   23   38 1
    41   23   39 1
@<TRIPOS>MOLECULE
ZINC09229229
   37    39     0     0     0
SMALL
USER_CHARGES

@<TRIPOS>ATOM
      1 C1         -0.0187    1.5258    0.0104 C.3       1 <0>        -0.1680
      2 C2          0.0021   -0.0041    0.0020 C.3       1 <0>         0.1152
      3 N1          0.6878   -0.4765   -1.2033 N.am      1 <0>        -0.5082
      4 C3         -0.0334   -0.7052   -2.3651 C.2       1 <0>         0.3290
      5 C4          0.6423   -1.1532   -3.4958 C.2       1 <0>        -0.1457
      6 C5          2.0362   -1.3610   -3.4264 C.2       1 <0>         0.5940
      7 O1          2.6500   -1.7525   -4.4030 O.2       1 <0>        -0.5110
      8 N2          2.6815   -1.1207   -2.2662 N.am      1 <0>        -0.5483
      9 C6          2.0179   -0.6826   -1.1826 C.2       1 <0>         0.7080
     10 O2          2.6341   -0.4721   -0.1556 O.2       1 <0>        -0.5290
     11 C7          4.1286   -1.3351   -2.1880 C.3       1 <0>         0.1102
     12 C8          4.8567   -0.0443   -2.5684 C.3       1 <0>        -0.1672
     13 N3         -0.3074   -1.2946   -4.4889 N.pl3     1 <0>        -0.5144
     14 H1         -0.1525   -1.5921   -5.3991 H         1 <0>         0.4365
     15 C9         -1.5027   -0.9366   -3.9443 C.2       1 <0>         0.3420
     16 N4         -1.3216   -0.5903   -2.6853 N.2       1 <0>        -0.4822
     17 C10        -2.7998   -0.9359   -4.6534 C.ar      1 <0>        -0.0386
     18 C11        -2.8676   -1.3299   -5.9908 C.ar      1 <0>        -0.0983
     19 C12        -4.0813   -1.3274   -6.6466 C.ar      1 <0>        -0.1167
     20 C13        -5.2296   -0.9352   -5.9818 C.ar      1 <0>        -0.0959
     21 C14        -5.1693   -0.5436   -4.6561 C.ar      1 <0>        -0.1189
     22 C15        -3.9628   -0.5469   -3.9870 C.ar      1 <0>        -0.0637
     23 H2          1.0039    1.9031    0.0027 H         1 <0>         0.0615
     24 H3         -0.5459    1.8868   -0.8726 H         1 <0>         0.0612
     25 H4         -0.5289    1.8773    0.9072 H         1 <0>         0.0787
     26 H5          0.5293   -0.3651    0.8851 H         1 <0>         0.1011
     27 H6         -1.0205   -0.3814    0.0098 H         1 <0>         0.0989
     28 H7          4.3995   -1.6188   -1.1711 H         1 <0>         0.1038
     29 H8          4.4158   -2.1304   -2.8759 H         1 <0>         0.1018
     30 H9          4.5859    0.2395   -3.5854 H         1 <0>         0.0605
     31 H10         4.5696    0.7510   -1.8806 H         1 <0>         0.0627
     32 H11         5.9334   -0.2038   -2.5102 H         1 <0>         0.0801
     33 H12        -1.9720   -1.6356   -6.5111 H         1 <0>         0.1225
     34 H13        -4.1353   -1.6320   -7.6814 H         1 <0>         0.1325
     35 H14        -6.1772   -0.9344   -6.5000 H         1 <0>         0.1304
     36 H15        -6.0692   -0.2385   -4.1429 H         1 <0>         0.1340
     37 H16        -3.9177   -0.2449   -2.9510 H         1 <0>         0.1415
@<TRIPOS>BOND
     1    1    2 1
     2    1   23 1
     3    1   24 1
     4    1   25 1
     5    2    3 1
     6    2   26 1
     7    2   27 1
     8    3    9 am
     9    3    4 1
    10    4   16 1
    11    4    5 2
    12    5    6 1
    13    5   13 1
    14    6    7 2
    15    6    8 am
    16    8    9 am
    17    8   11 1
    18    9   10 2
    19   11   12 1
    20   11   28 1
    21   11   29 1
    22   12   30 1
    23   12   31 1
    24   12   32 1
    25   13   14 1
    26   13   15 1
    27   15   16 2
    28   15   17 1
    29   17   22 ar
    30   17   18 ar
    31   18   19 ar
    32   18   33 1
    33   19   20 ar
    34   19   34 1
    35   20   21 ar
    36   20   35 1
    37   21   22 ar
    38   21   36 1
    39   22   37 1
@<TRIPOS>MOLECULE
ZINC12405300
   35    37     0     0     0
SMALL
USER_CHARGES

@<TRIPOS>ATOM
      1 C1         -0.0127    1.0858    0.0080 C.3       1 <0>         0.0878
      2 N1         -0.7213    1.5711   -1.1789 N.am      1 <0>        -0.5106
      3 C2         -2.0905    1.7830   -1.1291 C.2       1 <0>         0.3274
      4 C3         -2.7389    2.2446   -2.2701 C.2       1 <0>        -0.1418
      5 C4         -1.9863    2.4821   -3.4399 C.2       1 <0>         0.5942
      6 O1         -2.5313    2.8868   -4.4514 O.2       1 <0>        -0.5114
      7 N2         -0.6563    2.2564   -3.4252 N.am      1 <0>        -0.5508
      8 C5         -0.0409    1.8159   -2.3144 C.2       1 <0>         0.7076
      9 O2          1.1604    1.6289   -2.3372 O.2       1 <0>        -0.5280
     10 C6          0.1302    2.5007   -4.6368 C.3       1 <0>         0.0827
     11 N3         -4.0749    2.3640   -1.9400 N.pl3     1 <0>        -0.5112
     12 C7         -4.1946    1.9804   -0.6392 C.2       1 <0>         0.3419
     13 N4         -3.0090    1.6394   -0.1746 N.2       1 <0>        -0.4787
     14 H1         -4.7901    2.6638   -2.5227 H         1 <0>         0.4378
     15 C8         -5.4559    1.9515    0.1314 C.ar      1 <0>         0.0026
     16 C9         -6.6552    2.3329   -0.4733 C.ar      1 <0>        -0.1363
     17 C10        -7.8304    2.3048    0.2488 C.ar      1 <0>        -0.0741
     18 C11        -7.8251    1.8998    1.5710 C.ar      1 <0>        -0.1872
     19 C12        -6.6374    1.5192    2.1808 C.ar      1 <0>         0.1305
     20 C13        -5.4530    1.5377    1.4634 C.ar      1 <0>        -0.0976
     21 O3         -6.6380    1.1229    3.4808 O.3       1 <0>        -0.3120
     22 C14        -7.8962    1.1225    4.1584 C.3       1 <0>         0.0249
     23 H2          0.0021   -0.0041    0.0020 H         1 <0>         0.0748
     24 H3          1.0099    1.4631    0.0003 H         1 <0>         0.0948
     25 H4         -0.5229    1.4373    0.9048 H         1 <0>         0.0930
     26 H5         -0.5267    2.8558   -5.4309 H         1 <0>         0.1040
     27 H6          0.8908    3.2536   -4.4305 H         1 <0>         0.0835
     28 H7          0.6115    1.5744   -4.9504 H         1 <0>         0.0834
     29 H8         -6.6628    2.6501   -1.5056 H         1 <0>         0.1255
     30 H9         -8.7574    2.6004   -0.2199 H         1 <0>         0.1363
     31 H10        -8.7481    1.8798    2.1314 H         1 <0>         0.1359
     32 H11        -4.5292    1.2370    1.9352 H         1 <0>         0.1503
     33 H12        -8.5842    0.4495    3.6467 H         1 <0>         0.0582
     34 H13        -7.7556    0.7862    5.1856 H         1 <0>         0.1044
     35 H14        -8.3085    2.1315    4.1596 H         1 <0>         0.0582
@<TRIPOS>BOND
     1    1   23 1
     2    1   24 1
     3    1   25 1
     4    1    2 1
     5    2    3 1
     6    2    8 am
     7    3   13 1
     8    3    4 2
     9    4    5 1
    10    4   11 1
    11    5    7 am
    12    5    6 2
    13    7    8 am
    14    7   10 1
    15    8    9 2
    16   10   26 1
    17   10   27 1
    18   10   28 1
    19   11   14 1
    20   11   12 1
    21   12   15 1
    22   12   13 2
    23   15   20 ar
    24   15   16 ar
    25   16   17 ar
    26   16   29 1
    27   17   18 ar
    28   17   30 1
    29   18   19 ar
    30   18   31 1
    31   19   20 ar
    32   19   21 1
    33   20   32 1
    34   21   22 1
    35   22   33 1
    36   22   34 1
    37   22   35 1
@<TRIPOS>MOLECULE
ZINC12405300
   36    38     0     0     0
SMALL
USER_CHARGES
8-(3-methoxyphenyl)-1,3-dimethyl-7H-purine-2,6-dione
@<TRIPOS>ATOM
      1 C1         -1.5766    4.8088    2.7080 C.3       1 <0>         0.0620
      2 N1         -1.4532    3.3616    2.5163 N.am      1 <0>        -0.5123
      3 C2         -1.9771    2.4914    3.4600 C.2       1 <0>         0.3565
      4 C3         -1.8463    1.1217    3.2538 C.2       1 <0>        -0.0678
      5 C4         -1.1868    0.6610    2.0946 C.2       1 <0>         0.5888
      6 O1         -1.0601   -0.5334    1.8916 O.2       1 <0>        -0.4648
      7 N2         -0.6984    1.5583    1.2133 N.am      1 <0>        -0.5410
      8 C5         -0.8266    2.8790    1.4270 C.2       1 <0>         0.7080
      9 O2         -0.3693    3.6580    0.6129 O.2       1 <0>        -0.4795
     10 C6         -0.0127    1.0858    0.0080 C.3       1 <0>         0.0745
     11 N3         -2.4491    0.5042    4.3324 N.pl3     1 <0>        -0.4576
     12 H1         -2.5271   -0.4804    4.4886 H         1 <0>         0.4839
     13 C7         -2.9166    1.4940    5.1418 C.cat     1 <0>         0.4431
     14 C8         -3.6349    1.2879    6.4174 C.ar      1 <0>        -0.0601
     15 C9         -3.8830   -0.0055    6.8807 C.ar      1 <0>        -0.1029
     16 C10        -4.5532   -0.1941    8.0717 C.ar      1 <0>        -0.0628
     17 C11        -4.9804    0.8946    8.8097 C.ar      1 <0>        -0.1509
     18 C12        -4.7382    2.1844    8.3571 C.ar      1 <0>         0.1463
     19 C13        -4.0621    2.3852    7.1653 C.ar      1 <0>        -0.1101
     20 O3         -5.1603    3.2506    9.0865 O.3       1 <0>        -0.3070
     21 C14        -5.8463    2.9702   10.3083 C.3       1 <0>         0.0194
     22 H2         -0.7125    5.1771    3.2609 H         1 <0>         0.0972
     23 H3         -1.6233    5.3013    1.7367 H         1 <0>         0.1217
     24 H4         -2.4859    5.0248    3.2690 H         1 <0>         0.0906
     25 H5          0.0021   -0.0041    0.0020 H         1 <0>         0.1139
     26 H6          1.0099    1.4631    0.0003 H         1 <0>         0.0953
     27 H7         -0.5399    1.4469   -0.8751 H         1 <0>         0.0954
     28 H8         -3.5508   -0.8580    6.3068 H         1 <0>         0.1387
     29 H9         -4.7446   -1.1952    8.4291 H         1 <0>         0.1535
     30 H10        -5.5039    0.7409    9.7417 H         1 <0>         0.1515
     31 H11        -3.8692    3.3881    6.8142 H         1 <0>         0.1418
     32 H12        -6.7426    2.3872   10.0961 H         1 <0>         0.0658
     33 H13        -5.1922    2.4029   10.9703 H         1 <0>         0.0658
     34 H14        -6.1276    3.9065   10.7902 H         1 <0>         0.1144
     35 N4         -2.6288    2.6671    4.6105 N.pl3     1 <0>        -0.4948
     36 H15        -2.8699    3.5771    5.0204 H         1 <0>         0.4837
@<TRIPOS>BOND
     1    1    2 1
     2    1   22 1
     3    1   23 1
     4    1   24 1
     5    2    8 am
     6    2    3 1
     7    3    4 2
     8    3   35 1
     9    4    5 1
    10    4   11 1
    11    5    6 2
    12    5    7 am
    13    7    8 am
    14    7   10 1
    15    8    9 2
    16   10   25 1
    17   10   26 1
    18   10   27 1
    19   11   12 1
    20   11   13 1
    21   13   14 1
    22   13   35 2
    23   14   19 ar
    24   14   15 ar
    25   15   16 ar
    26   15   28 1
    27   16   17 ar
    28   16   29 1
    29   17   18 ar
    30   17   30 1
    31   18   19 ar
    32   18   20 1
    33   19   31 1
    34   20   21 1
    35   21   32 1
    36   21   33 1
    37   21   34 1
    38   35   36 1
@<TRIPOS>MOLECULE
ZINC15869361
   34    36     0     0     0
SMALL
USER_CHARGES

@<TRIPOS>ATOM
      1 C1         -0.0178    1.4608    0.0101 C.3       1 <0>         0.0960
      2 N1          0.0021   -0.0041    0.0020 N.am      1 <0>        -0.5043
      3 C2         -1.1874   -0.7125    0.0038 C.2       1 <0>         0.2274
      4 N2         -2.4634   -0.3741    0.0127 N.2       1 <0>        -0.5324
      5 C3         -3.2046   -1.4886    0.0104 C.2       1 <0>         0.1716
      6 N3         -2.4195   -2.5514   -0.0000 N.2       1 <0>        -0.4496
      7 C4         -1.1418   -2.1264   -0.0046 C.2       1 <0>        -0.1520
      8 C5          0.1029   -2.7608   -0.0144 C.2       1 <0>         0.5532
      9 O1          0.1819   -4.1040   -0.0230 O.3       1 <0>        -0.6020
     10 N4          1.2363   -2.0038   -0.0156 N.am      1 <0>        -0.5384
     11 C6          1.1773   -0.6614   -0.0127 C.2       1 <0>         0.7061
     12 O2          2.2126   -0.0233   -0.0188 O.2       1 <0>        -0.5742
     13 C7          2.5430   -2.6660   -0.0259 C.3       1 <0>         0.0892
     14 C8         -4.6862   -1.5252    0.0187 C.ar      1 <0>         0.0085
     15 C9         -5.4146   -0.3360    0.0242 C.ar      1 <0>        -0.0649
     16 C10        -6.7928   -0.3735    0.0315 C.ar      1 <0>        -0.1531
     17 C11        -7.4556   -1.5936    0.0334 C.ar      1 <0>         0.1043
     18 C12        -6.7334   -2.7795    0.0285 C.ar      1 <0>        -0.2072
     19 C13        -5.3550   -2.7490    0.0153 C.ar      1 <0>        -0.0646
     20 O3         -8.8138   -1.6272    0.0406 O.3       1 <0>        -0.3234
     21 C14        -9.4309   -2.9160    0.0422 C.3       1 <0>         0.0294
     22 H1          1.0048    1.8381    0.0023 H         1 <0>         0.0890
     23 H2         -0.5450    1.8219   -0.8730 H         1 <0>         0.0672
     24 H3         -0.5280    1.8123    0.9069 H         1 <0>         0.0673
     25 H4          2.4026   -3.7469   -0.0314 H         1 <0>         0.1001
     26 H5          3.0950   -2.3668   -0.9169 H         1 <0>         0.0702
     27 H6          3.1038   -2.3771    0.8630 H         1 <0>         0.0702
     28 H7         -4.8996    0.6134    0.0231 H         1 <0>         0.1357
     29 H8         -7.3575    0.5471    0.0361 H         1 <0>         0.1256
     30 H9         -7.2519   -3.7269    0.0303 H         1 <0>         0.1233
     31 H10        -4.7939   -3.6717    0.0069 H         1 <0>         0.1329
     32 H11        -9.1291   -3.4645   -0.8501 H         1 <0>         0.0527
     33 H12        -9.1196   -3.4668    0.9298 H         1 <0>         0.0527
     34 H13       -10.5147   -2.8000    0.0481 H         1 <0>         0.0935
@<TRIPOS>BOND
     1    1    2 1
     2    1   22 1
     3    1   23 1
     4    1   24 1
     5    2   11 am
     6    2    3 1
     7    3    4 2
     8    3    7 1
     9    4    5 1
    10    5   14 1
    11    5    6 2
    12    6    7 1
    13    7    8 2
    14    8    9 1
    15    8   10 1
    16   10   11 am
    17   10   13 1
    18   11   12 2
    19   13   25 1
    20   13   26 1
    21   13   27 1
    22   14   19 ar
    23   14   15 ar
    24   15   16 ar
    25   15   28 1
    26   16   17 ar
    27   16   29 1
    28   17   18 ar
    29   17   20 1
    30   18   19 ar
    31   18   30 1
    32   19   31 1
    33   20   21 1
    34   21   32 1
    35   21   33 1
    36   21   34 1
@<TRIPOS>MOLECULE
ZINC15869361
   35    37     0     0     0
SMALL
USER_CHARGES
8-(4-methoxyphenyl)-1,3-dimethyl-9H-purine-2,6-dione
@<TRIPOS>ATOM
      1 C1          6.7697    1.8984   -0.0570 C.3       1 <0>         0.0872
      2 N1          6.0190    0.6404   -0.0601 N.am      1 <0>        -0.5067
      3 C2          4.6441    0.6700   -0.0381 C.2       1 <0>         0.3180
      4 C3          3.9401   -0.5300   -0.0471 C.2       1 <0>        -0.1649
      5 C4          4.7017   -1.7811   -0.0669 C.2       1 <0>         0.5960
      6 O1          4.1319   -2.8569   -0.0703 O.2       1 <0>        -0.5059
      7 N2          6.0505   -1.7139   -0.0821 N.am      1 <0>        -0.5506
      8 C5          6.6828   -0.5287   -0.0788 C.2       1 <0>         0.7084
      9 O2          7.8986   -0.5127   -0.0928 O.2       1 <0>        -0.5306
     10 C6          6.8350   -2.9509   -0.1019 C.3       1 <0>         0.0831
     11 N3          2.6215   -0.2310   -0.0241 N.pl3     1 <0>        -0.4741
     12 C7          2.4779    1.0724   -0.0158 C.2       1 <0>         0.3178
     13 N4          3.7166    1.6640   -0.0245 N.2       1 <0>        -0.4791
     14 H1          1.8755   -0.8969   -0.0150 H         1 <0>         0.4404
     15 C8          1.1863    1.7911    0.0004 C.ar      1 <0>        -0.0775
     16 C9         -0.0126    1.0758    0.0080 C.ar      1 <0>        -0.0577
     17 C10        -1.2149    1.7496    0.0173 C.ar      1 <0>        -0.2064
     18 C11        -1.2347    3.1382    0.0302 C.ar      1 <0>         0.1524
     19 C12        -0.0442    3.8534    0.0222 C.ar      1 <0>        -0.1512
     20 C13         1.1621    3.1869    0.0076 C.ar      1 <0>        -0.0220
     21 O3         -2.4217    3.7987    0.0446 O.3       1 <0>        -0.3114
     22 C14        -3.6077    3.0015    0.0522 C.3       1 <0>         0.0232
     23 H2          6.9676    2.2009    0.9713 H         1 <0>         0.0742
     24 H3          7.7143    1.7591   -0.5829 H         1 <0>         0.0945
     25 H4          6.1860    2.6712   -0.5571 H         1 <0>         0.0929
     26 H5          7.0413   -3.2668    0.9208 H         1 <0>         0.0777
     27 H6          6.2722   -3.7300   -0.6162 H         1 <0>         0.0951
     28 H7          7.7753   -2.7766   -0.6249 H         1 <0>         0.0982
     29 H8          0.0021   -0.0041    0.0020 H         1 <0>         0.1254
     30 H9         -2.1428    1.1969    0.0187 H         1 <0>         0.1381
     31 H10        -0.0638    4.9332    0.0278 H         1 <0>         0.1427
     32 H11         2.0875    3.7438    0.0014 H         1 <0>         0.1493
     33 H12        -4.4824    3.6517    0.0636 H         1 <0>         0.1048
     34 H13        -3.6311    2.3765   -0.8406 H         1 <0>         0.0593
     35 H14        -3.6141    2.3682    0.9393 H         1 <0>         0.0593
@<TRIPOS>BOND
     1    1    2 1
     2    1   23 1
     3    1   24 1
     4    1   25 1
     5    2    8 am
     6    2    3 1
     7    3   13 1
     8    3    4 2
     9    4    5 1
    10    4   11 1
    11    5    6 2
    12    5    7 am
    13    7    8 am
    14    7   10 1
    15    8    9 2
    16   10   26 1
    17   10   27 1
    18   10   28 1
    19   11   12 1
    20   11   14 1
    21   12   15 1
    22   12   13 2
    23   15   20 ar
    24   15   16 ar
    25   16   17 ar
    26   16   29 1
    27   17   18 ar
    28   17   30 1
    29   18   19 ar
    30   18   21 1
    31   19   20 ar
    32   19   31 1
    33   20   32 1
    34   21   22 1
    35   22   33 1
    36   22   34 1
    37   22   35 1
@<TRIPOS>MOLECULE
ZINC00531038
   39    41     0     0     0
SMALL
USER_CHARGES

@<TRIPOS>ATOM
      1 C1         -0.0127    1.0858    0.0080 C.3       1 <0>         0.0883
      2 N1         -0.7213    1.5711   -1.1789 N.am      1 <0>        -0.5110
      3 C2         -2.0905    1.7830   -1.1292 C.2       1 <0>         0.3287
      4 C3         -2.7388    2.2447   -2.2704 C.2       1 <0>        -0.1449
      5 C4         -1.9866    2.4824   -3.4394 C.2       1 <0>         0.5938
      6 O1         -2.5318    2.8872   -4.4509 O.2       1 <0>        -0.5123
      7 N2         -0.6566    2.2571   -3.4249 N.am      1 <0>        -0.5509
      8 C5         -0.0410    1.8159   -2.3145 C.2       1 <0>         0.7075
      9 O2          1.1603    1.6290   -2.3375 O.2       1 <0>        -0.5283
     10 C6          0.1297    2.5019   -4.6365 C.3       1 <0>         0.0827
     11 N3         -4.0758    2.3642   -1.9402 N.pl3     1 <0>        -0.5141
     12 C7         -4.1952    1.9804   -0.6389 C.2       1 <0>         0.3501
     13 N4         -3.0088    1.6393   -0.1746 N.2       1 <0>        -0.4855
     14 H1         -4.7910    2.6642   -2.5228 H         1 <0>         0.4372
     15 C8         -5.4551    1.9506    0.1312 C.ar      1 <0>        -0.0387
     16 C9         -6.6546    2.3315   -0.4743 C.ar      1 <0>        -0.0886
     17 C10        -7.8298    2.3033    0.2459 C.ar      1 <0>        -0.1727
     18 C11        -7.8245    1.8969    1.5727 C.ar      1 <0>         0.1270
     19 C12        -6.6312    1.5156    2.1831 C.ar      1 <0>         0.1013
     20 C13        -5.4505    1.5361    1.4650 C.ar      1 <0>        -0.1193
     21 O3         -6.6294    1.1178    3.4836 O.3       1 <0>        -0.3017
     22 C14        -5.3705    0.7408    4.0449 C.3       1 <0>         0.0223
     23 O4         -8.9853    1.8712    2.2785 O.3       1 <0>        -0.2999
     24 C15       -10.1714    2.2753    1.5914 C.3       1 <0>         0.0222
     25 H2          0.0021   -0.0041    0.0020 H         1 <0>         0.0744
     26 H3          1.0099    1.4631    0.0003 H         1 <0>         0.0947
     27 H4         -0.5229    1.4373    0.9048 H         1 <0>         0.0921
     28 H5         -0.5273    2.8570   -5.4305 H         1 <0>         0.1040
     29 H6          0.8901    3.2551   -4.4302 H         1 <0>         0.0833
     30 H7          0.6113    1.5759   -4.9504 H         1 <0>         0.0833
     31 H8         -6.6614    2.6485   -1.5067 H         1 <0>         0.1290
     32 H9         -8.7566    2.5984   -0.2235 H         1 <0>         0.1462
     33 H10        -4.5257    1.2366    1.9355 H         1 <0>         0.1548
     34 H11        -4.9578   -0.0965    3.4820 H         1 <0>         0.0590
     35 H12        -4.6833    1.5854    3.9960 H         1 <0>         0.0590
     36 H13        -5.5101    0.4457    5.0849 H         1 <0>         0.1043
     37 H14       -11.0237    2.2081    2.2676 H         1 <0>         0.1050
     38 H15       -10.0599    3.3038    1.2483 H         1 <0>         0.0588
     39 H16       -10.3352    1.6221    0.7343 H         1 <0>         0.0588
@<TRIPOS>BOND
     1    1   25 1
     2    1   26 1
     3    1   27 1
     4    1    2 1
     5    2    3 1
     6    2    8 am
     7    3   13 1
     8    3    4 2
     9    4    5 1
    10    4   11 1
    11    5    7 am
    12    5    6 2
    13    7    8 am
    14    7   10 1
    15    8    9 2
    16   10   28 1
    17   10   29 1
    18   10   30 1
    19   11   14 1
    20   11   12 1
    21   12   15 1
    22   12   13 2
    23   15   20 ar
    24   15   16 ar
    25   16   17 ar
    26   16   31 1
    27   17   18 ar
    28   17   32 1
    29   18   19 ar
    30   18   23 1
    31   19   20 ar
    32   19   21 1
    33   20   33 1
    34   21   22 1
    35   22   34 1
    36   22   35 1
    37   22   36 1
    38   23   24 1
    39   24   37 1
    40   24   38 1
    41   24   39 1
@<TRIPOS>MOLECULE
ZINC03811810
   48    51     0     0     0
SMALL
USER_CHARGES

@<TRIPOS>ATOM
      1 C1         -0.0178    1.4608    0.0101 C.3       1 <0>         0.0858
      2 N1          0.0021   -0.0041    0.0020 N.am      1 <0>        -0.7308
      3 C2         -1.1558   -0.6938    0.0094 C.2       1 <0>         0.5149
      4 O1         -2.2142   -0.1017    0.0227 O.2       1 <0>        -0.5024
      5 C3         -1.1354   -2.2006    0.0011 C.3       1 <0>         0.0320
      6 H1         -0.5471   -2.5799    0.8366 H         1 <0>         0.1225
      7 C4         -0.5782   -2.7315   -1.3443 C.3       1 <0>         0.0506
      8 H2         -0.9118   -2.1105   -2.1757 H         1 <0>         0.0948
      9 C5         -1.2083   -4.1435   -1.4217 C.3       1 <0>         0.0832
     10 H3         -1.5347   -4.3603   -2.4388 H         1 <0>         0.0899
     11 C6         -2.4187   -4.0695   -0.4709 C.3       1 <0>         0.3144
     12 H4         -2.2882   -4.7738    0.3507 H         1 <0>         0.1316
     13 O2         -2.4789   -2.7275    0.0446 O.3       1 <0>        -0.3270
     14 N2         -3.6479   -4.3821   -1.2041 N.pl3     1 <0>        -0.4753
     15 C7         -4.4978   -3.4819   -1.7747 C.2       1 <0>         0.2660
     16 N3         -5.4881   -4.1049   -2.3448 N.2       1 <0>        -0.4586
     17 C8         -5.3371   -5.4406   -2.1768 C.ar      1 <0>        -0.1040
     18 C9         -4.1517   -5.6348   -1.4476 C.ar      1 <0>         0.3101
     19 N4         -3.7707   -6.8732   -1.1522 N.ar      1 <0>        -0.5538
     20 C10        -4.4895   -7.9064   -1.5380 C.ar      1 <0>         0.3661
     21 N5         -5.6079   -7.7739   -2.2273 N.ar      1 <0>        -0.5871
     22 C11        -6.0726   -6.5743   -2.5614 C.ar      1 <0>         0.5073
     23 N6         -7.2452   -6.4456   -3.2850 N.pl3     1 <0>        -0.6904
     24 C12        -7.9987   -7.6392   -3.6772 C.3       1 <0>         0.1703
     25 C13        -9.2253   -7.2276   -4.4499 C.ar      1 <0>        -0.1092
     26 C14       -10.4099   -6.9750   -3.7831 C.ar      1 <0>        -0.0788
     27 C15       -11.5351   -6.5975   -4.4915 C.ar      1 <0>        -0.1155
     28 C16       -11.4764   -6.4722   -5.8670 C.ar      1 <0>        -0.0754
     29 C17       -10.2918   -6.7247   -6.5341 C.ar      1 <0>        -0.1026
     30 C18        -9.1645   -7.0970   -5.8244 C.ar      1 <0>        -0.0641
     31 I1        -10.2026   -6.5356   -8.6187 I         1 <0>        -0.0379
     32 O3         -0.2777   -5.1316   -0.9750 O.3       1 <0>        -0.5314
     33 O4          0.8483   -2.8101   -1.3100 O.3       1 <0>        -0.5362
     34 H5          1.0048    1.8381    0.0023 H         1 <0>         0.0830
     35 H6         -0.5450    1.8219   -0.8730 H         1 <0>         0.0653
     36 H7         -0.5280    1.8123    0.9069 H         1 <0>         0.0657
     37 H8          0.8486   -0.4776   -0.0086 H         1 <0>         0.3996
     38 H9         -4.3686   -2.4098   -1.7561 H         1 <0>         0.2242
     39 H10        -4.1517   -8.8996   -1.2813 H         1 <0>         0.2060
     40 H11        -7.5682   -5.5651   -3.5326 H         1 <0>         0.4195
     41 H12        -7.3721   -8.2754   -4.3023 H         1 <0>         0.0825
     42 H13        -8.2988   -8.1888   -2.7851 H         1 <0>         0.0840
     43 H14       -10.4561   -7.0732   -2.7086 H         1 <0>         0.1321
     44 H15       -12.4604   -6.4006   -3.9704 H         1 <0>         0.1349
     45 H16       -12.3557   -6.1775   -6.4205 H         1 <0>         0.1316
     46 H17        -8.2379   -7.2896   -6.3447 H         1 <0>         0.1313
     47 H18         0.5294   -5.1801   -1.5054 H         1 <0>         0.3970
     48 H19         1.2858   -1.9588   -1.1720 H         1 <0>         0.3844
@<TRIPOS>BOND
     1    1    2 1
     2    1   34 1
     3    1   35 1
     4    1   36 1
     5    2    3 am
     6    2   37 1
     7    3    4 2
     8    3    5 1
     9    5    6 1
    10    5   13 1
    11    5    7 1
    12    7    8 1
    13    7    9 1
    14    7   33 1
    15    9   10 1
    16    9   11 1
    17    9   32 1
    18   11   12 1
    19   11   13 1
    20   11   14 1
    21   14   18 1
    22   14   15 1
    23   15   16 2
    24   15   38 1
    25   16   17 1
    26   17   22 ar
    27   17   18 ar
    28   18   19 ar
    29   19   20 ar
    30   20   21 ar
    31   20   39 1
    32   21   22 ar
    33   22   23 1
    34   23   24 1
    35   23   40 1
    36   24   25 1
    37   24   41 1
    38   24   42 1
    39   25   30 ar
    40   25   26 ar
    41   26   27 ar
    42   26   43 1
    43   27   28 ar
    44   27   44 1
    45   28   29 ar
    46   28   45 1
    47   29   30 ar
    48   29   31 1
    49   30   46 1
    50   32   47 1
    51   33   48 1
@<TRIPOS>MOLECULE
ZINC20390276
   44    46     0     0     0
SMALL
USER_CHARGES
ethyl 1-methyl-4-(phenethylamino)pyrazolo[4,5-e]pyridine-5-carboxylate
@<TRIPOS>ATOM
      1 C1          1.7453   -2.3349   -5.3860 C.3       1 <0>        -0.1564
      2 C2          1.1908   -1.4732   -4.2498 C.3       1 <0>         0.0653
      3 O1          0.5418   -2.3248   -3.2690 O.3       1 <0>        -0.3595
      4 C3         -0.0036   -1.7173   -2.1964 C.2       1 <0>         0.5219
      5 O2          0.0614   -0.5087   -2.0841 O.2       1 <0>        -0.4924
      6 C4         -0.6774   -2.5167   -1.1622 C.ar      1 <0>        -0.2543
      7 C5         -0.7206   -3.9142   -1.2597 C.ar      1 <0>         0.2342
      8 N1         -1.3212   -4.6439   -0.3503 N.ar      1 <0>        -0.5140
      9 C6         -1.9155   -4.1035    0.7120 C.ar      1 <0>         0.3392
     10 C7         -1.9180   -2.7093    0.8953 C.ar      1 <0>        -0.2551
     11 C8         -1.2835   -1.8901   -0.0584 C.ar      1 <0>         0.3870
     12 N2         -1.2620   -0.5182    0.0823 N.pl3     1 <0>        -0.7912
     13 C9         -0.1783   -0.0980    0.9807 C.3       1 <0>         0.1448
     14 C10        -0.1047    1.4299    1.0111 C.3       1 <0>        -0.0869
     15 C11         1.0071    1.8609    1.9327 C.ar      1 <0>        -0.0813
     16 C12         0.7476    2.0828    3.2722 C.ar      1 <0>        -0.1160
     17 C13         1.7684    2.4731    4.1186 C.ar      1 <0>        -0.1190
     18 C14         3.0466    2.6520    3.6233 C.ar      1 <0>        -0.1234
     19 C15         3.3049    2.4356    2.2827 C.ar      1 <0>        -0.1188
     20 C16         2.2852    2.0399    1.4374 C.ar      1 <0>        -0.1142
     21 C17        -2.6174   -2.4485    2.0963 C.2       1 <0>         0.1044
     22 N3         -3.0069   -3.5836    2.6006 N.2       1 <0>        -0.2444
     23 N4         -2.5925   -4.6341    1.7739 N.pl3     1 <0>        -0.3837
     24 C18        -2.8423   -6.0588    2.0068 C.3       1 <0>         0.1057
     25 H1          2.2370   -1.6898   -6.1290 H         1 <0>         0.0812
     26 H2          0.9215   -2.8842   -5.8652 H         1 <0>         0.0681
     27 H3          2.4761   -3.0502   -4.9806 H         1 <0>         0.0681
     28 H4          2.0146   -0.9239   -3.7706 H         1 <0>         0.0704
     29 H5          0.4600   -0.7579   -4.6551 H         1 <0>         0.0707
     30 H6         -0.2533   -4.4001   -2.1035 H         1 <0>         0.1795
     31 H7         -1.9216    0.2348   -0.3736 H         1 <0>         0.4447
     32 H8         -0.3754   -0.4759    1.9948 H         1 <0>         0.0475
     33 H9          0.7773   -0.5040    0.6175 H         1 <0>         0.0490
     34 H10         0.0924    1.8077   -0.0030 H         1 <0>         0.0836
     35 H11        -1.0603    1.8359    1.3744 H         1 <0>         0.0774
     36 H12        -0.2519    1.9473    3.6583 H         1 <0>         0.1215
     37 H13         1.5667    2.6418    5.1661 H         1 <0>         0.1217
     38 H14         3.8434    2.9606    4.2839 H         1 <0>         0.1210
     39 H15         4.3034    2.5755    1.8957 H         1 <0>         0.1214
     40 H16         2.4870    1.8708    0.3900 H         1 <0>         0.1213
     41 H17        -2.7981   -1.4728    2.5227 H         1 <0>         0.1978
     42 H18        -3.4109   -6.1836    2.9401 H         1 <0>         0.0981
     43 H19        -1.8829   -6.5908    2.0880 H         1 <0>         0.0825
     44 H20        -3.4206   -6.4717    1.1671 H         1 <0>         0.0826
@<TRIPOS>BOND
     1    1    2 1
     2    1   25 1
     3    1   26 1
     4    1   27 1
     5    2    3 1
     6    2   28 1
     7    2   29 1
     8    3    4 1
     9    4    5 2
    10    4    6 1
    11    6   11 ar
    12    6    7 ar
    13    7    8 ar
    14    7   30 1
    15    8    9 ar
    16    9   23 1
    17    9   10 ar
    18   10   11 ar
    19   10   21 1
    20   11   12 1
    21   12   13 1
    22   12   31 1
    23   13   14 1
    24   13   32 1
    25   13   33 1
    26   14   15 1
    27   14   34 1
    28   14   35 1
    29   15   20 ar
    30   15   16 ar
    31   16   17 ar
    32   16   36 1
    33   17   18 ar
    34   17   37 1
    35   18   19 ar
    36   18   38 1
    37   19   20 ar
    38   19   39 1
    39   20   40 1
    40   21   22 2
    41   21   41 1
    42   22   23 1
    43   23   24 1
    44   24   42 1
    45   24   43 1
    46   24   44 1
@<TRIPOS>MOLECULE
ZINC03995438
   43    45     0     0     0
SMALL
USER_CHARGES

@<TRIPOS>ATOM
      1 C1         -0.0187    1.5258    0.0104 C.3       1 <0>        -0.1472
      2 C2          0.0021   -0.0041    0.0020 C.3       1 <0>        -0.1385
      3 C3         -1.4333   -0.5336    0.0129 C.3       1 <0>         0.1187
      4 N1         -1.4134   -1.9985    0.0048 N.am      1 <0>        -0.5081
      5 C4         -1.3926   -2.6970    1.2023 C.2       1 <0>         0.3288
      6 C5         -1.3740   -4.0877    1.1665 C.2       1 <0>        -0.1455
      7 C6         -1.3765   -4.7432   -0.0830 C.2       1 <0>         0.5937
      8 O1         -1.3609   -5.9599   -0.1403 O.2       1 <0>        -0.5103
      9 N2         -1.3969   -4.0072   -1.2136 N.am      1 <0>        -0.5482
     10 C7         -1.4210   -2.6642   -1.1652 C.2       1 <0>         0.7077
     11 O2         -1.4444   -2.0343   -2.2051 O.2       1 <0>        -0.5279
     12 C8         -1.3996   -4.6823   -2.5137 C.3       1 <0>         0.1137
     13 C9         -2.8428   -4.9369   -2.9532 C.3       1 <0>        -0.1381
     14 C10        -2.8456   -5.6420   -4.3111 C.3       1 <0>        -0.1473
     15 N3         -1.3558   -4.5129    2.4806 N.pl3     1 <0>        -0.5143
     16 C11        -1.3636   -3.3942    3.2564 C.2       1 <0>         0.3419
     17 N4         -1.3855   -2.3272    2.4824 N.2       1 <0>        -0.4816
     18 H1         -1.3408   -5.4318    2.7909 H         1 <0>         0.4365
     19 C12        -1.3506   -3.3783    4.7345 C.ar      1 <0>        -0.0386
     20 C13        -1.3225   -4.5776    5.4481 C.ar      1 <0>        -0.0983
     21 C14        -1.3099   -4.5557    6.8275 C.ar      1 <0>        -0.1167
     22 C15        -1.3257   -3.3486    7.5035 C.ar      1 <0>        -0.0959
     23 C16        -1.3536   -2.1562    6.8021 C.ar      1 <0>        -0.1189
     24 C17        -1.3605   -2.1639    5.4226 C.ar      1 <0>        -0.0636
     25 H2          1.0039    1.9031    0.0027 H         1 <0>         0.0609
     26 H3         -0.5459    1.8868   -0.8726 H         1 <0>         0.0590
     27 H4         -0.5289    1.8773    0.9072 H         1 <0>         0.0589
     28 H5          0.5123   -0.3556   -0.8948 H         1 <0>         0.0682
     29 H6          0.5293   -0.3651    0.8851 H         1 <0>         0.0680
     30 H7         -1.9435   -0.1821    0.9097 H         1 <0>         0.0988
     31 H8         -1.9605   -0.1726   -0.8702 H         1 <0>         0.1010
     32 H9         -0.9010   -4.0530   -3.2509 H         1 <0>         0.1037
     33 H10        -0.8720   -5.6325   -2.4309 H         1 <0>         0.1018
     34 H11        -3.3414   -5.5663   -2.2160 H         1 <0>         0.0672
     35 H12        -3.3704   -3.9867   -3.0361 H         1 <0>         0.0695
     36 H13        -3.8738   -5.8234   -4.6241 H         1 <0>         0.0616
     37 H14        -2.3470   -5.0126   -5.0482 H         1 <0>         0.0599
     38 H15        -2.3180   -6.5922   -4.2282 H         1 <0>         0.0589
     39 H16        -1.3109   -5.5205    4.9217 H         1 <0>         0.1224
     40 H17        -1.2882   -5.4829    7.3809 H         1 <0>         0.1324
     41 H18        -1.3165   -3.3370    8.5834 H         1 <0>         0.1304
     42 H19        -1.3657   -1.2174    7.3358 H         1 <0>         0.1340
     43 H20        -1.3782   -1.2324    4.8763 H         1 <0>         0.1414
@<TRIPOS>BOND
     1    1    2 1
     2    1   25 1
     3    1   26 1
     4    1   27 1
     5    2    3 1
     6    2   28 1
     7    2   29 1
     8    3   30 1
     9    3   31 1
    10    3    4 1
    11    4    5 1
    12    4   10 am
    13    5   17 1
    14    5    6 2
    15    6    7 1
    16    6   15 1
    17    7    9 am
    18    7    8 2
    19    9   10 am
    20    9   12 1
    21   10   11 2
    22   12   13 1
    23   12   32 1
    24   12   33 1
    25   13   14 1
    26   13   34 1
    27   13   35 1
    28   14   36 1
    29   14   37 1
    30   14   38 1
    31   15   18 1
    32   15   16 1
    33   16   19 1
    34   16   17 2
    35   19   24 ar
    36   19   20 ar
    37   20   21 ar
    38   20   39 1
    39   21   22 ar
    40   21   40 1
    41   22   23 ar
    42   22   41 1
    43   23   24 ar
    44   23   42 1
    45   24   43 1
@<TRIPOS>MOLECULE
ZINC04922153
   40    43     0     0     0
SMALL
USER_CHARGES
7-benzyl-N-(m-tolyl)-3,5,7,8,9-pentazabicyclo[4.3.0]nona-2,4,8,10-tetraen-2-amine
@<TRIPOS>ATOM
      1 C1          5.9319    3.3880  -10.3599 C.3       1 <0>        -0.1160
      2 C2          6.1587    3.1314   -8.8924 C.ar      1 <0>        -0.0663
      3 C3          7.2104    2.3304   -8.4856 C.ar      1 <0>        -0.1317
      4 C4          7.4221    2.0924   -7.1402 C.ar      1 <0>        -0.0963
      5 C5          6.5868    2.6590   -6.1972 C.ar      1 <0>        -0.1143
      6 C6          5.5266    3.4595   -6.6025 C.ar      1 <0>         0.1475
      7 C7          5.3167    3.6966   -7.9552 C.ar      1 <0>        -0.1433
      8 N1          4.6761    4.0300   -5.6511 N.pl3     1 <0>        -0.6244
      9 C8          4.4018    3.3552   -4.4758 C.ar      1 <0>         0.5306
     10 C9          3.6413    3.9630   -3.4559 C.ar      1 <0>        -0.1622
     11 C10         3.4031    3.2258   -2.2829 C.ar      1 <0>         0.3405
     12 N2          3.8883    1.9909   -2.1836 N.ar      1 <0>        -0.5579
     13 C11         4.5929    1.4662   -3.1626 C.ar      1 <0>         0.3923
     14 N3          4.8487    2.1200   -4.2817 N.ar      1 <0>        -0.5812
     15 N4          2.6511    4.0327   -1.4752 N.pl3     1 <0>        -0.3716
     16 N5          2.4625    5.2353   -2.1731 N.2       1 <0>        -0.0001
     17 N6          3.0491    5.1612   -3.3169 N.2       1 <0>        -0.1873
     18 C12         2.1461    3.7076   -0.1390 C.3       1 <0>         0.1760
     19 C13         0.7837    3.0744   -0.2573 C.ar      1 <0>        -0.1275
     20 C14         0.6675    1.7027   -0.3823 C.ar      1 <0>        -0.0900
     21 C15        -0.5822    1.1219   -0.4908 C.ar      1 <0>        -0.1242
     22 C16        -1.7155    1.9134   -0.4795 C.ar      1 <0>        -0.1046
     23 C17        -1.5996    3.2847   -0.3491 C.ar      1 <0>        -0.1243
     24 C18        -0.3499    3.8654   -0.2402 C.ar      1 <0>        -0.0909
     25 H1          6.4871    4.2754  -10.6637 H         1 <0>         0.0725
     26 H2          6.2759    2.5292  -10.9363 H         1 <0>         0.0690
     27 H3          4.8686    3.5449  -10.5412 H         1 <0>         0.0666
     28 H4          7.8679    1.8901   -9.2206 H         1 <0>         0.1238
     29 H5          8.2442    1.4665   -6.8259 H         1 <0>         0.1274
     30 H6          6.7553    2.4763   -5.1462 H         1 <0>         0.1369
     31 H7          4.4962    4.3225   -8.2734 H         1 <0>         0.1251
     32 H8          4.2784    4.8993   -5.8155 H         1 <0>         0.4292
     33 H9          4.9765    0.4632   -3.0474 H         1 <0>         0.2142
     34 H10         2.0728    4.6195    0.4535 H         1 <0>         0.1141
     35 H11         2.8291    3.0117    0.3481 H         1 <0>         0.1139
     36 H12         1.5531    1.0847   -0.3957 H         1 <0>         0.1294
     37 H13        -0.6730    0.0502   -0.5889 H         1 <0>         0.1262
     38 H14        -2.6917    1.4600   -0.5687 H         1 <0>         0.1253
     39 H15        -2.4852    3.9027   -0.3361 H         1 <0>         0.1266
     40 H16        -0.2591    4.9371   -0.1421 H         1 <0>         0.1269
@<TRIPOS>BOND
     1    1    2 1
     2    1   25 1
     3    1   26 1
     4    1   27 1
     5    2    7 ar
     6    2    3 ar
     7    3    4 ar
     8    3   28 1
     9    4    5 ar
    10    4   29 1
    11    5    6 ar
    12    5   30 1
    13    6    7 ar
    14    6    8 1
    15    7   31 1
    16    8    9 1
    17    8   32 1
    18    9   14 ar
    19    9   10 ar
    20   10   17 1
    21   10   11 ar
    22   11   12 ar
    23   11   15 1
    24   12   13 ar
    25   13   14 ar
    26   13   33 1
    27   15   16 1
    28   15   18 1
    29   16   17 2
    30   18   19 1
    31   18   34 1
    32   18   35 1
    33   19   24 ar
    34   19   20 ar
    35   20   21 ar
    36   20   36 1
    37   21   22 ar
    38   21   37 1
    39   22   23 ar
    40   22   38 1
    41   23   24 ar
    42   23   39 1
    43   24   40 1
@<TRIPOS>MOLECULE
ZINC01349181
   46    49     0     0     0
SMALL
USER_CHARGES
9-[(2-chlorophenyl)methyl]-N-(cyclohexylmethyl)-2,4,7,8,9-pentazabicyclo[4.3.0]nona-1,3,5,7-tetraen-5-amine
@<TRIPOS>ATOM
      1 C1          0.6256   -4.9391   -3.3373 C.ar      1 <0>        -0.1210
      2 C2         -0.3267   -4.2302   -4.0460 C.ar      1 <0>        -0.0934
      3 C3         -0.9806   -3.1672   -3.4526 C.ar      1 <0>        -0.1181
      4 C4         -0.6859   -2.8155   -2.1471 C.ar      1 <0>        -0.0266
      5 C5          0.2708   -3.5218   -1.4403 C.ar      1 <0>        -0.1201
      6 C6          0.9239   -4.5852   -2.0348 C.ar      1 <0>        -0.0795
      7 C7          0.5965   -3.1358   -0.0205 C.3       1 <0>         0.1758
      8 N1          1.5068   -1.9879   -0.0231 N.pl3     1 <0>        -0.3744
      9 C8          1.1554   -0.6669   -0.0126 C.ar      1 <0>         0.3458
     10 C9          2.3610    0.0564   -0.0203 C.ar      1 <0>        -0.1687
     11 C10         2.2875    1.4640   -0.0120 C.ar      1 <0>         0.5337
     12 N2          1.0890    2.0354    0.0026 N.ar      1 <0>        -0.5943
     13 C11        -0.0158    1.3113    0.0093 C.ar      1 <0>         0.3901
     14 N3          0.0021   -0.0041    0.0020 N.ar      1 <0>        -0.5518
     15 N4          3.4364    2.2317   -0.0194 N.pl3     1 <0>        -0.6811
     16 C12         3.3407    3.6935   -0.0107 C.3       1 <0>         0.1271
     17 C13         4.7467    4.2968   -0.0215 C.3       1 <0>        -0.1017
     18 C14         5.4688    3.9307    1.2767 C.3       1 <0>        -0.1166
     19 C15         6.8748    4.5339    1.2658 C.3       1 <0>        -0.1204
     20 C16         6.7757    6.0562    1.1492 C.3       1 <0>        -0.1217
     21 C17         6.0536    6.4224   -0.1490 C.3       1 <0>        -0.1195
     22 C18         4.6476    5.8191   -0.1381 C.3       1 <0>        -0.1101
     23 N5          3.3722   -0.8288   -0.0347 N.2       1 <0>        -0.1864
     24 N6          2.9093   -2.0302   -0.0367 N.2       1 <0>        -0.0092
     25 Cl1        -1.5120   -1.4848   -1.3986 Cl        1 <0>        -0.0221
     26 H1          1.1364   -5.7698   -3.8014 H         1 <0>         0.1332
     27 H2         -0.5599   -4.5076   -5.0634 H         1 <0>         0.1343
     28 H3         -1.7243   -2.6133   -4.0064 H         1 <0>         0.1354
     29 H4          1.6677   -5.1395   -1.4817 H         1 <0>         0.1361
     30 H5          1.0730   -3.9762    0.4843 H         1 <0>         0.1158
     31 H6         -0.3216   -2.8703    0.5036 H         1 <0>         0.1170
     32 H7         -0.9694    1.8182    0.0165 H         1 <0>         0.2065
     33 H8          4.3064    1.8027   -0.0305 H         1 <0>         0.4192
     34 H9          2.7953    4.0272   -0.8934 H         1 <0>         0.0759
     35 H10         2.8132    4.0177    0.8864 H         1 <0>         0.0762
     36 H11         5.3045    3.9029   -0.8711 H         1 <0>         0.0783
     37 H12         4.9110    4.3246    2.1263 H         1 <0>         0.0660
     38 H13         5.5394    2.8461    1.3598 H         1 <0>         0.0609
     39 H14         7.4326    4.1400    0.4162 H         1 <0>         0.0623
     40 H15         7.3893    4.2731    2.1907 H         1 <0>         0.0629
     41 H16         7.7774    6.4860    1.1415 H         1 <0>         0.0617
     42 H17         6.2179    6.4502    1.9988 H         1 <0>         0.0622
     43 H18         6.6114    6.0285   -0.9986 H         1 <0>         0.0622
     44 H19         5.9830    7.5069   -0.2321 H         1 <0>         0.0644
     45 H20         4.1332    6.0800   -1.0630 H         1 <0>         0.0665
     46 H21         4.0898    6.2130    0.7114 H         1 <0>         0.0672
@<TRIPOS>BOND
     1    1    6 ar
     2    1    2 ar
     3    1   26 1
     4    2    3 ar
     5    2   27 1
     6    3    4 ar
     7    3   28 1
     8    4    5 ar
     9    4   25 1
    10    5    6 ar
    11    5    7 1
    12    6   29 1
    13    7    8 1
    14    7   30 1
    15    7   31 1
    16    8   24 1
    17    8    9 1
    18    9   14 ar
    19    9   10 ar
    20   10   11 ar
    21   10   23 1
    22   11   12 ar
    23   11   15 1
    24   12   13 ar
    25   13   14 ar
    26   13   32 1
    27   15   16 1
    28   15   33 1
    29   16   17 1
    30   16   34 1
    31   16   35 1
    32   17   22 1
    33   17   18 1
    34   17   36 1
    35   18   19 1
    36   18   37 1
    37   18   38 1
    38   19   20 1
    39   19   39 1
    40   19   40 1
    41   20   21 1
    42   20   41 1
    43   20   42 1
    44   21   22 1
    45   21   43 1
    46   21   44 1
    47   22   45 1
    48   22   46 1
    49   23   24 2
@<TRIPOS>MOLECULE
ZINC00006170
   41    45     0     0     0
SMALL
USER_CHARGES

@<TRIPOS>ATOM
      1 C1         -0.0167    1.3781    0.0096 C.ar      1 <0>        -0.1193
      2 C2          1.1709    2.0855    0.0021 C.ar      1 <0>        -0.1177
      3 C3          2.3773    1.4107   -0.0130 C.ar      1 <0>        -0.1123
      4 C4          2.3960    0.0285   -0.0201 C.ar      1 <0>        -0.0863
      5 C5          1.2084   -0.6789   -0.0117 C.ar      1 <0>        -0.1124
      6 C6          0.0021   -0.0041    0.0020 C.ar      1 <0>        -0.1183
      7 C7          3.7112   -0.7071   -0.0376 C.3       1 <0>        -0.0949
      8 C8          4.1714   -0.9633    1.3989 C.3       1 <0>         0.1442
      9 N1          5.4498   -1.6784    1.3820 N.pl3     1 <0>        -0.3547
     10 C9          5.6077   -3.0319    1.3681 C.2       1 <0>         0.3701
     11 C10         6.9900   -3.2725    1.3542 C.2       1 <0>        -0.2670
     12 C11         7.6325   -2.0214    1.3604 C.2       1 <0>         0.1312
     13 N2          6.7200   -1.0888    1.3711 N.2       1 <0>        -0.2630
     14 C12         7.4452   -4.6631    1.3378 C.2       1 <0>         0.4065
     15 N3          8.6257   -5.2466    1.3226 N.2       1 <0>        -0.5161
     16 C13         8.4699   -6.5766    1.3120 C.2       1 <0>         0.3506
     17 N4          7.1818   -6.8637    1.3203 N.2       1 <0>        -0.2997
     18 N5          6.4899   -5.6460    1.3371 N.pl3     1 <0>        -0.3763
     19 C14         5.1670   -5.3111    1.3510 C.2       1 <0>         0.6919
     20 N6          4.7561   -4.0669    1.3656 N.2       1 <0>        -0.5613
     21 N7          4.2296   -6.3175    1.3499 N.pl3     1 <0>        -0.8022
     22 C15         9.5672   -7.5665    1.2938 C.2       1 <0>         0.0423
     23 C16         9.4221   -8.9181    1.2774 C.2       1 <0>        -0.1371
     24 C17        10.7203   -9.4655    1.2629 C.2       1 <0>        -0.2200
     25 C18        11.5847   -8.4318    1.2711 C.2       1 <0>        -0.0041
     26 O1         10.8847   -7.2861    1.2846 O.3       1 <0>        -0.1521
     27 H1         -0.9591    1.9053    0.0259 H         1 <0>         0.1226
     28 H2          1.1563    3.1654    0.0076 H         1 <0>         0.1238
     29 H3          3.3051    1.9634   -0.0196 H         1 <0>         0.1240
     30 H4          1.2231   -1.7588   -0.0176 H         1 <0>         0.1230
     31 H5         -0.9258   -0.5567    0.0082 H         1 <0>         0.1232
     32 H6          3.5884   -1.6586   -0.5549 H         1 <0>         0.0796
     33 H7          4.4573   -0.1052   -0.5563 H         1 <0>         0.0839
     34 H8          4.2941   -0.0118    1.9163 H         1 <0>         0.1036
     35 H9          3.4252   -1.5652    1.9176 H         1 <0>         0.1014
     36 H10         8.7003   -1.8600    1.3531 H         1 <0>         0.2026
     37 H11         4.5137   -7.2449    1.3395 H         1 <0>         0.4264
     38 H12         3.2844   -6.0999    1.3596 H         1 <0>         0.4303
     39 H13         8.4916   -9.4663    1.2762 H         1 <0>         0.1599
     40 H14        10.9745  -10.5151    1.2484 H         1 <0>         0.1594
     41 H15        12.6618   -8.5115    1.2638 H         1 <0>         0.2142
@<TRIPOS>BOND
     1    1    6 ar
     2    1    2 ar
     3    1   27 1
     4    2    3 ar
     5    2   28 1
     6    3    4 ar
     7    3   29 1
     8    4    5 ar
     9    4    7 1
    10    5    6 ar
    11    5   30 1
    12    6   31 1
    13    7    8 1
    14    7   32 1
    15    7   33 1
    16    8    9 1
    17    8   34 1
    18    8   35 1
    19    9   13 1
    20    9   10 1
    21   10   20 1
    22   10   11 2
    23   11   12 1
    24   11   14 1
    25   12   13 2
    26   12   36 1
    27   14   18 1
    28   14   15 2
    29   15   16 1
    30   16   17 2
    31   16   22 1
    32   17   18 1
    33   18   19 1
    34   19   20 2
    35   19   21 1
    36   21   37 1
    37   21   38 1
    38   22   26 1
    39   22   23 2
    40   23   24 1
    41   23   39 1
    42   24   25 2
    43   24   40 1
    44   25   26 1
    45   25   41 1
@<TRIPOS>MOLECULE
ZINC03977757
   46    48     0     0     0
SMALL
USER_CHARGES

@<TRIPOS>ATOM
      1 C1         -0.0187    1.5258    0.0104 C.3       1 <0>        -0.1472
      2 C2          0.0021   -0.0041    0.0020 C.3       1 <0>        -0.1381
      3 C3          0.7182   -0.4975   -1.2568 C.3       1 <0>         0.1189
      4 N1          0.7381   -1.9623   -1.2648 N.am      1 <0>        -0.5078
      5 C4         -0.2978   -2.6649   -1.8590 C.2       1 <0>         0.3255
      6 C5         -0.2556   -4.0535   -1.8540 C.2       1 <0>        -0.1555
      7 C6          0.8381   -4.7062   -1.2456 C.2       1 <0>         0.5940
      8 O1          0.8979   -5.9226   -1.2287 O.2       1 <0>        -0.5124
      9 N2          1.8167   -3.9668   -0.6832 N.am      1 <0>        -0.5486
     10 C7          1.7657   -2.6237   -0.6997 C.2       1 <0>         0.7072
     11 O2          2.6683   -1.9900   -0.1875 O.2       1 <0>        -0.5292
     12 C8          2.9547   -4.6379   -0.0500 C.3       1 <0>         0.1138
     13 C9          4.0598   -4.8545   -1.0857 C.3       1 <0>        -0.1378
     14 C10         5.2482   -5.5554   -0.4244 C.3       1 <0>        -0.1473
     15 N3         -1.3974   -4.4770   -2.5042 N.pl3     1 <0>        -0.5132
     16 C11        -2.0744   -3.3715   -2.8713 C.2       1 <0>         0.3078
     17 N4         -1.4199   -2.3052   -2.4875 N.2       1 <0>        -0.4912
     18 H1         -1.6621   -5.3960   -2.6660 H         1 <0>         0.4346
     19 C12        -3.3868   -3.3639   -3.6120 C.3       1 <0>        -0.0167
     20 C13        -4.2245   -4.5971   -3.2154 C.3       1 <0>        -0.1246
     21 C14        -4.9262   -5.0185   -4.5304 C.3       1 <0>        -0.1243
     22 C15        -3.8330   -4.7644   -5.5978 C.3       1 <0>        -0.1288
     23 C16        -3.1379   -3.4703   -5.1267 C.3       1 <0>        -0.1169
     24 H2          1.0039    1.9031    0.0027 H         1 <0>         0.0589
     25 H3         -0.5459    1.8868   -0.8726 H         1 <0>         0.0589
     26 H4         -0.5289    1.8773    0.9072 H         1 <0>         0.0608
     27 H5          0.5293   -0.3651    0.8851 H         1 <0>         0.0678
     28 H6         -1.0205   -0.3814    0.0098 H         1 <0>         0.0678
     29 H7          0.1910   -0.1364   -2.1398 H         1 <0>         0.0985
     30 H8          1.7408   -0.1202   -1.2645 H         1 <0>         0.1003
     31 H9          3.3348   -4.0193    0.7630 H         1 <0>         0.1032
     32 H10         2.6339   -5.6014    0.3460 H         1 <0>         0.1014
     33 H11         3.6796   -5.4731   -1.8987 H         1 <0>         0.0670
     34 H12         4.3806   -3.8910   -1.4817 H         1 <0>         0.0693
     35 H13         6.0355   -5.7097   -1.1623 H         1 <0>         0.0615
     36 H14         5.6284   -4.9368    0.3886 H         1 <0>         0.0599
     37 H15         4.9274   -6.5189   -0.0284 H         1 <0>         0.0589
     38 H16        -3.9368   -2.4501   -3.3872 H         1 <0>         0.1178
     39 H17        -3.5783   -5.3972   -2.8545 H         1 <0>         0.0623
     40 H18        -4.9618   -4.3300   -2.4582 H         1 <0>         0.0823
     41 H19        -5.2000   -6.0732   -4.5013 H         1 <0>         0.0738
     42 H20        -5.8012   -4.3962   -4.7179 H         1 <0>         0.0762
     43 H21        -3.1235   -5.5916   -5.6216 H         1 <0>         0.0665
     44 H22        -4.2844   -4.6194   -6.5792 H         1 <0>         0.0743
     45 H23        -3.5678   -2.6085   -5.6372 H         1 <0>         0.0823
     46 H24        -2.0678   -3.5274   -5.3261 H         1 <0>         0.0684
@<TRIPOS>BOND
     1    1    2 1
     2    1   24 1
     3    1   25 1
     4    1   26 1
     5    2    3 1
     6    2   27 1
     7    2   28 1
     8    3   29 1
     9    3   30 1
    10    3    4 1
    11    4    5 1
    12    4   10 am
    13    5   17 1
    14    5    6 2
    15    6    7 1
    16    6   15 1
    17    7    9 am
    18    7    8 2
    19    9   10 am
    20    9   12 1
    21   10   11 2
    22   12   13 1
    23   12   31 1
    24   12   32 1
    25   13   14 1
    26   13   33 1
    27   13   34 1
    28   14   35 1
    29   14   36 1
    30   14   37 1
    31   15   18 1
    32   15   16 1
    33   16   19 1
    34   16   17 2
    35   19   23 1
    36   19   20 1
    37   19   38 1
    38   20   21 1
    39   20   39 1
    40   20   40 1
    41   21   22 1
    42   21   41 1
    43   21   42 1
    44   22   23 1
    45   22   43 1
    46   22   44 1
    47   23   45 1
    48   23   46 1
@<TRIPOS>MOLECULE
ZINC03995845
   48    51     0     0     0
SMALL
USER_CHARGES
5-[2-chloro-6-[(3-iodophenyl)methylamino]purin-9-yl]-3,4-dihydroxy-N-methyl-tetrahydrofuran-2-carboxamide
@<TRIPOS>ATOM
      1 C1         -3.5156   -0.8102    1.9233 C.3       1 <0>         0.0861
      2 N1         -2.6417    0.1999    1.3215 N.am      1 <0>        -0.7300
      3 C2         -1.5096    0.5727    1.9507 C.2       1 <0>         0.5159
      4 O1         -1.2144    0.0718    3.0151 O.2       1 <0>        -0.5022
      5 C3         -0.6107    1.6118    1.3317 C.3       1 <0>         0.0319
      6 H1         -1.1613    2.5364    1.1584 H         1 <0>         0.1217
      7 C4         -0.0127    1.0858    0.0080 C.3       1 <0>         0.0511
      8 H2          0.0021   -0.0041    0.0020 H         1 <0>         0.0923
      9 C5          1.4269    1.6468   -0.0027 C.3       1 <0>         0.0805
     10 H3          2.1534    0.8343   -0.0140 H         1 <0>         0.0905
     11 C6          1.5284    2.4454    1.3158 C.3       1 <0>         0.3123
     12 H4          1.3078    3.4982    1.1397 H         1 <0>         0.1301
     13 O2          0.5316    1.8583    2.1804 O.3       1 <0>        -0.3264
     14 N2          2.8630    2.2959    1.9011 N.pl3     1 <0>        -0.4705
     15 C7          3.2280    1.3965    2.8585 C.2       1 <0>         0.2840
     16 N3          4.4896    1.5386    3.1441 N.2       1 <0>        -0.4479
     17 C8          5.0109    2.5415    2.3970 C.ar      1 <0>        -0.0590
     18 C9          3.9735    3.0393    1.5906 C.ar      1 <0>         0.3145
     19 N4          4.2284    4.0408    0.7548 N.ar      1 <0>        -0.5110
     20 C10         5.4360    4.5628    0.6810 C.ar      1 <0>         0.4116
     21 N5          6.4423    4.1279    1.4192 N.ar      1 <0>        -0.5534
     22 C11         6.2816    3.1303    2.2825 C.ar      1 <0>         0.4581
     23 N6          7.3414    2.6815    3.0508 N.pl3     1 <0>        -0.5899
     24 C12         8.6593    3.3075    2.9179 C.3       1 <0>         0.1056
     25 C13         9.6298    2.6396    3.8576 C.ar      1 <0>        -0.0890
     26 C14        10.3623    1.5466    3.4327 C.ar      1 <0>        -0.0720
     27 C15        11.2531    0.9343    4.2939 C.ar      1 <0>        -0.1148
     28 C16        11.4113    1.4139    5.5808 C.ar      1 <0>        -0.0782
     29 C17        10.6786    2.5066    6.0062 C.ar      1 <0>        -0.0999
     30 C18         9.7917    3.1230    5.1421 C.ar      1 <0>        -0.0750
     31 I1         10.9181    3.2339    7.9562 I         1 <0>        -0.0401
     32 Cl1         5.7156    5.8697   -0.4269 Cl        1 <0>         0.0391
     33 O3          1.6201    2.5086   -1.1262 O.3       1 <0>        -0.5236
     34 O4         -0.7516    1.5814   -1.1102 O.3       1 <0>        -0.5325
     35 H5         -2.9634   -1.7420    2.0457 H         1 <0>         0.0652
     36 H6         -3.8585   -0.4605    2.8971 H         1 <0>         0.0657
     37 H7         -4.3752   -0.9798    1.2749 H         1 <0>         0.0828
     38 H8         -2.8779    0.6005    0.4703 H         1 <0>         0.4001
     39 H9          2.5679    0.6715    3.3114 H         1 <0>         0.2324
     40 H10         7.1195    2.7889    4.0199 H         1 <0>         0.3725
     41 H11         9.0121    3.1974    1.8925 H         1 <0>         0.0987
     42 H12         8.5850    4.3666    3.1648 H         1 <0>         0.0697
     43 H13        10.2386    1.1715    2.4275 H         1 <0>         0.1318
     44 H14        11.8255    0.0808    3.9616 H         1 <0>         0.1339
     45 H15        12.1075    0.9354    6.2537 H         1 <0>         0.1305
     46 H16         9.2225    3.9793    5.4726 H         1 <0>         0.1288
     47 H17         1.5077    2.0712   -1.9813 H         1 <0>         0.3936
     48 H18        -1.6713    1.2840   -1.1370 H         1 <0>         0.3843
@<TRIPOS>BOND
     1    1    2 1
     2    1   35 1
     3    1   36 1
     4    1   37 1
     5    2    3 am
     6    2   38 1
     7    3    4 2
     8    3    5 1
     9    5    6 1
    10    5   13 1
    11    5    7 1
    12    7    8 1
    13    7    9 1
    14    7   34 1
    15    9   10 1
    16    9   11 1
    17    9   33 1
    18   11   12 1
    19   11   13 1
    20   11   14 1
    21   14   18 1
    22   14   15 1
    23   15   16 2
    24   15   39 1
    25   16   17 1
    26   17   22 ar
    27   17   18 ar
    28   18   19 ar
    29   19   20 ar
    30   20   21 ar
    31   20   32 1
    32   21   22 ar
    33   22   23 1
    34   23   24 1
    35   23   40 1
    36   24   25 1
    37   24   41 1
    38   24   42 1
    39   25   30 ar
    40   25   26 ar
    41   26   27 ar
    42   26   43 1
    43   27   28 ar
    44   27   44 1
    45   28   29 ar
    46   28   45 1
    47   29   30 ar
    48   29   31 1
    49   30   46 1
    50   33   47 1
    51   34   48 1
@<TRIPOS>MOLECULE
ZINC18043251
   21    22     0     0     0
SMALL
USER_CHARGES

@<TRIPOS>ATOM
      1 C1         -0.0178    1.4608    0.0101 C.3       1 <0>         0.0852
      2 N1          0.0021   -0.0041    0.0020 N.am      1 <0>        -0.5114
      3 C2         -1.1889   -0.7120    0.0039 C.2       1 <0>         0.3216
      4 C3         -1.1437   -2.1005   -0.0039 C.2       1 <0>        -0.1538
      5 C4          0.1107   -2.7476   -0.0134 C.2       1 <0>         0.5936
      6 O1          0.1765   -3.9638   -0.0207 O.2       1 <0>        -0.5134
      7 N2          1.2361   -2.0032   -0.0148 N.am      1 <0>        -0.5513
      8 C5          1.1776   -0.6603   -0.0127 C.2       1 <0>         0.7076
      9 O2          2.2126   -0.0219   -0.0196 O.2       1 <0>        -0.5305
     10 C6          2.5413   -2.6685   -0.0246 C.3       1 <0>         0.0826
     11 N3         -2.4557   -2.5297    0.0001 N.pl3     1 <0>        -0.5179
     12 H1         -2.7618   -3.4502   -0.0030 H         1 <0>         0.4389
     13 C7         -3.2306   -1.4275    0.0098 C.2       1 <0>         0.2785
     14 N4         -2.4766   -0.3579    0.0120 N.2       1 <0>        -0.4991
     15 H2          1.0048    1.8381    0.0023 H         1 <0>         0.1033
     16 H3         -0.5450    1.8219   -0.8730 H         1 <0>         0.0800
     17 H4         -0.5280    1.8123    0.9069 H         1 <0>         0.0801
     18 H5          2.3982   -3.7491   -0.0298 H         1 <0>         0.1039
     19 H6          3.0941   -2.3709   -0.9157 H         1 <0>         0.0832
     20 H7          3.1026   -2.3806    0.8643 H         1 <0>         0.0832
     21 H8         -4.3106   -1.4268    0.0144 H         1 <0>         0.2358
@<TRIPOS>BOND
     1    1    2 1
     2    1   15 1
     3    1   16 1
     4    1   17 1
     5    2    8 am
     6    2    3 1
     7    3   14 1
     8    3    4 2
     9    4    5 1
    10    4   11 1
    11    5    6 2
    12    5    7 am
    13    7    8 am
    14    7   10 1
    15    8    9 2
    16   10   18 1
    17   10   19 1
    18   10   20 1
    19   11   12 1
    20   11   13 1
    21   13   14 2
    22   13   21 1
@<TRIPOS>MOLECULE
ZINC28526372
   34    36     0     0     0
SMALL
USER_CHARGES
5-azido-6-benzyl-2-methyl-1,8-naphthyridine
@<TRIPOS>ATOM
      1 C1         -0.0358    0.9537    0.0488 C.3       1 <0>        -0.1124
      2 C2         -0.7351    1.4742    1.2780 C.ar      1 <0>         0.1862
      3 C3          0.0049    1.6997    2.4335 C.ar      1 <0>        -0.1570
      4 C4         -0.6301    2.1778    3.5671 C.ar      1 <0>        -0.0628
      5 C5         -2.0008    2.4147    3.4976 C.ar      1 <0>        -0.1792
      6 C6         -2.7596    2.9248    4.6565 C.ar      1 <0>         0.1598
      7 C7         -4.1553    3.1295    4.4687 C.ar      1 <0>        -0.1060
      8 C8         -4.7135    2.8458    3.2377 C.ar      1 <0>         0.1861
      9 N1         -4.0119    2.3930    2.2244 N.ar      1 <0>        -0.4644
     10 C9         -2.6954    2.1647    2.2913 C.ar      1 <0>         0.3341
     11 N2         -2.0254    1.7079    1.2282 N.ar      1 <0>        -0.4589
     12 C10        -5.0110    3.6483    5.5955 C.3       1 <0>        -0.0326
     13 C11        -4.9454    5.1536    5.6241 C.ar      1 <0>        -0.0833
     14 C12        -3.9787    5.7891    6.3808 C.ar      1 <0>        -0.1028
     15 C13        -3.9155    7.1698    6.4032 C.ar      1 <0>        -0.1212
     16 C14        -4.8252    7.9152    5.6768 C.ar      1 <0>        -0.1196
     17 C15        -5.7954    7.2798    4.9245 C.ar      1 <0>        -0.1201
     18 C16        -5.8553    5.8991    4.8980 C.ar      1 <0>        -0.1126
     19 N3         -2.1729    3.1781    5.8096 N.2       1 <0>        -0.3156
     20 N4         -1.4837    2.4179    6.2684 N.1       1 <0>         0.2802
     21 N5         -0.7945    1.6577    6.7272 N.1       1 <0>        -0.1097
     22 H1          1.0336    0.8153    0.2663 H         1 <0>         0.0822
     23 H2         -0.1524    1.6758   -0.7728 H         1 <0>         0.0886
     24 H3         -0.4781   -0.0099   -0.2443 H         1 <0>         0.0885
     25 H4          1.0668    1.5029    2.4468 H         1 <0>         0.1506
     26 H5         -0.0792    2.3619    4.4776 H         1 <0>         0.1274
     27 H6         -5.7734    3.0036    3.1025 H         1 <0>         0.1759
     28 H7         -6.0525    3.3295    5.4417 H         1 <0>         0.0969
     29 H8         -4.6420    3.2470    6.5509 H         1 <0>         0.0887
     30 H9         -3.2706    5.2067    6.9516 H         1 <0>         0.1251
     31 H10        -3.1577    7.6662    6.9912 H         1 <0>         0.1208
     32 H11        -4.7781    8.9940    5.6972 H         1 <0>         0.1208
     33 H12        -6.5063    7.8622    4.3572 H         1 <0>         0.1227
     34 H13        -6.6133    5.4027    4.3102 H         1 <0>         0.1235
@<TRIPOS>BOND
     1    1    2 1
     2    1   22 1
     3    1   23 1
     4    1   24 1
     5    2   11 ar
     6    2    3 ar
     7    3    4 ar
     8    3   25 1
     9    4    5 ar
    10    4   26 1
    11    5   10 ar
    12    5    6 ar
    13    6    7 ar
    14    6   19 1
    15    7    8 ar
    16    7   12 1
    17    8    9 ar
    18    8   27 1
    19    9   10 ar
    20   10   11 ar
    21   12   13 1
    22   12   28 1
    23   12   29 1
    24   13   18 ar
    25   13   14 ar
    26   14   15 ar
    27   14   30 1
    28   15   16 ar
    29   15   31 1
    30   16   17 ar
    31   16   32 1
    32   17   18 ar
    33   17   33 1
    34   18   34 1
    35   19   20 2
    36   20   21 2
@<TRIPOS>MOLECULE
ZINC03888482
   31    34     0     0     0
SMALL
USER_CHARGES

@<TRIPOS>ATOM
      1 C1         -0.0167    1.3786    0.0096 C.ar      1 <0>        -0.1145
      2 C2          1.1696    2.0892    0.0021 C.ar      1 <0>        -0.0969
      3 C3          2.3774    1.4193   -0.0134 C.ar      1 <0>        -0.1056
      4 C4          2.3995    0.0309   -0.0211 C.ar      1 <0>         0.1273
      5 C5          1.2066   -0.6797   -0.0130 C.ar      1 <0>        -0.1245
      6 C6          0.0021   -0.0041    0.0020 C.ar      1 <0>        -0.0957
      7 N1          3.6230   -0.6515   -0.0373 N.pl3     1 <0>        -0.2281
      8 C7          3.7420   -1.9988   -0.0511 C.2       1 <0>         0.0165
      9 C8          5.0688   -2.2798   -0.0651 C.2       1 <0>        -0.1355
     10 C9          5.9141   -3.4864   -0.0843 C.ar      1 <0>        -0.0461
     11 C10         5.3454   -4.7574   -0.0920 C.ar      1 <0>        -0.0729
     12 C11         6.1553   -5.8735   -0.1104 C.ar      1 <0>        -0.1389
     13 C12         7.5333   -5.7324   -0.1206 C.ar      1 <0>        -0.0801
     14 C13         8.1088   -4.4793   -0.1131 C.ar      1 <0>        -0.1518
     15 C14         7.3091   -3.3407   -0.0951 C.ar      1 <0>         0.1689
     16 N2          7.9026   -2.0866   -0.0887 N.am      1 <0>        -0.6362
     17 C15         7.2025   -0.9390   -0.0716 C.2       1 <0>         0.6082
     18 C16         5.7344   -0.9669   -0.0584 C.2       1 <0>        -0.0115
     19 N3          4.7727   -0.0747   -0.0465 N.2       1 <0>        -0.2076
     20 O1          7.7880    0.1276   -0.0670 O.2       1 <0>        -0.5060
     21 H1         -0.9598    1.9047    0.0260 H         1 <0>         0.1336
     22 H2          1.1517    3.1690    0.0080 H         1 <0>         0.1374
     23 H3          3.3035    1.9748   -0.0200 H         1 <0>         0.1431
     24 H4          1.2206   -1.7596   -0.0193 H         1 <0>         0.1350
     25 H5         -0.9261   -0.5562    0.0079 H         1 <0>         0.1380
     26 H6          2.9338   -2.7151   -0.0509 H         1 <0>         0.1940
     27 H7          4.2712   -4.8690   -0.0833 H         1 <0>         0.1308
     28 H8          5.7143   -6.8594   -0.1164 H         1 <0>         0.1308
     29 H9          8.1617   -6.6106   -0.1343 H         1 <0>         0.1323
     30 H10         9.1843   -4.3813   -0.1209 H         1 <0>         0.1342
     31 H11         8.8712   -2.0353   -0.0967 H         1 <0>         0.4220
@<TRIPOS>BOND
     1    1    6 ar
     2    1    2 ar
     3    1   21 1
     4    2    3 ar
     5    2   22 1
     6    3    4 ar
     7    3   23 1
     8    4    5 ar
     9    4    7 1
    10    5    6 ar
    11    5   24 1
    12    6   25 1
    13    7   19 1
    14    7    8 1
    15    8    9 2
    16    8   26 1
    17    9   18 1
    18    9   10 1
    19   10   15 ar
    20   10   11 ar
    21   11   12 ar
    22   11   27 1
    23   12   13 ar
    24   12   28 1
    25   13   14 ar
    26   13   29 1
    27   14   15 ar
    28   14   30 1
    29   15   16 1
    30   16   17 am
    31   16   31 1
    32   17   18 1
    33   17   20 2
    34   18   19 2
@<TRIPOS>MOLECULE
ZINC07992852
   48    51     0     0     0
SMALL
USER_CHARGES

@<TRIPOS>ATOM
      1 C1         -0.0187    1.5258    0.0104 C.3       1 <0>        -0.1723
      2 C2          0.0021   -0.0041    0.0020 C.3       1 <0>         0.1052
      3 C3          0.8355   -0.5277   -1.1890 C.3       1 <0>         0.0527
      4 H1          1.2327    0.3034   -1.7719 H         1 <0>         0.0877
      5 C4          1.9830   -1.3202   -0.5246 C.3       1 <0>         0.0503
      6 H2          1.7288   -2.3785   -0.4657 H         1 <0>         0.1004
      7 O1          2.1017   -0.7570    0.8000 O.3       1 <0>        -0.3457
      8 C5          0.7447   -0.5422    1.2451 C.3       1 <0>         0.3187
      9 H3          0.3006   -1.4812    1.5755 H         1 <0>         0.1234
     10 N1          0.7130    0.4464    2.3258 N.pl3     1 <0>        -0.4638
     11 C6          1.6771    1.3697    2.6032 C.2       1 <0>         0.2687
     12 N2          1.3234    2.0871    3.6296 N.2       1 <0>        -0.4558
     13 C7          0.1133    1.6712    4.0751 C.ar      1 <0>        -0.1045
     14 C8         -0.2951    0.6169    3.2407 C.ar      1 <0>         0.3265
     15 N3         -1.4663    0.0307    3.4663 N.ar      1 <0>        -0.5350
     16 C9         -2.2381    0.4316    4.4562 C.ar      1 <0>         0.4311
     17 N4         -1.8975    1.4200    5.2648 N.ar      1 <0>        -0.5725
     18 C10        -0.7418    2.0601    5.1200 C.ar      1 <0>         0.5223
     19 N5         -0.3945    3.0949    5.9708 N.pl3     1 <0>        -0.6802
     20 C11        -1.2987    3.4867    7.0548 C.3       1 <0>         0.1433
     21 C12        -2.3106    4.5342    6.5464 C.3       1 <0>        -0.1339
     22 C13        -2.4905    5.5007    7.7433 C.3       1 <0>        -0.1246
     23 C14        -1.0593    5.5899    8.3288 C.3       1 <0>        -0.1247
     24 C15        -0.5031    4.1579    8.1881 C.3       1 <0>        -0.1333
     25 Cl1        -3.7586   -0.3676    4.7073 Cl        1 <0>         0.0344
     26 C16         3.2845   -1.1288   -1.3059 C.3       1 <0>         0.0825
     27 O2          4.3032   -1.9594   -0.7452 O.3       1 <0>        -0.5632
     28 O3          0.0446   -1.3843   -2.0154 O.3       1 <0>        -0.5387
     29 O4         -1.3290   -0.5213   -0.0489 O.3       1 <0>        -0.5199
     30 H4          1.0039    1.9031    0.0027 H         1 <0>         0.0734
     31 H5         -0.5459    1.8868   -0.8726 H         1 <0>         0.0736
     32 H6         -0.5289    1.8773    0.9072 H         1 <0>         0.0703
     33 H7          2.5986    1.4880    2.0524 H         1 <0>         0.2247
     34 H8          0.4476    3.5607    5.8493 H         1 <0>         0.4193
     35 H9         -1.8255    2.6118    7.4359 H         1 <0>         0.0998
     36 H10        -1.9085    5.0658    5.6839 H         1 <0>         0.0682
     37 H11        -3.2583    4.0583    6.2946 H         1 <0>         0.0746
     38 H12        -2.8301    6.4787    7.4024 H         1 <0>         0.0690
     39 H13        -3.1822    5.0841    8.4756 H         1 <0>         0.0710
     40 H14        -0.4552    6.2920    7.7541 H         1 <0>         0.0669
     41 H15        -1.0939    5.8844    9.3777 H         1 <0>         0.0695
     42 H16        -0.6445    3.6093    9.1193 H         1 <0>         0.0779
     43 H17         0.5557    4.1921    7.9315 H         1 <0>         0.0716
     44 H18         3.1257   -1.4026   -2.3490 H         1 <0>         0.0672
     45 H19         3.5934   -0.0852   -1.2472 H         1 <0>         0.0609
     46 H20         5.1580   -1.8893   -1.1919 H         1 <0>         0.3869
     47 H21         0.5186   -1.7415   -2.7788 H         1 <0>         0.3873
     48 H22        -1.8314   -0.2387   -0.8254 H         1 <0>         0.3888
@<TRIPOS>BOND
     1    1    2 1
     2    1   30 1
     3    1   31 1
     4    1   32 1
     5    2    8 1
     6    2    3 1
     7    2   29 1
     8    3    4 1
     9    3    5 1
    10    3   28 1
    11    5    6 1
    12    5    7 1
    13    5   26 1
    14    7    8 1
    15    8    9 1
    16    8   10 1
    17   10   14 1
    18   10   11 1
    19   11   12 2
    20   11   33 1
    21   12   13 1
    22   13   18 ar
    23   13   14 ar
    24   14   15 ar
    25   15   16 ar
    26   16   17 ar
    27   16   25 1
    28   17   18 ar
    29   18   19 1
    30   19   20 1
    31   19   34 1
    32   20   24 1
    33   20   21 1
    34   20   35 1
    35   21   22 1
    36   21   36 1
    37   21   37 1
    38   22   23 1
    39   22   38 1
    40   22   39 1
    41   23   24 1
    42   23   40 1
    43   23   41 1
    44   24   42 1
    45   24   43 1
    46   26   27 1
    47   26   44 1
    48   26   45 1
    49   27   46 1
    50   28   47 1
    51   29   48 1
@<TRIPOS>MOLECULE
ZINC00530321
   38    40     0     0     0
SMALL
USER_CHARGES
8-(4-ethoxyphenyl)-1,3-dimethyl-7H-purine-2,6-dione
@<TRIPOS>ATOM
      1 C1         -4.9793    9.9464    0.1037 C.3       1 <0>        -0.1545
      2 C2         -4.4486    8.5114    0.0910 C.3       1 <0>         0.0514
      3 O1         -3.0199    8.5320    0.0768 O.3       1 <0>        -0.3100
      4 C3         -2.3861    7.3312    0.0643 C.ar      1 <0>         0.1578
      5 C4         -0.9977    7.2807    0.0502 C.ar      1 <0>        -0.1528
      6 C5         -0.3509    6.0643    0.0374 C.ar      1 <0>        -0.0208
      7 C6         -1.0929    4.8809    0.0387 C.ar      1 <0>        -0.0809
      8 C7         -2.4886    4.9360    0.0471 C.ar      1 <0>        -0.0527
      9 C8         -3.1277    6.1564    0.0651 C.ar      1 <0>        -0.2088
     10 C9         -0.4035    3.5748    0.0251 C.2       1 <0>         0.3523
     11 N1         -1.0181    2.3593    0.0190 N.pl3     1 <0>        -0.5204
     12 H1         -2.0035    2.1893    0.0208 H         1 <0>         0.4426
     13 C10        -0.0170    1.4060    0.0098 C.2       1 <0>        -0.1470
     14 C11         1.1886    2.1004    0.0020 C.2       1 <0>         0.3286
     15 N2          0.9039    3.4020    0.0117 N.2       1 <0>        -0.4860
     16 N3          2.3735    1.3807   -0.0141 N.am      1 <0>        -0.5111
     17 C12         2.3458    0.0348   -0.0206 C.2       1 <0>         0.7083
     18 O2          3.3953   -0.5793   -0.0343 O.2       1 <0>        -0.5305
     19 N4          1.1878   -0.6474   -0.0128 N.am      1 <0>        -0.5511
     20 C13         0.0021   -0.0041    0.0020 C.2       1 <0>         0.5940
     21 O3         -1.0405   -0.6342    0.0082 O.2       1 <0>        -0.5139
     22 C14         1.2136   -2.1122   -0.0209 C.3       1 <0>         0.0828
     23 C15         3.6575    2.0860   -0.0235 C.3       1 <0>         0.0851
     24 H2         -6.0692    9.9306    0.1145 H         1 <0>         0.0810
     25 H3         -4.6146   10.4608    0.9928 H         1 <0>         0.0681
     26 H4         -4.6323   10.4700   -0.7871 H         1 <0>         0.0681
     27 H5         -4.8134    7.9970   -0.7981 H         1 <0>         0.0657
     28 H6         -4.7957    7.9878    0.9817 H         1 <0>         0.0657
     29 H7         -0.4248    8.1962    0.0496 H         1 <0>         0.1427
     30 H8          0.7284    6.0259    0.0261 H         1 <0>         0.1493
     31 H9         -3.0658    4.0232    0.0433 H         1 <0>         0.1260
     32 H10        -4.2068    6.1998    0.0761 H         1 <0>         0.1375
     33 H11         0.1925   -2.4936   -0.0132 H         1 <0>         0.1038
     34 H12         1.7252   -2.4616   -0.9177 H         1 <0>         0.0831
     35 H13         1.7422   -2.4712    0.8622 H         1 <0>         0.0831
     36 H14         4.4706    1.3601   -0.0354 H         1 <0>         0.1035
     37 H15         3.7197    2.7157   -0.9110 H         1 <0>         0.0801
     38 H16         3.7377    2.7067    0.8688 H         1 <0>         0.0801
@<TRIPOS>BOND
     1    1    2 1
     2    1   24 1
     3    1   25 1
     4    1   26 1
     5    2    3 1
     6    2   27 1
     7    2   28 1
     8    3    4 1
     9    4    9 ar
    10    4    5 ar
    11    5    6 ar
    12    5   29 1
    13    6    7 ar
    14    6   30 1
    15    7    8 ar
    16    7   10 1
    17    8    9 ar
    18    8   31 1
    19    9   32 1
    20   10   15 2
    21   10   11 1
    22   11   12 1
    23   11   13 1
    24   13   20 1
    25   13   14 2
    26   14   15 1
    27   14   16 1
    28   16   17 am
    29   16   23 1
    30   17   18 2
    31   17   19 am
    32   19   20 am
    33   19   22 1
    34   20   21 2
    35   22   33 1
    36   22   34 1
    37   22   35 1
    38   23   36 1
    39   23   37 1
    40   23   38 1
@<TRIPOS>MOLECULE
ZINC00530321
   39    41     0     0     0
SMALL
USER_CHARGES
8-(4-ethoxyphenyl)-1,3-dimethyl-7H-purine-2,6-dione
@<TRIPOS>ATOM
      1 C1         -4.9793    9.9464    0.1037 C.3       1 <0>        -0.1581
      2 C2         -4.4486    8.5114    0.0910 C.3       1 <0>         0.0469
      3 O1         -3.0199    8.5320    0.0768 O.3       1 <0>        -0.2965
      4 C3         -2.3861    7.3312    0.0643 C.ar      1 <0>         0.2035
      5 C4         -0.9977    7.2807    0.0502 C.ar      1 <0>        -0.1448
      6 C5         -0.3509    6.0643    0.0374 C.ar      1 <0>        -0.0230
      7 C6         -1.0929    4.8809    0.0387 C.ar      1 <0>        -0.1519
      8 C7         -2.4886    4.9360    0.0471 C.ar      1 <0>        -0.0142
      9 C8         -3.1277    6.1564    0.0651 C.ar      1 <0>        -0.2058
     10 C9         -0.4035    3.5748    0.0251 C.cat     1 <0>         0.4547
     11 N1         -1.0181    2.3593    0.0190 N.pl3     1 <0>        -0.4688
     12 H1         -2.0035    2.1893    0.0208 H         1 <0>         0.4816
     13 C10        -0.0170    1.4060    0.0098 C.2       1 <0>        -0.0725
     14 C11         1.1886    2.1004    0.0020 C.2       1 <0>         0.3559
     15 N2          2.3735    1.3807   -0.0141 N.am      1 <0>        -0.5126
     16 C12         2.3458    0.0348   -0.0206 C.2       1 <0>         0.7085
     17 O2          3.3953   -0.5793   -0.0343 O.2       1 <0>        -0.4828
     18 N3          1.1878   -0.6474   -0.0128 N.am      1 <0>        -0.5414
     19 C13         0.0021   -0.0041    0.0020 C.2       1 <0>         0.5887
     20 O3         -1.0405   -0.6342    0.0082 O.2       1 <0>        -0.4674
     21 C14         1.2136   -2.1122   -0.0209 C.3       1 <0>         0.0747
     22 C15         3.6575    2.0860   -0.0235 C.3       1 <0>         0.0537
     23 H2         -6.0692    9.9306    0.1145 H         1 <0>         0.0883
     24 H3         -4.6146   10.4608    0.9928 H         1 <0>         0.0719
     25 H4         -4.6323   10.4700   -0.7871 H         1 <0>         0.0719
     26 H5         -4.8134    7.9970   -0.7981 H         1 <0>         0.0737
     27 H6         -4.7957    7.9878    0.9817 H         1 <0>         0.0737
     28 H7         -0.4248    8.1962    0.0496 H         1 <0>         0.1578
     29 H8          0.7284    6.0259    0.0261 H         1 <0>         0.1412
     30 H9         -3.0658    4.0232    0.0433 H         1 <0>         0.1394
     31 H10        -4.2068    6.1998    0.0761 H         1 <0>         0.1539
     32 H11         0.1925   -2.4936   -0.0132 H         1 <0>         0.1135
     33 H12         1.7252   -2.4616   -0.9177 H         1 <0>         0.0949
     34 H13         1.7422   -2.4712    0.8622 H         1 <0>         0.0949
     35 H14         4.4706    1.3601   -0.0354 H         1 <0>         0.1298
     36 H15         3.7197    2.7157   -0.9110 H         1 <0>         0.0928
     37 H16         3.7377    2.7067    0.8688 H         1 <0>         0.0928
     38 N4          0.9056    3.4039    0.0117 N.pl3     1 <0>        -0.5008
     39 H17         1.6005    4.1597    0.0091 H         1 <0>         0.4821
@<TRIPOS>BOND
     1    1    2 1
     2    1   23 1
     3    1   24 1
     4    1   25 1
     5    2    3 1
     6    2   26 1
     7    2   27 1
     8    3    4 1
     9    4    9 ar
    10    4    5 ar
    11    5    6 ar
    12    5   28 1
    13    6    7 ar
    14    6   29 1
    15    7    8 ar
    16    7   10 1
    17    8    9 ar
    18    8   30 1
    19    9   31 1
    20   10   11 1
    21   10   38 2
    22   11   12 1
    23   11   13 1
    24   13   19 1
    25   13   14 2
    26   14   15 1
    27   14   38 1
    28   15   16 am
    29   15   22 1
    30   16   17 2
    31   16   18 am
    32   18   19 am
    33   18   21 1
    34   19   20 2
    35   21   32 1
    36   21   33 1
    37   21   34 1
    38   22   35 1
    39   22   36 1
    40   22   37 1
    41   38   39 1
@<TRIPOS>MOLECULE
ZINC17105141
   31    33     0     0     0
SMALL
USER_CHARGES

@<TRIPOS>ATOM
      1 C1         -0.0178    1.4608    0.0101 C.3       1 <0>         0.0846
      2 N1          0.0021   -0.0041    0.0020 N.am      1 <0>        -0.5111
      3 C2         -1.1897   -0.7124    0.0039 C.2       1 <0>         0.3285
      4 C3         -1.1427   -2.1029   -0.0039 C.2       1 <0>        -0.1406
      5 C4          0.1119   -2.7481   -0.0134 C.2       1 <0>         0.5938
      6 O1          0.1790   -3.9644   -0.0208 O.2       1 <0>        -0.5105
      7 N2          1.2365   -2.0029   -0.0148 N.am      1 <0>        -0.5506
      8 C5          1.1775   -0.6601   -0.0127 C.2       1 <0>         0.7084
      9 O2          2.2123   -0.0216   -0.0196 O.2       1 <0>        -0.5282
     10 C6          2.5421   -2.6675   -0.0241 C.3       1 <0>         0.0824
     11 N3         -2.4537   -2.5390    0.0004 N.pl3     1 <0>        -0.5123
     12 H1         -2.7567   -3.4605   -0.0030 H         1 <0>         0.4376
     13 C7         -3.2384   -1.4264    0.0105 C.2       1 <0>         0.3392
     14 N4         -2.4728   -0.3531    0.0124 N.2       1 <0>        -0.4789
     15 C8         -4.7163   -1.4225    0.0176 C.ar      1 <0>        -0.0328
     16 C9         -5.4203   -2.6280    0.0200 C.ar      1 <0>        -0.0852
     17 C10        -6.7994   -2.6180    0.0266 C.ar      1 <0>        -0.1067
     18 C11        -7.4859   -1.4151    0.0305 C.ar      1 <0>        -0.0155
     19 C12        -6.7930   -0.2160    0.0281 C.ar      1 <0>        -0.1088
     20 C13        -5.4139   -0.2132    0.0278 C.ar      1 <0>        -0.0505
     21 Cl1        -9.2219   -1.4105    0.0376 Cl        1 <0>        -0.0555
     22 H2          1.0048    1.8381    0.0023 H         1 <0>         0.1042
     23 H3         -0.5450    1.8219   -0.8730 H         1 <0>         0.0805
     24 H4         -0.5280    1.8123    0.9069 H         1 <0>         0.0806
     25 H5          2.3997   -3.7481   -0.0290 H         1 <0>         0.1042
     26 H6          3.0949   -2.3698   -0.9151 H         1 <0>         0.0838
     27 H7          3.1031   -2.3789    0.8648 H         1 <0>         0.0838
     28 H8         -4.8861   -3.5666    0.0163 H         1 <0>         0.1332
     29 H9         -7.3451   -3.5500    0.0285 H         1 <0>         0.1444
     30 H10        -7.3338    0.7189    0.0308 H         1 <0>         0.1458
     31 H11        -4.8746    0.7225    0.0309 H         1 <0>         0.1521
@<TRIPOS>BOND
     1    1    2 1
     2    1   22 1
     3    1   23 1
     4    1   24 1
     5    2    8 am
     6    2    3 1
     7    3   14 1
     8    3    4 2
     9    4    5 1
    10    4   11 1
    11    5    6 2
    12    5    7 am
    13    7    8 am
    14    7   10 1
    15    8    9 2
    16   10   25 1
    17   10   26 1
    18   10   27 1
    19   11   12 1
    20   11   13 1
    21   13   14 2
    22   13   15 1
    23   15   20 ar
    24   15   16 ar
    25   16   17 ar
    26   16   28 1
    27   17   18 ar
    28   17   29 1
    29   18   19 ar
    30   18   21 1
    31   19   20 ar
    32   19   30 1
    33   20   31 1
@<TRIPOS>MOLECULE
ZINC17105141
   30    32     0     0     0
SMALL
USER_CHARGES

@<TRIPOS>ATOM
      1 C1         -0.0178    1.4608    0.0101 C.3       1 <0>         0.0957
      2 N1          0.0021   -0.0041    0.0020 N.am      1 <0>        -0.5049
      3 C2         -1.1875   -0.7125    0.0038 C.2       1 <0>         0.2295
      4 C3         -1.1418   -2.1265   -0.0046 C.2       1 <0>        -0.1488
      5 C4          0.1034   -2.7609   -0.0140 C.2       1 <0>         0.5544
      6 O1          0.1827   -4.1039   -0.0225 O.3       1 <0>        -0.5986
      7 N2          1.2365   -2.0038   -0.0148 N.am      1 <0>        -0.5382
      8 C5          1.1773   -0.6614   -0.0127 C.2       1 <0>         0.7067
      9 O2          2.2125   -0.0232   -0.0192 O.2       1 <0>        -0.5723
     10 C6          2.5433   -2.6658   -0.0246 C.3       1 <0>         0.0888
     11 N3         -2.4190   -2.5515   -0.0008 N.2       1 <0>        -0.4428
     12 C7         -3.2043   -1.4889    0.0092 C.2       1 <0>         0.1600
     13 N4         -2.4634   -0.3743    0.0120 N.2       1 <0>        -0.5292
     14 C8         -4.6861   -1.5259    0.0159 C.ar      1 <0>         0.0520
     15 C9         -5.4155   -0.3377    0.0200 C.ar      1 <0>        -0.0936
     16 C10        -6.7946   -0.3776    0.0257 C.ar      1 <0>        -0.1126
     17 C11        -7.4543   -1.5949    0.0278 C.ar      1 <0>        -0.0516
     18 C12        -6.7348   -2.7778    0.0241 C.ar      1 <0>        -0.1108
     19 C13        -5.3554   -2.7490    0.0122 C.ar      1 <0>        -0.0934
     20 Cl1        -9.1898   -1.6382    0.0355 Cl        1 <0>        -0.0911
     21 H1          1.0048    1.8381    0.0023 H         1 <0>         0.0895
     22 H2         -0.5450    1.8219   -0.8730 H         1 <0>         0.0675
     23 H3         -0.5280    1.8123    0.9069 H         1 <0>         0.0676
     24 H4          2.4030   -3.7467   -0.0302 H         1 <0>         0.1005
     25 H5          3.0955   -2.3665   -0.9154 H         1 <0>         0.0708
     26 H6          3.1037   -2.3767    0.8645 H         1 <0>         0.0708
     27 H7         -4.9019    0.6124    0.0191 H         1 <0>         0.1377
     28 H8         -7.3606    0.5422    0.0289 H         1 <0>         0.1280
     29 H9         -7.2542   -3.7247    0.0265 H         1 <0>         0.1288
     30 H10        -4.7951   -3.6722    0.0045 H         1 <0>         0.1396
@<TRIPOS>BOND
     1    1    2 1
     2    1   21 1
     3    1   22 1
     4    1   23 1
     5    2    8 am
     6    2    3 1
     7    3   13 2
     8    3    4 1
     9    4    5 2
    10    4   11 1
    11    5    6 1
    12    5    7 1
    13    7    8 am
    14    7   10 1
    15    8    9 2
    16   10   24 1
    17   10   25 1
    18   10   26 1
    19   11   12 2
    20   12   13 1
    21   12   14 1
    22   14   19 ar
    23   14   15 ar
    24   15   16 ar
    25   15   27 1
    26   16   17 ar
    27   16   28 1
    28   17   18 ar
    29   17   20 1
    30   18   19 ar
    31   18   29 1
    32   19   30 1
@<TRIPOS>MOLECULE
ZINC05114736
   49    51     0     0     0
SMALL
USER_CHARGES
2-[4-(2,6-dioxo-1,3-dipropyl-7H-purin-8-yl)phenoxy]acetic acid
@<TRIPOS>ATOM
      1 C1         -2.8508   -5.6333   -4.3234 C.3       1 <0>        -0.1466
      2 C2         -2.8466   -4.9279   -2.9657 C.3       1 <0>        -0.1389
      3 C3         -1.4029   -4.6741   -2.5274 C.3       1 <0>         0.1197
      4 N1         -1.3988   -3.9987   -1.2274 N.am      1 <0>        -0.5074
      5 C4         -1.3776   -4.7454   -0.0594 C.2       1 <0>         0.3280
      6 C5         -1.3746   -4.0790    1.1619 C.2       1 <0>        -0.1568
      7 C6         -1.3932   -2.6689    1.1754 C.2       1 <0>         0.5944
      8 O1         -1.3907   -2.0630    2.2322 O.2       1 <0>        -0.5157
      9 N2         -1.4134   -1.9985    0.0048 N.am      1 <0>        -0.5498
     10 C7         -1.4212   -2.6539   -1.1686 C.2       1 <0>         0.7085
     11 O2         -1.4443   -2.0159   -2.2035 O.2       1 <0>        -0.5354
     12 C8         -1.4333   -0.5336    0.0129 C.3       1 <0>         0.1149
     13 C9          0.0021   -0.0041    0.0020 C.3       1 <0>        -0.1382
     14 C10        -0.0187    1.5258    0.0104 C.3       1 <0>        -0.1464
     15 N3         -1.3522   -5.0549    2.1407 N.pl3     1 <0>        -0.5242
     16 H1         -1.3446   -4.9075    3.1298 H         1 <0>         0.4420
     17 C11        -1.3424   -6.2559    1.4983 C.2       1 <0>         0.3692
     18 N4         -1.3577   -6.0531    0.1951 N.2       1 <0>        -0.4913
     19 C12        -1.3185   -7.5774    2.1573 C.ar      1 <0>        -0.1064
     20 C13        -1.2981   -7.6645    3.5512 C.ar      1 <0>        -0.0483
     21 C14        -1.2812   -8.8992    4.1622 C.ar      1 <0>        -0.2171
     22 C15        -1.2737  -10.0566    3.3936 C.ar      1 <0>         0.1720
     23 C16        -1.2882   -9.9742    2.0068 C.ar      1 <0>        -0.1618
     24 C17        -1.3105   -8.7434    1.3882 C.ar      1 <0>        -0.0189
     25 O3         -1.2518  -11.2716    3.9996 O.3       1 <0>        -0.2788
     26 C18        -1.2379  -11.2839    5.4284 C.3       1 <0>         0.0137
     27 C19        -1.2142  -12.7088    5.9184 C.2       1 <0>         0.4687
     28 O4         -1.2098  -13.6203    5.1253 O.co2     1 <0>        -0.6119
     29 H2         -3.8794   -5.8142   -4.6357 H         1 <0>         0.0597
     30 H3         -2.3524   -5.0045   -5.0611 H         1 <0>         0.0572
     31 H4         -2.3238   -6.5838   -4.2406 H         1 <0>         0.0598
     32 H5         -3.3450   -5.5567   -2.2280 H         1 <0>         0.0697
     33 H6         -3.3736   -3.9774   -3.0485 H         1 <0>         0.0666
     34 H7         -0.9044   -4.0453   -3.2651 H         1 <0>         0.0984
     35 H8         -0.8758   -5.6246   -2.4446 H         1 <0>         0.0996
     36 H9         -1.9435   -0.1821    0.9097 H         1 <0>         0.1001
     37 H10        -1.9605   -0.1726   -0.8702 H         1 <0>         0.1017
     38 H11         0.5123   -0.3556   -0.8948 H         1 <0>         0.0690
     39 H12         0.5293   -0.3651    0.8851 H         1 <0>         0.0677
     40 H13         1.0039    1.9031    0.0027 H         1 <0>         0.0603
     41 H14        -0.5459    1.8868   -0.8726 H         1 <0>         0.0588
     42 H15        -0.5289    1.8773    0.9072 H         1 <0>         0.0583
     43 H16        -1.2994   -6.7652    4.1493 H         1 <0>         0.1212
     44 H17        -1.2699   -8.9675    5.2400 H         1 <0>         0.1393
     45 H18        -1.2823  -10.8762    1.4129 H         1 <0>         0.1418
     46 H19        -1.3213   -8.6801    0.3101 H         1 <0>         0.1438
     47 H20        -0.3512  -10.7614    5.7876 H         1 <0>         0.0709
     48 H21        -2.1310  -10.7850    5.8048 H         1 <0>         0.0709
     49 O5         -1.1981  -12.9653    7.2358 O.co2     1 <0>        -0.7522
@<TRIPOS>BOND
     1    1    2 1
     2    1   29 1
     3    1   30 1
     4    1   31 1
     5    2    3 1
     6    2   32 1
     7    2   33 1
     8    3    4 1
     9    3   34 1
    10    3   35 1
    11    4   10 am
    12    4    5 1
    13    5   18 1
    14    5    6 2
    15    6    7 1
    16    6   15 1
    17    7    8 2
    18    7    9 am
    19    9   10 am
    20    9   12 1
    21   10   11 2
    22   12   13 1
    23   12   36 1
    24   12   37 1
    25   13   14 1
    26   13   38 1
    27   13   39 1
    28   14   40 1
    29   14   41 1
    30   14   42 1
    31   15   16 1
    32   15   17 1
    33   17   18 2
    34   17   19 1
    35   19   24 ar
    36   19   20 ar
    37   20   21 ar
    38   20   43 1
    39   21   22 ar
    40   21   44 1
    41   22   23 ar
    42   22   25 1
    43   23   24 ar
    44   23   45 1
    45   24   46 1
    46   25   26 1
    47   26   27 1
    48   26   47 1
    49   26   48 1
    50   27   28 2
    51   27   49 1
@<TRIPOS>MOLECULE
ZINC05114736
   50    52     0     0     0
SMALL
USER_CHARGES
2-[4-(2,6-dioxo-1,3-dipropyl-7H-purin-8-yl)phenoxy]acetic acid
@<TRIPOS>ATOM
      1 C1         -2.8508   -5.6333   -4.3234 C.3       1 <0>        -0.1530
      2 C2         -2.8466   -4.9279   -2.9657 C.3       1 <0>        -0.1450
      3 C3         -1.4029   -4.6741   -2.5274 C.3       1 <0>         0.0967
      4 N1         -1.3988   -3.9987   -1.2274 N.am      1 <0>        -0.5113
      5 C4         -1.3776   -4.7454   -0.0594 C.2       1 <0>         0.3517
      6 C5         -1.3746   -4.0790    1.1619 C.2       1 <0>        -0.0784
      7 C6         -1.3932   -2.6689    1.1754 C.2       1 <0>         0.5896
      8 O1         -1.3907   -2.0630    2.2322 O.2       1 <0>        -0.4690
      9 N2         -1.4134   -1.9985    0.0048 N.am      1 <0>        -0.5408
     10 C7         -1.4212   -2.6539   -1.1686 C.2       1 <0>         0.7098
     11 O2         -1.4443   -2.0159   -2.2035 O.2       1 <0>        -0.4892
     12 C8         -1.4333   -0.5336    0.0129 C.3       1 <0>         0.1084
     13 C9          0.0021   -0.0041    0.0020 C.3       1 <0>        -0.1386
     14 C10        -0.0187    1.5258    0.0104 C.3       1 <0>        -0.1501
     15 N3         -1.3522   -5.0549    2.1407 N.pl3     1 <0>        -0.4777
     16 H1         -1.3446   -4.9075    3.1298 H         1 <0>         0.4807
     17 C11        -1.3424   -6.2559    1.4983 C.cat     1 <0>         0.4692
     18 C12        -1.3185   -7.5774    2.1573 C.ar      1 <0>        -0.1754
     19 C13        -1.2981   -7.6645    3.5512 C.ar      1 <0>        -0.0098
     20 C14        -1.2812   -8.8992    4.1622 C.ar      1 <0>        -0.2136
     21 C15        -1.2737  -10.0566    3.3936 C.ar      1 <0>         0.2162
     22 C16        -1.2882   -9.9742    2.0068 C.ar      1 <0>        -0.1516
     23 C17        -1.3105   -8.7434    1.3882 C.ar      1 <0>        -0.0223
     24 O3         -1.2518  -11.2716    3.9996 O.3       1 <0>        -0.2599
     25 C18        -1.2379  -11.2839    5.4284 C.3       1 <0>         0.0053
     26 C19        -1.2142  -12.7088    5.9184 C.2       1 <0>         0.4669
     27 O4         -1.2098  -13.6203    5.1253 O.co2     1 <0>        -0.6074
     28 H2         -3.8794   -5.8142   -4.6357 H         1 <0>         0.0705
     29 H3         -2.3524   -5.0045   -5.0611 H         1 <0>         0.0665
     30 H4         -2.3238   -6.5838   -4.2406 H         1 <0>         0.0611
     31 H5         -3.3450   -5.5567   -2.2280 H         1 <0>         0.0657
     32 H6         -3.3736   -3.9774   -3.0485 H         1 <0>         0.0819
     33 H7         -0.9044   -4.0453   -3.2651 H         1 <0>         0.1256
     34 H8         -0.8758   -5.6246   -2.4446 H         1 <0>         0.0965
     35 H9         -1.9435   -0.1821    0.9097 H         1 <0>         0.1109
     36 H10        -1.9605   -0.1726   -0.8702 H         1 <0>         0.1115
     37 H11         0.5123   -0.3556   -0.8948 H         1 <0>         0.0709
     38 H12         0.5293   -0.3651    0.8851 H         1 <0>         0.0701
     39 H13         1.0039    1.9031    0.0027 H         1 <0>         0.0659
     40 H14        -0.5459    1.8868   -0.8726 H         1 <0>         0.0620
     41 H15        -0.5289    1.8773    0.9072 H         1 <0>         0.0619
     42 H16        -1.2994   -6.7652    4.1493 H         1 <0>         0.1351
     43 H17        -1.2699   -8.9675    5.2400 H         1 <0>         0.1559
     44 H18        -1.2823  -10.8762    1.4129 H         1 <0>         0.1574
     45 H19        -1.3213   -8.6801    0.3101 H         1 <0>         0.1355
     46 H20        -0.3512  -10.7614    5.7876 H         1 <0>         0.0801
     47 H21        -2.1310  -10.7850    5.8048 H         1 <0>         0.0801
     48 O5         -1.1981  -12.9653    7.2358 O.co2     1 <0>        -0.7388
     49 N4         -1.3577   -6.0549    0.1934 N.pl3     1 <0>        -0.5077
     50 H22        -1.3547   -6.7945   -0.5188 H         1 <0>         0.4798
@<TRIPOS>BOND
     1    1    2 1
     2    1   28 1
     3    1   29 1
     4    1   30 1
     5    2    3 1
     6    2   31 1
     7    2   32 1
     8    3    4 1
     9    3   33 1
    10    3   34 1
    11    4   10 am
    12    4    5 1
    13    5    6 2
    14    5   49 1
    15    6    7 1
    16    6   15 1
    17    7    8 2
    18    7    9 am
    19    9   10 am
    20    9   12 1
    21   10   11 2
    22   12   13 1
    23   12   35 1
    24   12   36 1
    25   13   14 1
    26   13   37 1
    27   13   38 1
    28   14   39 1
    29   14   40 1
    30   14   41 1
    31   15   16 1
    32   15   17 1
    33   17   18 1
    34   17   49 2
    35   18   23 ar
    36   18   19 ar
    37   19   20 ar
    38   19   42 1
    39   20   21 ar
    40   20   43 1
    41   21   22 ar
    42   21   24 1
    43   22   23 ar
    44   22   44 1
    45   23   45 1
    46   24   25 1
    47   25   26 1
    48   25   46 1
    49   25   47 1
    50   26   27 2
    51   26   48 1
    52   49   50 1
@<TRIPOS>MOLECULE
ZINC00529763
   32    34     0     0     0
SMALL
USER_CHARGES
8-(4-hydroxyphenyl)-1,3-dimethyl-7H-purine-2,6-dione
@<TRIPOS>ATOM
      1 C1          3.6575    2.0860   -0.0235 C.3       1 <0>         0.0850
      2 N1          2.3735    1.3807   -0.0141 N.am      1 <0>        -0.5112
      3 C2          1.1886    2.1004    0.0020 C.2       1 <0>         0.3277
      4 C3         -0.0170    1.4060    0.0098 C.2       1 <0>        -0.1430
      5 C4          0.0021   -0.0041    0.0020 C.2       1 <0>         0.5939
      6 O1         -1.0405   -0.6342    0.0082 O.2       1 <0>        -0.5122
      7 N2          1.1878   -0.6474   -0.0128 N.am      1 <0>        -0.5509
      8 C5          2.3458    0.0348   -0.0206 C.2       1 <0>         0.7083
      9 O2          3.3953   -0.5793   -0.0343 O.2       1 <0>        -0.5295
     10 C6          1.2136   -2.1122   -0.0209 C.3       1 <0>         0.0826
     11 N3         -1.0181    2.3593    0.0190 N.pl3     1 <0>        -0.5176
     12 H1         -2.0035    2.1893    0.0208 H         1 <0>         0.4437
     13 C7         -0.4035    3.5748    0.0251 C.2       1 <0>         0.3439
     14 N4          0.9039    3.4020    0.0117 N.2       1 <0>        -0.4825
     15 C8         -1.0929    4.8809    0.0392 C.ar      1 <0>        -0.0487
     16 C9         -2.4886    4.9360    0.0475 C.ar      1 <0>        -0.0793
     17 C10        -3.1277    6.1563    0.0654 C.ar      1 <0>        -0.1433
     18 C11        -2.3861    7.3312    0.0646 C.ar      1 <0>         0.1324
     19 C12        -0.9977    7.2807    0.0511 C.ar      1 <0>        -0.1454
     20 C13        -0.3509    6.0643    0.0384 C.ar      1 <0>        -0.0452
     21 O3         -3.0199    8.5320    0.0766 O.3       1 <0>        -0.4970
     22 H2          4.4706    1.3601   -0.0354 H         1 <0>         0.1039
     23 H3          3.7197    2.7157   -0.9110 H         1 <0>         0.0801
     24 H4          3.7377    2.7067    0.8688 H         1 <0>         0.0802
     25 H5          0.1925   -2.4936   -0.0132 H         1 <0>         0.1040
     26 H6          1.7252   -2.4616   -0.9177 H         1 <0>         0.0835
     27 H7          1.7422   -2.4712    0.8622 H         1 <0>         0.0835
     28 H8         -3.0658    4.0232    0.0436 H         1 <0>         0.1280
     29 H9         -4.2068    6.1998    0.0763 H         1 <0>         0.1393
     30 H10        -0.4248    8.1962    0.0509 H         1 <0>         0.1408
     31 H11         0.7284    6.0259    0.0276 H         1 <0>         0.1469
     32 H12        -3.2119    8.8843   -0.8032 H         1 <0>         0.3980
@<TRIPOS>BOND
     1    1    2 1
     2    1   22 1
     3    1   23 1
     4    1   24 1
     5    2    8 am
     6    2    3 1
     7    3   14 1
     8    3    4 2
     9    4    5 1
    10    4   11 1
    11    5    6 2
    12    5    7 am
    13    7    8 am
    14    7   10 1
    15    8    9 2
    16   10   25 1
    17   10   26 1
    18   10   27 1
    19   11   12 1
    20   11   13 1
    21   13   14 2
    22   13   15 1
    23   15   20 ar
    24   15   16 ar
    25   16   17 ar
    26   16   28 1
    27   17   18 ar
    28   17   29 1
    29   18   19 ar
    30   18   21 1
    31   19   20 ar
    32   19   30 1
    33   20   31 1
    34   21   32 1
@<TRIPOS>MOLECULE
ZINC00529763
   33    35     0     0     0
SMALL
USER_CHARGES
8-(4-hydroxyphenyl)-1,3-dimethyl-7H-purine-2,6-dione
@<TRIPOS>ATOM
      1 C1          3.6575    2.0860   -0.0235 C.3       1 <0>         0.0533
      2 N1          2.3735    1.3807   -0.0141 N.am      1 <0>        -0.5123
      3 C2          1.1886    2.1004    0.0020 C.2       1 <0>         0.3568
      4 C3         -0.0170    1.4060    0.0098 C.2       1 <0>        -0.0695
      5 C4          0.0021   -0.0041    0.0020 C.2       1 <0>         0.5884
      6 O1         -1.0405   -0.6342    0.0082 O.2       1 <0>        -0.4654
      7 N2          1.1878   -0.6474   -0.0128 N.am      1 <0>        -0.5410
      8 C5          2.3458    0.0348   -0.0206 C.2       1 <0>         0.7084
      9 O2          3.3953   -0.5793   -0.0343 O.2       1 <0>        -0.4812
     10 C6          1.2136   -2.1122   -0.0209 C.3       1 <0>         0.0744
     11 N3         -1.0181    2.3593    0.0190 N.pl3     1 <0>        -0.4631
     12 H1         -2.0035    2.1893    0.0208 H         1 <0>         0.4830
     13 C7         -0.4035    3.5748    0.0251 C.cat     1 <0>         0.4464
     14 C8         -1.0929    4.8809    0.0392 C.ar      1 <0>        -0.1182
     15 C9         -2.4886    4.9360    0.0475 C.ar      1 <0>        -0.0424
     16 C10        -3.1277    6.1563    0.0654 C.ar      1 <0>        -0.1385
     17 C11        -2.3861    7.3312    0.0646 C.ar      1 <0>         0.1828
     18 C12        -0.9977    7.2807    0.0511 C.ar      1 <0>        -0.1390
     19 C13        -0.3509    6.0643    0.0384 C.ar      1 <0>        -0.0463
     20 O3         -3.0199    8.5320    0.0766 O.3       1 <0>        -0.4892
     21 H2          4.4706    1.3601   -0.0354 H         1 <0>         0.1304
     22 H3          3.7197    2.7157   -0.9110 H         1 <0>         0.0931
     23 H4          3.7377    2.7067    0.8688 H         1 <0>         0.0931
     24 H5          0.1925   -2.4936   -0.0132 H         1 <0>         0.1139
     25 H6          1.7252   -2.4616   -0.9177 H         1 <0>         0.0954
     26 H7          1.7422   -2.4712    0.8622 H         1 <0>         0.0954
     27 H8         -3.0658    4.0232    0.0436 H         1 <0>         0.1412
     28 H9         -4.2068    6.1998    0.0763 H         1 <0>         0.1566
     29 H10        -0.4248    8.1962    0.0509 H         1 <0>         0.1562
     30 H11         0.7284    6.0259    0.0276 H         1 <0>         0.1390
     31 H12        -3.2119    8.8843   -0.8032 H         1 <0>         0.4135
     32 N4          0.9056    3.4039    0.0117 N.pl3     1 <0>        -0.4975
     33 H13         1.6005    4.1597    0.0091 H         1 <0>         0.4828
@<TRIPOS>BOND
     1    1    2 1
     2    1   21 1
     3    1   22 1
     4    1   23 1
     5    2    8 am
     6    2    3 1
     7    3    4 2
     8    3   32 1
     9    4    5 1
    10    4   11 1
    11    5    6 2
    12    5    7 am
    13    7    8 am
    14    7   10 1
    15    8    9 2
    16   10   24 1
    17   10   25 1
    18   10   26 1
    19   11   12 1
    20   11   13 1
    21   13   14 1
    22   13   32 2
    23   14   19 ar
    24   14   15 ar
    25   15   16 ar
    26   15   27 1
    27   16   17 ar
    28   16   28 1
    29   17   18 ar
    30   17   20 1
    31   18   19 ar
    32   18   29 1
    33   19   30 1
    34   20   31 1
    35   32   33 1
@<TRIPOS>MOLECULE
ZINC28763883
   60    62     0     0     0
SMALL
USER_CHARGES

@<TRIPOS>ATOM
      1 C1         -0.0187    1.5258    0.0104 C.3       1 <0>        -0.1471
      2 C2          0.0021   -0.0041    0.0020 C.3       1 <0>        -0.1387
      3 C3          0.7421   -0.5109    1.2415 C.3       1 <0>         0.1191
      4 N1          0.7619   -1.9757    1.2335 N.am      1 <0>        -0.5089
      5 C4         -0.2660   -2.6852    1.8352 C.2       1 <0>         0.3304
      6 C5         -0.2227   -4.0758    1.8133 C.2       1 <0>        -0.1422
      7 C6          0.8615   -4.7197    1.1820 C.2       1 <0>         0.5924
      8 O1          0.9214   -5.9360    1.1495 O.2       1 <0>        -0.5083
      9 N2          1.8315   -3.9736    0.6140 N.am      1 <0>        -0.5477
     10 C7          1.7755   -2.6309    0.6370 C.2       1 <0>         0.7072
     11 O2          2.6654   -1.9916    0.1098 O.2       1 <0>        -0.5249
     12 C8          2.9605   -4.6372   -0.0428 C.3       1 <0>         0.1129
     13 C9          2.6266   -4.8717   -1.5174 C.3       1 <0>        -0.1374
     14 C10         3.8056   -5.5648   -2.2033 C.3       1 <0>        -0.1480
     15 N3         -1.3547   -4.5134    2.4751 N.pl3     1 <0>        -0.5145
     16 H1         -1.6145   -5.4351    2.6295 H         1 <0>         0.4367
     17 C11        -2.0346   -3.4010    2.8692 C.2       1 <0>         0.3401
     18 N4         -1.3747   -2.3269    2.4814 N.2       1 <0>        -0.4837
     19 C12        -3.3101   -3.3980    3.6137 C.ar      1 <0>        -0.0657
     20 C13        -3.9128   -4.6051    3.9751 C.ar      1 <0>        -0.0542
     21 C14        -5.1027   -4.5980    4.6695 C.ar      1 <0>        -0.1387
     22 C15        -5.7034   -3.3923    5.0099 C.ar      1 <0>         0.1457
     23 C16        -5.1073   -2.1895    4.6519 C.ar      1 <0>        -0.2098
     24 C17        -3.9140   -2.1879    3.9633 C.ar      1 <0>        -0.0207
     25 O3         -6.8764   -3.3895    5.6940 O.3       1 <0>        -0.2870
     26 C18        -7.4391   -2.1150    6.0117 C.3       1 <0>         0.0400
     27 C19        -8.7293   -2.3094    6.7658 C.2       1 <0>         0.5236
     28 O4         -9.1277   -3.4291    7.0073 O.2       1 <0>        -0.4949
     29 N5         -9.4404   -1.2389    7.1718 N.am      1 <0>        -0.7330
     30 C20       -10.6947   -1.4279    7.9048 C.3       1 <0>         0.0930
     31 C21       -11.2971   -0.0632    8.2450 C.3       1 <0>        -0.0193
     32 N6        -12.5548   -0.2527    8.9800 N.4       1 <0>        -0.6320
     33 H2          1.0039    1.9031    0.0027 H         1 <0>         0.0600
     34 H3         -0.5459    1.8868   -0.8726 H         1 <0>         0.0609
     35 H4         -0.5289    1.8773    0.9072 H         1 <0>         0.0576
     36 H5         -1.0205   -0.3814    0.0098 H         1 <0>         0.0670
     37 H6          0.5123   -0.3556   -0.8948 H         1 <0>         0.0690
     38 H7          1.7647   -0.1336    1.2338 H         1 <0>         0.1016
     39 H8          0.2319   -0.1594    2.1383 H         1 <0>         0.0980
     40 H9          3.8466   -4.0071    0.0334 H         1 <0>         0.1045
     41 H10         3.1521   -5.5940    0.4430 H         1 <0>         0.1025
     42 H11         1.7404   -5.5018   -1.5935 H         1 <0>         0.0669
     43 H12         2.4349   -3.9149   -2.0031 H         1 <0>         0.0692
     44 H13         3.5678   -5.7318   -3.2538 H         1 <0>         0.0622
     45 H14         4.6918   -4.9347   -2.1271 H         1 <0>         0.0604
     46 H15         3.9973   -6.5215   -1.7175 H         1 <0>         0.0594
     47 H16        -3.4469   -5.5427    3.7102 H         1 <0>         0.1344
     48 H17        -5.5694   -5.5309    4.9493 H         1 <0>         0.1444
     49 H18        -5.5777   -1.2543    4.9178 H         1 <0>         0.1367
     50 H19        -3.4487   -1.2525    3.6898 H         1 <0>         0.1478
     51 H20        -6.7387   -1.5523    6.6290 H         1 <0>         0.1028
     52 H21        -7.6354   -1.5649    5.0914 H         1 <0>         0.1028
     53 H22        -9.1218   -0.3433    6.9786 H         1 <0>         0.4114
     54 H23       -11.3950   -1.9906    7.2875 H         1 <0>         0.0931
     55 H24       -10.4983   -1.9780    8.8251 H         1 <0>         0.0931
     56 H25       -10.5968    0.4994    8.8622 H         1 <0>         0.1426
     57 H26       -11.4935    0.4868    7.3247 H         1 <0>         0.1426
     58 H27       -13.2031   -0.7736    8.4086 H         1 <0>         0.4398
     59 H28       -12.3731   -0.7620    9.8319 H         1 <0>         0.4398
     60 H29       -12.9521    0.6472    9.2044 H         1 <0>         0.4453
@<TRIPOS>BOND
     1    1    2 1
     2    1   33 1
     3    1   34 1
     4    1   35 1
     5    2    3 1
     6    2   36 1
     7    2   37 1
     8    3    4 1
     9    3   38 1
    10    3   39 1
    11    4   10 am
    12    4    5 1
    13    5   18 1
    14    5    6 2
    15    6    7 1
    16    6   15 1
    17    7    8 2
    18    7    9 am
    19    9   10 am
    20    9   12 1
    21   10   11 2
    22   12   13 1
    23   12   40 1
    24   12   41 1
    25   13   14 1
    26   13   42 1
    27   13   43 1
    28   14   44 1
    29   14   45 1
    30   14   46 1
    31   15   16 1
    32   15   17 1
    33   17   18 2
    34   17   19 1
    35   19   24 ar
    36   19   20 ar
    37   20   21 ar
    38   20   47 1
    39   21   22 ar
    40   21   48 1
    41   22   23 ar
    42   22   25 1
    43   23   24 ar
    44   23   49 1
    45   24   50 1
    46   25   26 1
    47   26   27 1
    48   26   51 1
    49   26   52 1
    50   27   28 2
    51   27   29 am
    52   29   30 1
    53   29   53 1
    54   30   31 1
    55   30   54 1
    56   30   55 1
    57   31   32 1
    58   31   56 1
    59   31   57 1
    60   32   58 1
    61   32   59 1
    62   32   60 1
@<TRIPOS>MOLECULE
ZINC06447472
   31    33     0     0     0
SMALL
USER_CHARGES
8-(4-fluorophenyl)-1,3-dimethyl-7H-purine-2,6-dione
@<TRIPOS>ATOM
      1 C1          3.6575    2.0861   -0.0235 C.3       1 <0>         0.0848
      2 N1          2.3735    1.3809   -0.0141 N.am      1 <0>        -0.5112
      3 C2          1.1886    2.1007    0.0020 C.2       1 <0>         0.3278
      4 C3         -0.0171    1.4064    0.0098 C.2       1 <0>        -0.1410
      5 C4          0.0021   -0.0041    0.0020 C.2       1 <0>         0.5938
      6 O1         -1.0404   -0.6342    0.0082 O.2       1 <0>        -0.5113
      7 N2          1.1879   -0.6473   -0.0128 N.am      1 <0>        -0.5507
      8 C5          2.3458    0.0350   -0.0206 C.2       1 <0>         0.7083
      9 O2          3.3953   -0.5790   -0.0343 O.2       1 <0>        -0.5289
     10 C6          1.2138   -2.1121   -0.0209 C.3       1 <0>         0.0825
     11 N3         -1.0177    2.3595    0.0190 N.pl3     1 <0>        -0.5164
     12 H1         -2.0031    2.1895    0.0208 H         1 <0>         0.4441
     13 C7         -0.4034    3.5747    0.0251 C.2       1 <0>         0.3418
     14 N4          0.9038    3.4023    0.0117 N.2       1 <0>        -0.4811
     15 C8         -1.0933    4.8813    0.0388 C.ar      1 <0>        -0.0487
     16 C9         -2.4884    4.9369    0.0471 C.ar      1 <0>        -0.0678
     17 C10        -3.1269    6.1588    0.0642 C.ar      1 <0>        -0.1504
     18 C11        -2.3865    7.3307    0.0629 C.ar      1 <0>         0.1242
     19 C12        -1.0012    7.2813    0.0498 C.ar      1 <0>        -0.1524
     20 C13        -0.3524    6.0648    0.0375 C.ar      1 <0>        -0.0338
     21 F1         -3.0173    8.5254    0.0740 F         1 <0>        -0.1307
     22 H2          4.4706    1.3603   -0.0354 H         1 <0>         0.1040
     23 H3          3.7197    2.7159   -0.9110 H         1 <0>         0.0803
     24 H4          3.7377    2.7069    0.8688 H         1 <0>         0.0803
     25 H5          0.1928   -2.4936   -0.0132 H         1 <0>         0.1042
     26 H6          1.7254   -2.4614   -0.9177 H         1 <0>         0.0836
     27 H7          1.7424   -2.4710    0.8622 H         1 <0>         0.0836
     28 H8         -3.0662    4.0245    0.0439 H         1 <0>         0.1340
     29 H9         -4.2060    6.2029    0.0740 H         1 <0>         0.1465
     30 H10        -0.4292    8.1973    0.0489 H         1 <0>         0.1479
     31 H11         0.7269    6.0274    0.0266 H         1 <0>         0.1526
@<TRIPOS>BOND
     1    1    2 1
     2    1   22 1
     3    1   23 1
     4    1   24 1
     5    2    8 am
     6    2    3 1
     7    3   14 1
     8    3    4 2
     9    4    5 1
    10    4   11 1
    11    5    6 2
    12    5    7 am
    13    7    8 am
    14    7   10 1
    15    8    9 2
    16   10   25 1
    17   10   26 1
    18   10   27 1
    19   11   12 1
    20   11   13 1
    21   13   14 2
    22   13   15 1
    23   15   20 ar
    24   15   16 ar
    25   16   17 ar
    26   16   28 1
    27   17   18 ar
    28   17   29 1
    29   18   19 ar
    30   18   21 1
    31   19   20 ar
    32   19   30 1
    33   20   31 1
@<TRIPOS>MOLECULE
ZINC06447472
   32    34     0     0     0
SMALL
USER_CHARGES
8-(4-fluorophenyl)-1,3-dimethyl-7H-purine-2,6-dione
@<TRIPOS>ATOM
      1 C1          3.6575    2.0861   -0.0235 C.3       1 <0>         0.0530
      2 N1          2.3735    1.3809   -0.0141 N.am      1 <0>        -0.5121
      3 C2          1.1886    2.1007    0.0020 C.2       1 <0>         0.3576
      4 C3         -0.0171    1.4064    0.0098 C.2       1 <0>        -0.0681
      5 C4          0.0021   -0.0041    0.0020 C.2       1 <0>         0.5883
      6 O1         -1.0404   -0.6342    0.0082 O.2       1 <0>        -0.4646
      7 N2          1.1879   -0.6473   -0.0128 N.am      1 <0>        -0.5409
      8 C5          2.3458    0.0350   -0.0206 C.2       1 <0>         0.7083
      9 O2          3.3953   -0.5790   -0.0343 O.2       1 <0>        -0.4804
     10 C6          1.2138   -2.1121   -0.0209 C.3       1 <0>         0.0743
     11 N3         -1.0177    2.3595    0.0190 N.pl3     1 <0>        -0.4608
     12 H1         -2.0031    2.1895    0.0208 H         1 <0>         0.4834
     13 C7         -0.4034    3.5747    0.0251 C.cat     1 <0>         0.4440
     14 C8         -1.0933    4.8813    0.0388 C.ar      1 <0>        -0.1174
     15 C9         -2.4884    4.9369    0.0471 C.ar      1 <0>        -0.0313
     16 C10        -3.1269    6.1588    0.0642 C.ar      1 <0>        -0.1441
     17 C11        -2.3865    7.3307    0.0629 C.ar      1 <0>         0.1714
     18 C12        -1.0012    7.2813    0.0498 C.ar      1 <0>        -0.1446
     19 C13        -0.3524    6.0648    0.0375 C.ar      1 <0>        -0.0352
     20 F1         -3.0173    8.5254    0.0740 F         1 <0>        -0.1100
     21 H2          4.4706    1.3603   -0.0354 H         1 <0>         0.1305
     22 H3          3.7197    2.7159   -0.9110 H         1 <0>         0.0934
     23 H4          3.7377    2.7069    0.8688 H         1 <0>         0.0933
     24 H5          0.1928   -2.4936   -0.0132 H         1 <0>         0.1140
     25 H6          1.7254   -2.4614   -0.9177 H         1 <0>         0.0956
     26 H7          1.7424   -2.4710    0.8622 H         1 <0>         0.0956
     27 H8         -3.0662    4.0245    0.0439 H         1 <0>         0.1473
     28 H9         -4.2060    6.2029    0.0740 H         1 <0>         0.1638
     29 H10        -0.4292    8.1973    0.0489 H         1 <0>         0.1634
     30 H11         0.7269    6.0274    0.0266 H         1 <0>         0.1450
     31 N4          0.9054    3.4041    0.0117 N.pl3     1 <0>        -0.4961
     32 H12         1.6002    4.1601    0.0091 H         1 <0>         0.4832
@<TRIPOS>BOND
     1    1    2 1
     2    1   21 1
     3    1   22 1
     4    1   23 1
     5    2    8 am
     6    2    3 1
     7    3    4 2
     8    3   31 1
     9    4    5 1
    10    4   11 1
    11    5    6 2
    12    5    7 am
    13    7    8 am
    14    7   10 1
    15    8    9 2
    16   10   24 1
    17   10   25 1
    18   10   26 1
    19   11   12 1
    20   11   13 1
    21   13   14 1
    22   13   31 2
    23   14   19 ar
    24   14   15 ar
    25   15   16 ar
    26   15   27 1
    27   16   17 ar
    28   16   28 1
    29   17   18 ar
    30   17   20 1
    31   18   19 ar
    32   18   29 1
    33   19   30 1
    34   31   32 1
@<TRIPOS>MOLECULE
ZINC08577935
   39    41     0     0     0
SMALL
USER_CHARGES

@<TRIPOS>ATOM
      1 C1         -0.0127    1.0858    0.0080 C.3       1 <0>         0.0896
      2 N1         -0.7213    1.5711   -1.1789 N.am      1 <0>        -0.5102
      3 C2         -2.0905    1.7831   -1.1293 C.2       1 <0>         0.3264
      4 C3         -2.7387    2.2448   -2.2707 C.2       1 <0>        -0.1519
      5 C4         -1.9871    2.4820   -3.4391 C.2       1 <0>         0.5940
      6 O1         -2.5324    2.8867   -4.4506 O.2       1 <0>        -0.5164
      7 N2         -0.6571    2.2564   -3.4250 N.am      1 <0>        -0.5516
      8 C5         -0.0411    1.8160   -2.3145 C.2       1 <0>         0.7072
      9 O2          1.1602    1.6287   -2.3379 O.2       1 <0>        -0.5315
     10 C6          0.1289    2.5014   -4.6368 C.3       1 <0>         0.0833
     11 N3         -4.0768    2.3644   -1.9404 N.pl3     1 <0>        -0.5216
     12 C7         -4.1959    1.9803   -0.6385 C.2       1 <0>         0.3599
     13 N4         -3.0085    1.6393   -0.1745 N.2       1 <0>        -0.4654
     14 H1         -4.7921    2.6642   -2.5230 H         1 <0>         0.4343
     15 C8         -5.4539    1.9505    0.1311 C.ar      1 <0>        -0.1171
     16 C9         -6.6549    2.3312   -0.4731 C.ar      1 <0>        -0.0149
     17 C10        -7.8271    2.3020    0.2484 C.ar      1 <0>        -0.2440
     18 C11        -7.8207    1.8951    1.5783 C.ar      1 <0>         0.1953
     19 C12        -6.6338    1.5152    2.1872 C.ar      1 <0>        -0.2504
     20 C13        -5.4500    1.5345    1.4700 C.ar      1 <0>         0.2236
     21 O3         -4.2885    1.1572    2.0626 O.3       1 <0>        -0.2717
     22 C14        -4.3613    0.7455    3.4290 C.3       1 <0>         0.0184
     23 O4         -8.9809    1.8699    2.2834 O.3       1 <0>        -0.3098
     24 C15       -10.1667    2.2740    1.5960 C.3       1 <0>         0.0231
     25 H2          0.0021   -0.0041    0.0020 H         1 <0>         0.0731
     26 H3          1.0099    1.4631    0.0003 H         1 <0>         0.0928
     27 H4         -0.5229    1.4373    0.9048 H         1 <0>         0.0932
     28 H5         -0.5282    2.8568   -5.4305 H         1 <0>         0.1033
     29 H6          0.8896    3.2544   -4.4305 H         1 <0>         0.0824
     30 H7          0.6103    1.5753   -4.9511 H         1 <0>         0.0824
     31 H8         -6.6636    2.6485   -1.5054 H         1 <0>         0.1337
     32 H9         -8.7547    2.5965   -0.2198 H         1 <0>         0.1404
     33 H10        -6.6340    1.1999    3.2202 H         1 <0>         0.1476
     34 H11        -4.7467    1.5651    4.0355 H         1 <0>         0.0593
     35 H12        -5.0263   -0.1139    3.5147 H         1 <0>         0.0593
     36 H13        -3.3662    0.4711    3.7793 H         1 <0>         0.1062
     37 H14       -11.0191    2.2073    2.2721 H         1 <0>         0.1054
     38 H15       -10.0550    3.3024    1.2525 H         1 <0>         0.0612
     39 H16       -10.3306    1.6205    0.7392 H         1 <0>         0.0612
@<TRIPOS>BOND
     1    1   25 1
     2    1   26 1
     3    1   27 1
     4    1    2 1
     5    2    3 1
     6    2    8 am
     7    3   13 1
     8    3    4 2
     9    4    5 1
    10    4   11 1
    11    5    7 am
    12    5    6 2
    13    7    8 am
    14    7   10 1
    15    8    9 2
    16   10   28 1
    17   10   29 1
    18   10   30 1
    19   11   14 1
    20   11   12 1
    21   12   15 1
    22   12   13 2
    23   15   20 ar
    24   15   16 ar
    25   16   17 ar
    26   16   31 1
    27   17   18 ar
    28   17   32 1
    29   18   19 ar
    30   18   23 1
    31   19   20 ar
    32   19   33 1
    33   20   21 1
    34   21   22 1
    35   22   34 1
    36   22   35 1
    37   22   36 1
    38   23   24 1
    39   24   37 1
    40   24   38 1
    41   24   39 1
@<TRIPOS>MOLECULE
ZINC03861807
   30    31     0     0     0
SMALL
USER_CHARGES

@<TRIPOS>ATOM
      1 C1         -0.0187    1.5258    0.0104 C.3       1 <0>        -0.1415
      2 C2          0.0021   -0.0041    0.0020 C.3       1 <0>        -0.1122
      3 C3          0.7421   -0.5109    1.2415 C.3       1 <0>        -0.1434
      4 C4         -1.4333   -0.5336    0.0129 C.3       1 <0>         0.1228
      5 N1         -2.1054   -0.1483   -1.2305 N.am      1 <0>        -0.5064
      6 C5         -2.7896    1.0542   -1.3029 C.2       1 <0>         0.3270
      7 C6         -3.4188    1.3971   -2.4931 C.2       1 <0>        -0.1566
      8 C7         -3.3428    0.5129   -3.5907 C.2       1 <0>         0.5930
      9 O1         -3.8857    0.7913   -4.6449 O.2       1 <0>        -0.5148
     10 N2         -2.6613   -0.6442   -3.4587 N.am      1 <0>        -0.5518
     11 C8         -2.0526   -0.9608   -2.3028 C.2       1 <0>         0.7063
     12 O2         -1.4428   -2.0098   -2.2221 O.2       1 <0>        -0.5287
     13 C9         -2.5785   -1.5664   -4.5940 C.3       1 <0>         0.0827
     14 N3         -4.0103    2.6257   -2.2774 N.pl3     1 <0>        -0.5187
     15 H1         -4.5284    3.1372   -2.9183 H         1 <0>         0.4381
     16 C10        -3.7321    2.9790   -1.0073 C.2       1 <0>         0.2767
     17 N4         -3.0113    2.0471   -0.4377 N.2       1 <0>        -0.4957
     18 H2          1.0039    1.9031    0.0027 H         1 <0>         0.0532
     19 H3         -0.5459    1.8868   -0.8726 H         1 <0>         0.0473
     20 H4         -0.5289    1.8773    0.9072 H         1 <0>         0.0653
     21 H5          0.5123   -0.3556   -0.8948 H         1 <0>         0.0742
     22 H6          0.2319   -0.1594    2.1383 H         1 <0>         0.0596
     23 H7          0.7568   -1.6008    1.2356 H         1 <0>         0.0591
     24 H8          1.7647   -0.1336    1.2338 H         1 <0>         0.0613
     25 H9         -1.4190   -1.6203    0.0965 H         1 <0>         0.1003
     26 H10        -1.9701   -0.1109    0.8621 H         1 <0>         0.1000
     27 H11        -3.1215   -1.1486   -5.4417 H         1 <0>         0.1034
     28 H12        -1.5337   -1.7124   -4.8680 H         1 <0>         0.0826
     29 H13        -3.0188   -2.5242   -4.3168 H         1 <0>         0.0828
     30 H14        -4.0547    3.8934   -0.5315 H         1 <0>         0.2343
@<TRIPOS>BOND
     1    1    2 1
     2    1   18 1
     3    1   19 1
     4    1   20 1
     5    2    3 1
     6    2    4 1
     7    2   21 1
     8    3   22 1
     9    3   23 1
    10    3   24 1
    11    4    5 1
    12    4   25 1
    13    4   26 1
    14    5   11 am
    15    5    6 1
    16    6   17 1
    17    6    7 2
    18    7    8 1
    19    7   14 1
    20    8    9 2
    21    8   10 am
    22   10   11 am
    23   10   13 1
    24   11   12 2
    25   13   27 1
    26   13   28 1
    27   13   29 1
    28   14   15 1
    29   14   16 1
    30   16   17 2
    31   16   30 1
@<TRIPOS>MOLECULE
ZINC06188073
   31    33     0     0     0
SMALL
USER_CHARGES
8-(2-fluorophenyl)-1,3-dimethyl-9H-purine-2,6-dione
@<TRIPOS>ATOM
      1 C1          4.3627   -0.2959   -0.0411 C.3       1 <0>         0.0736
      2 N1          3.4630    0.8602   -0.0268 N.am      1 <0>        -0.5173
      3 C2          2.1022    0.6615   -0.0145 C.2       1 <0>         0.2847
      4 C3          1.2559    1.7661   -0.0004 C.2       1 <0>        -0.0883
      5 C4          1.8581    3.1014    0.0001 C.2       1 <0>         0.5966
      6 O1          1.1604    4.0990    0.0113 O.2       1 <0>        -0.4765
      7 N2          3.2049    3.2006   -0.0122 N.am      1 <0>        -0.5540
      8 C5          3.9780    2.1021   -0.0254 C.2       1 <0>         0.7153
      9 O2          5.1866    2.2358   -0.0370 O.2       1 <0>        -0.5269
     10 C6          3.8316    4.5248   -0.0115 C.3       1 <0>         0.0823
     11 N3         -0.0157    1.3070    0.0092 N.2       1 <0>        -0.3837
     12 C7          0.0021   -0.0041    0.0020 C.2       1 <0>         0.2638
     13 N4          1.3040   -0.4389   -0.0127 N.pl3     1 <0>        -0.5528
     14 H1          1.6094   -1.3911   -0.0206 H         1 <0>         0.4382
     15 C8         -1.1916   -0.8763    0.0083 C.ar      1 <0>        -0.0451
     16 C9         -2.4695   -0.3156    0.0236 C.ar      1 <0>        -0.0475
     17 C10        -3.5793   -1.1347    0.0289 C.ar      1 <0>        -0.1210
     18 C11        -3.4292   -2.5105    0.0186 C.ar      1 <0>        -0.0772
     19 C12        -2.1669   -3.0748    0.0039 C.ar      1 <0>        -0.1445
     20 C13        -1.0457   -2.2660   -0.0069 C.ar      1 <0>         0.1033
     21 F1          0.1874   -2.8176   -0.0273 F         1 <0>        -0.1404
     22 H2          4.5758   -0.5777   -1.0722 H         1 <0>         0.0804
     23 H3          5.2931   -0.0385    0.4649 H         1 <0>         0.1063
     24 H4          3.8885   -1.1317    0.4734 H         1 <0>         0.0798
     25 H5          3.9769    4.8585   -1.0389 H         1 <0>         0.0784
     26 H6          3.1876    5.2312    0.5124 H         1 <0>         0.0972
     27 H7          4.7964    4.4699    0.4926 H         1 <0>         0.0970
     28 H8         -2.5893    0.7577    0.0316 H         1 <0>         0.1519
     29 H9         -4.5684   -0.7012    0.0407 H         1 <0>         0.1416
     30 H10        -4.3021   -3.1464    0.0225 H         1 <0>         0.1407
     31 H11        -2.0568   -4.1491   -0.0033 H         1 <0>         0.1440
@<TRIPOS>BOND
     1    1    2 1
     2    1   22 1
     3    1   23 1
     4    1   24 1
     5    2    8 am
     6    2    3 1
     7    3   13 1
     8    3    4 2
     9    4    5 1
    10    4   11 1
    11    5    6 2
    12    5    7 am
    13    7    8 am
    14    7   10 1
    15    8    9 2
    16   10   25 1
    17   10   26 1
    18   10   27 1
    19   11   12 2
    20   12   13 1
    21   12   15 1
    22   13   14 1
    23   15   20 ar
    24   15   16 ar
    25   16   17 ar
    26   16   28 1
    27   17   18 ar
    28   17   29 1
    29   18   19 ar
    30   18   30 1
    31   19   20 ar
    32   19   31 1
    33   20   21 1
@<TRIPOS>MOLECULE
ZINC06188073
   32    34     0     0     0
SMALL
USER_CHARGES
8-(2-fluorophenyl)-1,3-dimethyl-7H-purine-2,6-dione
@<TRIPOS>ATOM
      1 C1         -1.5751    4.8087    2.7091 C.3       1 <0>         0.0624
      2 N1         -1.4525    3.3615    2.5168 N.am      1 <0>        -0.5121
      3 C2         -1.9762    2.4911    3.4603 C.2       1 <0>         0.3571
      4 C3         -1.8457    1.1214    3.2536 C.2       1 <0>        -0.0667
      5 C4         -1.1867    0.6610    2.0945 C.2       1 <0>         0.5879
      6 O1         -1.0597   -0.5334    1.8917 O.2       1 <0>        -0.4625
      7 N2         -0.6984    1.5583    1.2133 N.am      1 <0>        -0.5408
      8 C5         -0.8265    2.8790    1.4270 C.2       1 <0>         0.7082
      9 O2         -0.3692    3.6580    0.6130 O.2       1 <0>        -0.4789
     10 C6         -0.0127    1.0858    0.0080 C.3       1 <0>         0.0744
     11 N3         -2.4485    0.5034    4.3327 N.pl3     1 <0>        -0.4564
     12 H1         -2.5266   -0.4813    4.4888 H         1 <0>         0.4830
     13 C7         -2.9157    1.4934    5.1426 C.cat     1 <0>         0.4339
     14 C8         -3.6333    1.2877    6.4175 C.ar      1 <0>        -0.1307
     15 C9         -4.0654    2.3854    7.1644 C.ar      1 <0>        -0.0442
     16 C10        -4.7350    2.1865    8.3533 C.ar      1 <0>        -0.1118
     17 C11        -4.9804    0.9023    8.8081 C.ar      1 <0>        -0.0279
     18 C12        -4.5560   -0.1907    8.0758 C.ar      1 <0>        -0.1357
     19 C13        -3.8880   -0.0071    6.8791 C.ar      1 <0>         0.1522
     20 F1         -3.4787   -1.0755    6.1606 F         1 <0>        -0.1235
     21 H2         -0.7105    5.1763    3.2618 H         1 <0>         0.0973
     22 H3         -1.6221    5.3016    1.7381 H         1 <0>         0.1220
     23 H4         -2.4840    5.0248    3.2707 H         1 <0>         0.0901
     24 H5          0.0021   -0.0041    0.0020 H         1 <0>         0.1140
     25 H6          1.0099    1.4631    0.0003 H         1 <0>         0.0956
     26 H7         -0.5399    1.4469   -0.8751 H         1 <0>         0.0957
     27 H8         -3.8752    3.3883    6.8117 H         1 <0>         0.1455
     28 H9         -5.0694    3.0354    8.9312 H         1 <0>         0.1586
     29 H10        -5.5058    0.7536    9.7400 H         1 <0>         0.1597
     30 H11        -4.7506   -1.1898    8.4367 H         1 <0>         0.1642
     31 N4         -2.6275    2.6669    4.6110 N.pl3     1 <0>        -0.4932
     32 H12        -2.8681    3.5769    5.0211 H         1 <0>         0.4826
@<TRIPOS>BOND
     1    1    2 1
     2    1   21 1
     3    1   22 1
     4    1   23 1
     5    2    8 am
     6    2    3 1
     7    3    4 2
     8    3   31 1
     9    4    5 1
    10    4   11 1
    11    5    6 2
    12    5    7 am
    13    7    8 am
    14    7   10 1
    15    8    9 2
    16   10   24 1
    17   10   25 1
    18   10   26 1
    19   11   12 1
    20   11   13 1
    21   13   14 1
    22   13   31 2
    23   14   19 ar
    24   14   15 ar
    25   15   16 ar
    26   15   27 1
    27   16   17 ar
    28   16   28 1
    29   17   18 ar
    30   17   29 1
    31   18   19 ar
    32   18   30 1
    33   19   20 1
    34   31   32 1
@<TRIPOS>MOLECULE
ZINC03995998
   45    48     0     0     0
SMALL
USER_CHARGES

@<TRIPOS>ATOM
      1 C1         -0.0164    1.3592    0.0095 C.2       1 <0>         0.2681
      2 N1          1.2005    1.8201    0.0004 N.2       1 <0>        -0.4560
      3 C2          2.0747    0.7850   -0.0135 C.ar      1 <0>        -0.1042
      4 C3          3.4758    0.6753   -0.0279 C.ar      1 <0>         0.5230
      5 N2          4.0162   -0.5385   -0.0400 N.ar      1 <0>        -0.5725
      6 C4          3.2613   -1.6237   -0.0386 C.ar      1 <0>         0.4317
      7 N3          1.9451   -1.5686   -0.0258 N.ar      1 <0>        -0.5360
      8 C5          1.3163   -0.3974   -0.0126 C.ar      1 <0>         0.3255
      9 N4          0.0021   -0.0041    0.0020 N.pl3     1 <0>        -0.4679
     10 C6         -1.1670   -0.8869    0.0084 C.3       1 <0>         0.3123
     11 H1         -0.9746   -1.7745   -0.5943 H         1 <0>         0.1247
     12 C7         -1.5302   -1.2878    1.4554 C.3       1 <0>         0.0792
     13 H2         -1.1596   -0.5452    2.1620 H         1 <0>         0.0858
     14 C8         -3.0750   -1.3163    1.4606 C.3       1 <0>         0.0477
     15 H3         -3.4681   -0.5878    2.1697 H         1 <0>         0.0875
     16 C9         -3.4624   -0.9293    0.0161 C.3       1 <0>         0.0503
     17 H4         -3.6240   -1.8235   -0.5860 H         1 <0>         0.1007
     18 O1         -2.3291   -0.1859   -0.4855 O.3       1 <0>        -0.3461
     19 C10        -4.7182   -0.0553    0.0175 C.3       1 <0>         0.0822
     20 O2         -5.1260    0.1947   -1.3291 O.3       1 <0>        -0.5634
     21 O3         -3.5506   -2.6266    1.7754 O.3       1 <0>        -0.5383
     22 O4         -1.0018   -2.5790    1.7649 O.3       1 <0>        -0.5248
     23 Cl1         4.0328   -3.1787   -0.0548 Cl        1 <0>         0.0350
     24 N5          4.2743    1.8056   -0.0299 N.pl3     1 <0>        -0.6800
     25 C11         5.7331    1.6718   -0.0450 C.3       1 <0>         0.1431
     26 C12         6.2685    1.5615    1.3975 C.3       1 <0>        -0.1342
     27 C13         7.6011    2.3504    1.3694 C.3       1 <0>        -0.1246
     28 C14         7.2728    3.5428    0.4369 C.3       1 <0>        -0.1247
     29 C15         6.3716    2.9316   -0.6558 C.3       1 <0>        -0.1333
     30 H5         -0.9091    1.9668    0.0254 H         1 <0>         0.2263
     31 H6         -5.5183   -0.5696    0.5499 H         1 <0>         0.0674
     32 H7         -4.5017    0.8911    0.5131 H         1 <0>         0.0611
     33 H8         -5.9182    0.7441   -1.4046 H         1 <0>         0.3870
     34 H9         -4.5145   -2.7016    1.7924 H         1 <0>         0.3876
     35 H10        -1.2003   -2.8805    2.6620 H         1 <0>         0.3912
     36 H11         3.8680    2.6864   -0.0214 H         1 <0>         0.4194
     37 H12         6.0211    0.7913   -0.6193 H         1 <0>         0.1002
     38 H13         5.5702    2.0171    2.0996 H         1 <0>         0.0683
     39 H14         6.4480    0.5187    1.6591 H         1 <0>         0.0746
     40 H15         7.8634    2.7014    2.3675 H         1 <0>         0.0690
     41 H16         8.4019    1.7413    0.9502 H         1 <0>         0.0711
     42 H17         6.7367    4.3184    0.9838 H         1 <0>         0.0670
     43 H18         8.1852    3.9459   -0.0025 H         1 <0>         0.0696
     44 H19         6.9702    2.6623   -1.5260 H         1 <0>         0.0780
     45 H20         5.5961    3.6424   -0.9410 H         1 <0>         0.0717
@<TRIPOS>BOND
     1    1    9 1
     2    1    2 2
     3    1   30 1
     4    2    3 1
     5    3    8 ar
     6    3    4 ar
     7    4    5 ar
     8    4   24 1
     9    5    6 ar
    10    6    7 ar
    11    6   23 1
    12    7    8 ar
    13    8    9 1
    14    9   10 1
    15   10   11 1
    16   10   18 1
    17   10   12 1
    18   12   13 1
    19   12   14 1
    20   12   22 1
    21   14   15 1
    22   14   16 1
    23   14   21 1
    24   16   17 1
    25   16   18 1
    26   16   19 1
    27   19   20 1
    28   19   31 1
    29   19   32 1
    30   20   33 1
    31   21   34 1
    32   22   35 1
    33   24   25 1
    34   24   36 1
    35   25   29 1
    36   25   26 1
    37   25   37 1
    38   26   27 1
    39   26   38 1
    40   26   39 1
    41   27   28 1
    42   27   40 1
    43   27   41 1
    44   28   29 1
    45   28   42 1
    46   28   43 1
    47   29   44 1
    48   29   45 1
@<TRIPOS>MOLECULE
ZINC03875976
   32    34     0     0     0
SMALL
USER_CHARGES

@<TRIPOS>ATOM
      1 C1         -0.0164    1.3592    0.0095 C.2       1 <0>         0.2702
      2 N1          1.2005    1.8201    0.0004 N.2       1 <0>        -0.4560
      3 C2          2.0747    0.7850   -0.0135 C.ar      1 <0>        -0.1052
      4 C3          3.4758    0.6753   -0.0279 C.ar      1 <0>         0.5255
      5 N2          4.0162   -0.5385   -0.0400 N.ar      1 <0>        -0.5767
      6 C4          3.2613   -1.6237   -0.0386 C.ar      1 <0>         0.4320
      7 N3          1.9451   -1.5686   -0.0258 N.ar      1 <0>        -0.5333
      8 C5          1.3163   -0.3974   -0.0126 C.ar      1 <0>         0.3255
      9 N4          0.0021   -0.0041    0.0020 N.pl3     1 <0>        -0.4676
     10 C6         -1.1670   -0.8869    0.0084 C.3       1 <0>         0.3117
     11 H1         -0.9746   -1.7745   -0.5943 H         1 <0>         0.1253
     12 C7         -1.5302   -1.2878    1.4554 C.3       1 <0>         0.0789
     13 H2         -1.1596   -0.5452    2.1620 H         1 <0>         0.0861
     14 C8         -3.0750   -1.3163    1.4606 C.3       1 <0>         0.0478
     15 H3         -3.4681   -0.5878    2.1697 H         1 <0>         0.0878
     16 C9         -3.4624   -0.9293    0.0161 C.3       1 <0>         0.0503
     17 H4         -3.6240   -1.8235   -0.5860 H         1 <0>         0.1010
     18 O1         -2.3291   -0.1859   -0.4855 O.3       1 <0>        -0.3461
     19 C10        -4.7182   -0.0553    0.0175 C.3       1 <0>         0.0821
     20 O2         -5.1260    0.1947   -1.3291 O.3       1 <0>        -0.5635
     21 O3         -3.5506   -2.6266    1.7754 O.3       1 <0>        -0.5383
     22 O4         -1.0018   -2.5790    1.7649 O.3       1 <0>        -0.5249
     23 Cl1         4.0328   -3.1787   -0.0548 Cl        1 <0>         0.0376
     24 N5          4.2743    1.8056   -0.0299 N.pl3     1 <0>        -0.8093
     25 H5         -0.9091    1.9668    0.0254 H         1 <0>         0.2274
     26 H6         -5.5183   -0.5696    0.5499 H         1 <0>         0.0675
     27 H7         -4.5017    0.8911    0.5131 H         1 <0>         0.0612
     28 H8         -5.9182    0.7441   -1.4046 H         1 <0>         0.3871
     29 H9         -4.5145   -2.7016    1.7924 H         1 <0>         0.3877
     30 H10        -1.2003   -2.8805    2.6620 H         1 <0>         0.3915
     31 H11         3.8680    2.6864   -0.0214 H         1 <0>         0.4227
     32 H12         5.2402    1.7170   -0.0399 H         1 <0>         0.4141
@<TRIPOS>BOND
     1    1    9 1
     2    1    2 2
     3    1   25 1
     4    2    3 1
     5    3    8 ar
     6    3    4 ar
     7    4    5 ar
     8    4   24 1
     9    5    6 ar
    10    6    7 ar
    11    6   23 1
    12    7    8 ar
    13    8    9 1
    14    9   10 1
    15   10   11 1
    16   10   18 1
    17   10   12 1
    18   12   13 1
    19   12   14 1
    20   12   22 1
    21   14   15 1
    22   14   16 1
    23   14   21 1
    24   16   17 1
    25   16   18 1
    26   16   19 1
    27   19   20 1
    28   19   26 1
    29   19   27 1
    30   20   28 1
    31   21   29 1
    32   22   30 1
    33   24   31 1
    34   24   32 1
@<TRIPOS>MOLECULE
ZINC13832607
   55    58     0     0     0
SMALL
USER_CHARGES
3-[2-(4-aminophenyl)ethyl]-8-cyclopentyl-1-propyl-7H-purine-2,6-dione
@<TRIPOS>ATOM
      1 C1         -0.0187    1.5258    0.0104 C.3       1 <0>        -0.1473
      2 C2          0.0021   -0.0041    0.0020 C.3       1 <0>        -0.1376
      3 C3         -1.4333   -0.5336    0.0129 C.3       1 <0>         0.1139
      4 N1         -1.4134   -1.9985    0.0048 N.am      1 <0>        -0.5487
      5 C4         -1.3932   -2.6693    1.1754 C.2       1 <0>         0.5940
      6 O1         -1.3914   -2.0640    2.2324 O.2       1 <0>        -0.5135
      7 C5         -1.3746   -4.0806    1.1608 C.2       1 <0>        -0.1549
      8 C6         -1.3776   -4.7450   -0.0593 C.2       1 <0>         0.3251
      9 N2         -1.3581   -6.0543    0.2029 N.2       1 <0>        -0.4906
     10 C7         -1.3433   -6.2471    1.4972 C.2       1 <0>         0.3071
     11 N3         -1.3526   -5.0597    2.1337 N.pl3     1 <0>        -0.5165
     12 H1         -1.3450   -4.9151    3.1232 H         1 <0>         0.4407
     13 C8         -1.3186   -7.5937    2.1734 C.3       1 <0>        -0.0163
     14 C9         -2.0939   -7.5304    3.5056 C.3       1 <0>        -0.1241
     15 C10        -1.2812   -8.4406    4.4608 C.3       1 <0>        -0.1244
     16 C11         0.1836   -8.1393    4.0575 C.3       1 <0>        -0.1287
     17 C12         0.1288   -7.9811    2.5239 C.3       1 <0>        -0.1170
     18 N4         -1.3988   -3.9992   -1.2268 N.am      1 <0>        -0.5074
     19 C13        -1.4212   -2.6542   -1.1685 C.2       1 <0>         0.7070
     20 O2         -1.4443   -2.0165   -2.2037 O.2       1 <0>        -0.5287
     21 C14        -1.4029   -4.6751   -2.5265 C.3       1 <0>         0.1255
     22 C15        -2.8466   -4.9291   -2.9647 C.3       1 <0>        -0.0834
     23 C16        -2.8508   -5.6244   -4.3017 C.ar      1 <0>        -0.1428
     24 C17        -2.8776   -4.8797   -5.4665 C.ar      1 <0>        -0.0608
     25 C18        -2.8758   -5.5136   -6.6935 C.ar      1 <0>        -0.1978
     26 C19        -2.8585   -6.9011   -6.7566 C.ar      1 <0>         0.2152
     27 C20        -2.8372   -7.6463   -5.5844 C.ar      1 <0>        -0.1982
     28 C21        -2.8335   -7.0059   -4.3609 C.ar      1 <0>        -0.0607
     29 N5         -2.8619   -7.5456   -7.9957 N.pl3     1 <0>        -0.8797
     30 H2          1.0039    1.9031    0.0027 H         1 <0>         0.0612
     31 H3         -0.5459    1.8868   -0.8726 H         1 <0>         0.0598
     32 H4         -0.5289    1.8773    0.9072 H         1 <0>         0.0587
     33 H5          0.5123   -0.3556   -0.8948 H         1 <0>         0.0693
     34 H6          0.5293   -0.3651    0.8851 H         1 <0>         0.0669
     35 H7         -1.9435   -0.1821    0.9097 H         1 <0>         0.1009
     36 H8         -1.9605   -0.1726   -0.8702 H         1 <0>         0.1034
     37 H9         -1.7591   -8.3472    1.5205 H         1 <0>         0.1172
     38 H10        -2.1203   -6.5083    3.8834 H         1 <0>         0.0624
     39 H11        -3.1049   -7.9169    3.3773 H         1 <0>         0.0821
     40 H12        -1.5208   -9.4901    4.2902 H         1 <0>         0.0759
     41 H13        -1.4597   -8.1666    5.5006 H         1 <0>         0.0735
     42 H14         0.8335   -8.9700    4.3323 H         1 <0>         0.0739
     43 H15         0.5255   -7.2155    4.5243 H         1 <0>         0.0665
     44 H16         0.3904   -8.9230    2.0418 H         1 <0>         0.0818
     45 H17         0.8133   -7.1951    2.2049 H         1 <0>         0.0684
     46 H18        -0.9044   -4.0466   -3.2645 H         1 <0>         0.1006
     47 H19        -0.8758   -5.6256   -2.4433 H         1 <0>         0.0994
     48 H20        -3.3450   -5.5576   -2.2267 H         1 <0>         0.0744
     49 H21        -3.3736   -3.9786   -3.0478 H         1 <0>         0.0744
     50 H22        -2.8959   -3.8010   -5.4167 H         1 <0>         0.1226
     51 H23        -2.8924   -4.9312   -7.6029 H         1 <0>         0.1194
     52 H24        -2.8241   -8.7253   -5.6299 H         1 <0>         0.1193
     53 H25        -2.8166   -7.5847   -3.4492 H         1 <0>         0.1226
     54 H26        -2.8494   -8.5146   -8.0385 H         1 <0>         0.3979
     55 H27        -2.8767   -7.0242   -8.8135 H         1 <0>         0.3980
@<TRIPOS>BOND
     1    1    2 1
     2    1   30 1
     3    1   31 1
     4    1   32 1
     5    2    3 1
     6    2   33 1
     7    2   34 1
     8    3    4 1
     9    3   35 1
    10    3   36 1
    11    4   19 am
    12    4    5 am
    13    5    6 2
    14    5    7 1
    15    7   11 1
    16    7    8 2
    17    8    9 1
    18    8   18 1
    19    9   10 2
    20   10   11 1
    21   10   13 1
    22   11   12 1
    23   13   17 1
    24   13   14 1
    25   13   37 1
    26   14   15 1
    27   14   38 1
    28   14   39 1
    29   15   16 1
    30   15   40 1
    31   15   41 1
    32   16   17 1
    33   16   42 1
    34   16   43 1
    35   17   44 1
    36   17   45 1
    37   18   19 am
    38   18   21 1
    39   19   20 2
    40   21   22 1
    41   21   46 1
    42   21   47 1
    43   22   23 1
    44   22   48 1
    45   22   49 1
    46   23   28 ar
    47   23   24 ar
    48   24   25 ar
    49   24   50 1
    50   25   26 ar
    51   25   51 1
    52   26   27 ar
    53   26   29 1
    54   27   28 ar
    55   27   52 1
    56   28   53 1
    57   29   54 1
    58   29   55 1
@<TRIPOS>MOLECULE
ZINC00159215
   40    43     0     0     0
SMALL
USER_CHARGES

@<TRIPOS>ATOM
      1 C1          0.0090    1.5031    0.0071 C.3       1 <0>        -0.1151
      2 C2          0.0220   -0.0038   -0.0003 C.ar      1 <0>        -0.0965
      3 C3          0.7697   -0.6919    0.9377 C.ar      1 <0>        -0.1018
      4 C4          0.7838   -2.0729    0.9338 C.ar      1 <0>        -0.1037
      5 C5          0.0457   -2.7707   -0.0138 C.ar      1 <0>         0.1365
      6 C6         -0.7043   -2.0764   -0.9545 C.ar      1 <0>        -0.1369
      7 C7         -0.7184   -0.6955   -0.9414 C.ar      1 <0>        -0.1013
      8 N1          0.0581   -4.1684   -0.0209 N.pl3     1 <0>        -0.6237
      9 C8          0.1775   -4.8648    1.1677 C.ar      1 <0>         0.5304
     10 C9          0.3091   -6.2686    1.1709 C.ar      1 <0>        -0.1625
     11 C10         0.4270   -6.9169    2.4127 C.ar      1 <0>         0.3407
     12 N2          0.4103   -6.1905    3.5273 N.ar      1 <0>        -0.5583
     13 C11         0.2853   -4.8821    3.4736 C.ar      1 <0>         0.3924
     14 N3          0.1765   -4.2264    2.3319 N.ar      1 <0>        -0.5820
     15 N4          0.5386   -8.2505    2.1341 N.pl3     1 <0>        -0.3716
     16 N5          0.4856   -8.3746    0.7374 N.2       1 <0>        -0.0004
     17 N6          0.3524   -7.2074    0.2104 N.2       1 <0>        -0.1873
     18 C12         0.6849   -9.3383    3.1045 C.3       1 <0>         0.1760
     19 C13        -0.6781   -9.8431    3.5025 C.ar      1 <0>        -0.1276
     20 C14        -1.3384   -9.2766    4.5767 C.ar      1 <0>        -0.0900
     21 C15        -2.5886   -9.7397    4.9418 C.ar      1 <0>        -0.1242
     22 C16        -3.1788  -10.7690    4.2324 C.ar      1 <0>        -0.1046
     23 C17        -2.5188  -11.3349    3.1577 C.ar      1 <0>        -0.1243
     24 C18        -1.2704  -10.8689    2.7899 C.ar      1 <0>        -0.0909
     25 H1         -0.7981    1.8564    0.6488 H         1 <0>         0.0708
     26 H2          0.9621    1.8728    0.3853 H         1 <0>         0.0667
     27 H3         -0.1462    1.8701   -1.0074 H         1 <0>         0.0661
     28 H4          1.3436   -0.1487    1.6739 H         1 <0>         0.1266
     29 H5          1.3683   -2.6096    1.6664 H         1 <0>         0.1380
     30 H6         -1.2792   -2.6159   -1.6926 H         1 <0>         0.1258
     31 H7         -1.3051   -0.1551   -1.6696 H         1 <0>         0.1269
     32 H8         -0.0171   -4.6498   -0.8596 H         1 <0>         0.4292
     33 H9          0.2755   -4.3226    4.3974 H         1 <0>         0.2141
     34 H10         1.2566  -10.1508    2.6561 H         1 <0>         0.1142
     35 H11         1.2079   -8.9699    3.9870 H         1 <0>         0.1139
     36 H12        -0.8773   -8.4725    5.1310 H         1 <0>         0.1294
     37 H13        -3.1042   -9.2976    5.7816 H         1 <0>         0.1262
     38 H14        -4.1553  -11.1313    4.5181 H         1 <0>         0.1254
     39 H15        -2.9797  -12.1392    2.6036 H         1 <0>         0.1266
     40 H16        -0.7564  -11.3085    1.9479 H         1 <0>         0.1269
@<TRIPOS>BOND
     1    1    2 1
     2    1   25 1
     3    1   26 1
     4    1   27 1
     5    2    7 ar
     6    2    3 ar
     7    3    4 ar
     8    3   28 1
     9    4    5 ar
    10    4   29 1
    11    5    6 ar
    12    5    8 1
    13    6    7 ar
    14    6   30 1
    15    7   31 1
    16    8    9 1
    17    8   32 1
    18    9   14 ar
    19    9   10 ar
    20   10   17 1
    21   10   11 ar
    22   11   12 ar
    23   11   15 1
    24   12   13 ar
    25   13   14 ar
    26   13   33 1
    27   15   16 1
    28   15   18 1
    29   16   17 2
    30   18   19 1
    31   18   34 1
    32   18   35 1
    33   19   24 ar
    34   19   20 ar
    35   20   21 ar
    36   20   36 1
    37   21   22 ar
    38   21   37 1
    39   22   23 ar
    40   22   38 1
    41   23   24 ar
    42   23   39 1
    43   24   40 1
@<TRIPOS>MOLECULE
ZINC13491993
   28    30     0     0     0
SMALL
USER_CHARGES
7-methyl-2-phenyl-imidazo[2,1-f][1,3,5]triazin-4-amine
@<TRIPOS>ATOM
      1 C1          7.0724    6.9890   -0.0265 C.3       1 <0>        -0.0758
      2 C2          6.3665    5.6576   -0.0266 C.2       1 <0>         0.0847
      3 C3          6.9663    4.4497   -0.0379 C.2       1 <0>        -0.1031
      4 N1          5.9715    3.5067   -0.0341 N.pl3     1 <0>        -0.4670
      5 C4          5.9689    2.1391   -0.0416 C.2       1 <0>         0.6455
      6 N2          4.8183    1.4933   -0.0292 N.2       1 <0>        -0.5887
      7 C5          3.6587    2.1624   -0.0209 C.2       1 <0>         0.4371
      8 N3          3.6295    3.4838   -0.0140 N.2       1 <0>        -0.5101
      9 C6          4.7746    4.1833   -0.0203 C.2       1 <0>         0.4423
     10 N4          5.0397    5.4776   -0.0161 N.2       1 <0>        -0.4705
     11 C7          2.3842    1.4073   -0.0132 C.ar      1 <0>        -0.0536
     12 C8          1.1671    2.0881    0.0021 C.ar      1 <0>        -0.0614
     13 C9         -0.0167    1.3792    0.0096 C.ar      1 <0>        -0.1309
     14 C10         0.0021   -0.0041    0.0020 C.ar      1 <0>        -0.0915
     15 C11         1.2062   -0.6851   -0.0127 C.ar      1 <0>        -0.1332
     16 C12         2.3966    0.0127   -0.0204 C.ar      1 <0>        -0.0638
     17 N5          7.1502    1.4460   -0.0549 N.pl3     1 <0>        -0.8026
     18 H1          7.2519    7.3050    1.0012 H         1 <0>         0.0804
     19 H2          8.0243    6.8956   -0.5493 H         1 <0>         0.0784
     20 H3          6.4518    7.7294   -0.5311 H         1 <0>         0.0806
     21 H4          8.0297    4.2610   -0.0481 H         1 <0>         0.1863
     22 H5          1.1512    3.1680    0.0085 H         1 <0>         0.1403
     23 H6         -0.9598    1.9054    0.0170 H         1 <0>         0.1308
     24 H7         -0.9271   -0.5546    0.0080 H         1 <0>         0.1273
     25 H8          1.2145   -1.7650   -0.0186 H         1 <0>         0.1297
     26 H9          3.3360   -0.5201   -0.0323 H         1 <0>         0.1369
     27 H10         7.9936    1.9250   -0.0590 H         1 <0>         0.4194
     28 H11         7.1433    0.4760   -0.0602 H         1 <0>         0.4327
@<TRIPOS>BOND
     1    1    2 1
     2    1   18 1
     3    1   19 1
     4    1   20 1
     5    2   10 1
     6    2    3 2
     7    3    4 1
     8    3   21 1
     9    4    9 1
    10    4    5 1
    11    5    6 2
    12    5   17 1
    13    6    7 1
    14    7    8 2
    15    7   11 1
    16    8    9 1
    17    9   10 2
    18   11   16 ar
    19   11   12 ar
    20   12   13 ar
    21   12   22 1
    22   13   14 ar
    23   13   23 1
    24   14   15 ar
    25   14   24 1
    26   15   16 ar
    27   15   25 1
    28   16   26 1
    29   17   27 1
    30   17   28 1
@<TRIPOS>MOLECULE
ZINC13491993
   29    31     0     0     0
SMALL
USER_CHARGES
7-methyl-2-phenyl-imidazo[2,1-f][1,3,5]triazin-4-amine
@<TRIPOS>ATOM
      1 C1          7.0724    6.9890   -0.0265 C.3       1 <0>        -0.1040
      2 C2          6.3665    5.6576   -0.0266 C.2       1 <0>         0.1104
      3 C3          6.9663    4.4497   -0.0379 C.2       1 <0>        -0.0319
      4 N1          5.9715    3.5067   -0.0341 N.pl3     1 <0>        -0.4552
      5 C4          5.9689    2.1391   -0.0416 C.2       1 <0>         0.6754
      6 N2          4.8183    1.4933   -0.0292 N.2       1 <0>        -0.5627
      7 C5          3.6587    2.1624   -0.0209 C.2       1 <0>         0.5182
      8 N3          3.6295    3.4838   -0.0140 N.2       1 <0>        -0.5406
      9 C6          4.7746    4.1833   -0.0203 C.cat     1 <0>         0.5546
     10 C7          2.3842    1.4073   -0.0132 C.ar      1 <0>        -0.0937
     11 C8          1.1671    2.0881    0.0021 C.ar      1 <0>        -0.0451
     12 C9         -0.0167    1.3792    0.0096 C.ar      1 <0>        -0.1314
     13 C10         0.0021   -0.0041    0.0020 C.ar      1 <0>        -0.0610
     14 C11         1.2062   -0.6851   -0.0127 C.ar      1 <0>        -0.1311
     15 C12         2.3966    0.0127   -0.0204 C.ar      1 <0>        -0.0443
     16 N4          7.1502    1.4460   -0.0549 N.pl3     1 <0>        -0.7676
     17 H1          7.2519    7.3050    1.0012 H         1 <0>         0.1083
     18 H2          8.0243    6.8956   -0.5493 H         1 <0>         0.1121
     19 H3          6.4518    7.7294   -0.5311 H         1 <0>         0.0979
     20 H4          8.0297    4.2610   -0.0481 H         1 <0>         0.2254
     21 H5          1.1512    3.1680    0.0085 H         1 <0>         0.1418
     22 H6         -0.9598    1.9054    0.0170 H         1 <0>         0.1401
     23 H7         -0.9271   -0.5546    0.0080 H         1 <0>         0.1383
     24 H8          1.2145   -1.7650   -0.0186 H         1 <0>         0.1404
     25 H9          3.3360   -0.5201   -0.0323 H         1 <0>         0.1426
     26 H10         7.9936    1.9250   -0.0590 H         1 <0>         0.4312
     27 H11         7.1433    0.4760   -0.0602 H         1 <0>         0.4503
     28 N5          5.0404    5.4768   -0.0161 N.pl3     1 <0>        -0.5027
     29 H12         4.3393    6.2268   -0.0063 H         1 <0>         0.4841
@<TRIPOS>BOND
     1    1    2 1
     2    1   17 1
     3    1   18 1
     4    1   19 1
     5    2    3 2
     6    2   28 1
     7    3    4 1
     8    3   20 1
     9    4    9 1
    10    4    5 1
    11    5    6 2
    12    5   16 1
    13    6    7 1
    14    7    8 2
    15    7   10 1
    16    8    9 1
    17    9   28 2
    18   10   15 ar
    19   10   11 ar
    20   11   12 ar
    21   11   21 1
    22   12   13 ar
    23   12   22 1
    24   13   14 ar
    25   13   23 1
    26   14   15 ar
    27   14   24 1
    28   15   25 1
    29   16   26 1
    30   16   27 1
    31   28   29 1
@<TRIPOS>MOLECULE
ZINC13472700
   35    37     0     0     0
SMALL
USER_CHARGES
(2R,3R,4R,5R)-2-(6-aminopurin-9-yl)-5-(hydroxymethyl)-3-methyl-tetrahydrofuran-3,4-diol
@<TRIPOS>ATOM
      1 C1          2.0740    1.1332   -1.2415 C.3       1 <0>        -0.1733
      2 C2          1.2864    1.5618   -0.0018 C.3       1 <0>         0.1041
      3 C3          2.0629    1.2175    1.2924 C.3       1 <0>         0.0500
      4 H1          2.7960    0.4340    1.1005 H         1 <0>         0.0885
      5 C4          2.7676    2.5344    1.6716 C.3       1 <0>         0.0531
      6 H2          2.4046    2.8841    2.6381 H         1 <0>         0.0993
      7 O1          2.4505    3.4975    0.6528 O.3       1 <0>        -0.3473
      8 C5          1.1833    3.1060    0.0814 C.3       1 <0>         0.3220
      9 H3          0.3611    3.4013    0.7333 H         1 <0>         0.1229
     10 N1          1.0178    3.6848   -1.2543 N.pl3     1 <0>        -0.4681
     11 C6          2.0114    4.1687   -2.0524 C.2       1 <0>         0.2733
     12 N2          1.5099    4.6068   -3.1705 N.2       1 <0>        -0.4544
     13 C7          0.1665    4.4323   -3.1612 C.ar      1 <0>        -0.0684
     14 C8         -0.1648    3.8336   -1.9337 C.ar      1 <0>         0.3050
     15 N3         -1.4386    3.5605   -1.6713 N.ar      1 <0>        -0.5231
     16 C9         -2.3788    3.8359   -2.5507 C.ar      1 <0>         0.3450
     17 N4         -2.1157    4.3931   -3.7185 N.ar      1 <0>        -0.5738
     18 C10        -0.8720    4.7070   -4.0669 C.ar      1 <0>         0.4460
     19 N5         -0.6061    5.2904   -5.2933 N.pl3     1 <0>        -0.7439
     20 C11         4.2807    2.3160    1.7326 C.3       1 <0>         0.0773
     21 O2          4.9159    3.5088    2.1971 O.3       1 <0>        -0.5626
     22 O3          1.1608    0.8146    2.3248 O.3       1 <0>        -0.5362
     23 O4         -0.0110    0.9628    0.0073 O.3       1 <0>        -0.5163
     24 H4          1.5437    1.4544   -2.1380 H         1 <0>         0.0735
     25 H5          3.0627    1.5916   -1.2203 H         1 <0>         0.0756
     26 H6          2.1768    0.0480   -1.2495 H         1 <0>         0.0746
     27 H7          3.0601    4.1861   -1.7947 H         1 <0>         0.2243
     28 H8         -3.4036    3.5967   -2.3080 H         1 <0>         0.2064
     29 H9         -0.1762    6.1822   -5.1520 H         1 <0>         0.3695
     30 H10        -1.3316    5.4751   -5.9100 H         1 <0>         0.3734
     31 H11         4.5023    1.4965    2.4163 H         1 <0>         0.0665
     32 H12         4.6527    2.0700    0.7380 H         1 <0>         0.0590
     33 H13         5.8785    3.4426    2.2607 H         1 <0>         0.3864
     34 H14         1.5939    0.5871    3.1589 H         1 <0>         0.3864
     35 H15         0.0021   -0.0041    0.0020 H         1 <0>         0.3853
@<TRIPOS>BOND
     1    1    2 1
     2    1   24 1
     3    1   25 1
     4    1   26 1
     5    2    8 1
     6    2    3 1
     7    2   23 1
     8    3    4 1
     9    3    5 1
    10    3   22 1
    11    5    6 1
    12    5    7 1
    13    5   20 1
    14    7    8 1
    15    8    9 1
    16    8   10 1
    17   10   14 1
    18   10   11 1
    19   11   12 2
    20   11   27 1
    21   12   13 1
    22   13   18 ar
    23   13   14 ar
    24   14   15 ar
    25   15   16 ar
    26   16   17 ar
    27   16   28 1
    28   17   18 ar
    29   18   19 1
    30   19   29 1
    31   19   30 1
    32   20   21 1
    33   20   31 1
    34   20   32 1
    35   21   33 1
    36   22   34 1
    37   23   35 1
@<TRIPOS>MOLECULE
ZINC03985981
   43    46     0     0     0
SMALL
USER_CHARGES
2-(hydroxymethyl)-5-(6-tetrahydrofuran-3-ylaminopurin-9-yl)-tetrahydrofuran-3,4-diol
@<TRIPOS>ATOM
      1 C1          1.2006    8.5720    3.9933 C.ar      1 <0>         0.3453
      2 N1          1.0802    8.4094    5.2985 N.ar      1 <0>        -0.5698
      3 C2          0.9608    7.1987    5.8330 C.ar      1 <0>         0.4405
      4 C3          0.9650    6.0848    4.9759 C.ar      1 <0>        -0.0655
      5 C4          1.0960    6.3107    3.5955 C.ar      1 <0>         0.3051
      6 N2          1.2100    7.5590    3.1531 N.ar      1 <0>        -0.5246
      7 N3          1.0699    5.0724    3.0054 N.pl3     1 <0>        -0.4710
      8 C5          0.9234    4.1498    3.9980 C.2       1 <0>         0.2733
      9 N4          0.8675    4.7455    5.1538 N.2       1 <0>        -0.4539
     10 C6          1.1740    4.7934    1.5710 C.3       1 <0>         0.3149
     11 H1          0.7061    5.5877    0.9894 H         1 <0>         0.1249
     12 C7          2.6565    4.6139    1.1560 C.3       1 <0>         0.0778
     13 H2          3.2174    4.0931    1.9321 H         1 <0>         0.0912
     14 C8          2.5334    3.7412   -0.1206 C.3       1 <0>         0.0457
     15 H3          3.3142    2.9809   -0.1406 H         1 <0>         0.0890
     16 C9          1.1449    3.0852    0.0077 C.3       1 <0>         0.0521
     17 H4          0.5071    3.4032   -0.8170 H         1 <0>         0.0993
     18 O1          0.5793    3.5157    1.2571 O.3       1 <0>        -0.3479
     19 C10         1.2864    1.5618   -0.0018 C.3       1 <0>         0.0768
     20 O2         -0.0110    0.9628    0.0073 O.3       1 <0>        -0.5628
     21 O3          2.5957    4.5548   -1.2938 O.3       1 <0>        -0.5359
     22 O4          3.2577    5.8746    0.8538 O.3       1 <0>        -0.5224
     23 N5          0.8352    7.0383    7.2018 N.pl3     1 <0>        -0.5917
     24 C11         0.8329    8.2112    8.0796 C.3       1 <0>         0.0597
     25 H5          1.4923    8.9840    7.6846 H         1 <0>         0.1105
     26 C12         1.2583    7.8165    9.5116 C.3       1 <0>        -0.1477
     27 C13         0.0298    8.1696   10.3790 C.3       1 <0>         0.0423
     28 O5         -1.0879    8.1414    9.4646 O.3       1 <0>        -0.3744
     29 C14        -0.6019    8.7583    8.2482 C.3       1 <0>         0.0236
     30 H6          1.2952    9.5737    3.6009 H         1 <0>         0.2066
     31 H7          0.8653    3.0819    3.8478 H         1 <0>         0.2257
     32 H8          1.8401    1.2428    0.8812 H         1 <0>         0.0594
     33 H9          1.8231    1.2523   -0.8987 H         1 <0>         0.0668
     34 H10         0.0021   -0.0041    0.0020 H         1 <0>         0.3866
     35 H11         2.4638    4.0669   -2.1182 H         1 <0>         0.3867
     36 H12         4.1858    5.8143    0.5889 H         1 <0>         0.3883
     37 H13        -0.0310    6.5821    7.4058 H         1 <0>         0.3725
     38 H14         1.4704    6.7488    9.5664 H         1 <0>         0.0912
     39 H15         2.1266    8.3959    9.8254 H         1 <0>         0.0870
     40 H16        -0.1050    7.4277   11.1660 H         1 <0>         0.0962
     41 H17         0.1435    9.1638   10.8112 H         1 <0>         0.0632
     42 H18        -0.5845    9.8431    8.3526 H         1 <0>         0.0757
     43 H19        -1.2210    8.4677    7.3995 H         1 <0>         0.0899
@<TRIPOS>BOND
     1    1    6 ar
     2    1    2 ar
     3    1   30 1
     4    2    3 ar
     5    3    4 ar
     6    3   23 1
     7    4    9 1
     8    4    5 ar
     9    5    6 ar
    10    5    7 1
    11    7    8 1
    12    7   10 1
    13    8    9 2
    14    8   31 1
    15   10   11 1
    16   10   18 1
    17   10   12 1
    18   12   13 1
    19   12   14 1
    20   12   22 1
    21   14   15 1
    22   14   16 1
    23   14   21 1
    24   16   17 1
    25   16   18 1
    26   16   19 1
    27   19   20 1
    28   19   32 1
    29   19   33 1
    30   20   34 1
    31   21   35 1
    32   22   36 1
    33   23   24 1
    34   23   37 1
    35   24   25 1
    36   24   29 1
    37   24   26 1
    38   26   27 1
    39   26   38 1
    40   26   39 1
    41   27   28 1
    42   27   40 1
    43   27   41 1
    44   28   29 1
    45   29   42 1
    46   29   43 1
@<TRIPOS>MOLECULE
ZINC13472701
   48    51     0     0     0
SMALL
USER_CHARGES
(2R,3R,4R,5R)-2-[6-(cyclopentylamino)purin-9-yl]-5-(hydroxymethyl)-3-methyl-tetrahydrofuran-3,4-diol
@<TRIPOS>ATOM
      1 C1         -0.4890    0.9397    2.4370 C.3       1 <0>        -0.1728
      2 C2         -0.6332    1.9830    1.3272 C.3       1 <0>         0.1055
      3 C3          0.1987    3.2426    1.6568 C.3       1 <0>         0.0529
      4 H1          0.7127    3.1221    2.6104 H         1 <0>         0.0878
      5 C4          1.2183    3.3324    0.4998 C.3       1 <0>         0.0497
      6 H2          0.8486    3.9969   -0.2811 H         1 <0>         0.0995
      7 O1          1.3291    1.9819    0.0000 O.3       1 <0>        -0.3453
      8 C5         -0.0178    1.4608    0.0101 C.3       1 <0>         0.3188
      9 H3         -0.5765    1.8367   -0.8470 H         1 <0>         0.1226
     10 N1          0.0021   -0.0041    0.0020 N.pl3     1 <0>        -0.4684
     11 C6          1.0268   -0.7992    0.4215 C.2       1 <0>         0.2726
     12 N2          0.7058   -2.0519    0.2762 N.2       1 <0>        -0.4531
     13 C7         -0.5385   -2.1402   -0.2524 C.ar      1 <0>        -0.0669
     14 C8         -1.0049   -0.8272   -0.4347 C.ar      1 <0>         0.3025
     15 N3         -2.2168   -0.6374   -0.9458 N.ar      1 <0>        -0.5289
     16 C9         -2.9726   -1.6626   -1.2788 C.ar      1 <0>         0.3456
     17 N4         -2.5778   -2.9134   -1.1262 N.ar      1 <0>        -0.5673
     18 C10        -1.3820   -3.2011   -0.6226 C.ar      1 <0>         0.4418
     19 N5         -0.9773   -4.5152   -0.4660 N.pl3     1 <0>        -0.5950
     20 C11        -1.8705   -5.6084   -0.8576 C.3       1 <0>         0.0851
     21 C12        -2.8087   -5.9692    0.3126 C.3       1 <0>        -0.1122
     22 C13        -2.9441   -7.5106    0.2286 C.3       1 <0>        -0.1252
     23 C14        -1.5186   -7.9580   -0.1797 C.3       1 <0>        -0.1204
     24 C15        -1.0507   -6.8724   -1.1709 C.3       1 <0>        -0.1284
     25 C16         2.5726    3.8217    1.0170 C.3       1 <0>         0.0823
     26 O2          3.4858    3.9389   -0.0759 O.3       1 <0>        -0.5626
     27 O3         -0.6341    4.4036    1.6816 O.3       1 <0>        -0.5391
     28 O4         -2.0072    2.3262    1.1364 O.3       1 <0>        -0.5219
     29 H4          0.5674    0.7264    2.6001 H         1 <0>         0.0741
     30 H5         -0.9281    1.3251    3.3572 H         1 <0>         0.0738
     31 H6         -1.0035    0.0245    2.1444 H         1 <0>         0.0709
     32 H7          1.9658   -0.4421    0.8181 H         1 <0>         0.2235
     33 H8         -3.9524   -1.4735   -1.6920 H         1 <0>         0.2054
     34 H9         -0.1494   -4.6753   -1.0036 H         1 <0>         0.3670
     35 H10        -2.4561   -5.3175   -1.7297 H         1 <0>         0.0759
     36 H11        -2.3627   -5.6768    1.2632 H         1 <0>         0.0732
     37 H12        -3.7804   -5.4925    0.1833 H         1 <0>         0.0678
     38 H13        -3.6706   -7.7929   -0.5334 H         1 <0>         0.0676
     39 H14        -3.2185   -7.9306    1.1963 H         1 <0>         0.0683
     40 H15        -1.5495   -8.9322   -0.6676 H         1 <0>         0.0672
     41 H16        -0.8638   -7.9871    0.6912 H         1 <0>         0.0689
     42 H17        -1.2391   -7.1954   -2.1947 H         1 <0>         0.0731
     43 H18         0.0118   -6.6722   -1.0323 H         1 <0>         0.0737
     44 H19         2.4497    4.7942    1.4936 H         1 <0>         0.0674
     45 H20         2.9637    3.1084    1.7425 H         1 <0>         0.0606
     46 H21         4.3669    4.2451    0.1789 H         1 <0>         0.3868
     47 H22        -0.1528    5.2299    1.8259 H         1 <0>         0.3871
     48 H23        -2.4434    2.6602    1.9322 H         1 <0>         0.3888
@<TRIPOS>BOND
     1    1    2 1
     2    1   29 1
     3    1   30 1
     4    1   31 1
     5    2    8 1
     6    2    3 1
     7    2   28 1
     8    3    4 1
     9    3    5 1
    10    3   27 1
    11    5    6 1
    12    5    7 1
    13    5   25 1
    14    7    8 1
    15    8    9 1
    16    8   10 1
    17   10   14 1
    18   10   11 1
    19   11   12 2
    20   11   32 1
    21   12   13 1
    22   13   18 ar
    23   13   14 ar
    24   14   15 ar
    25   15   16 ar
    26   16   17 ar
    27   16   33 1
    28   17   18 ar
    29   18   19 1
    30   19   20 1
    31   19   34 1
    32   20   24 1
    33   20   21 1
    34   20   35 1
    35   21   22 1
    36   21   36 1
    37   21   37 1
    38   22   23 1
    39   22   38 1
    40   22   39 1
    41   23   24 1
    42   23   40 1
    43   23   41 1
    44   24   42 1
    45   24   43 1
    46   25   26 1
    47   25   44 1
    48   25   45 1
    49   26   46 1
    50   27   47 1
    51   28   48 1
@<TRIPOS>MOLECULE
ZINC21359557
   31    33     0     0     0
SMALL
USER_CHARGES

@<TRIPOS>ATOM
      1 C1         -0.0127    1.0858    0.0080 C.3       1 <0>         0.0875
      2 N1         -0.7213    1.5711   -1.1789 N.am      1 <0>        -0.5108
      3 C2         -2.0905    1.7830   -1.1291 C.2       1 <0>         0.3287
      4 C3         -2.7390    2.2442   -2.2703 C.2       1 <0>        -0.1403
      5 C4         -1.9864    2.4820   -3.4399 C.2       1 <0>         0.5940
      6 O1         -2.5314    2.8863   -4.4515 O.2       1 <0>        -0.5106
      7 N2         -0.6562    2.2570   -3.4250 N.am      1 <0>        -0.5506
      8 C5         -0.0409    1.8159   -2.3144 C.2       1 <0>         0.7075
      9 O2          1.1604    1.6292   -2.3372 O.2       1 <0>        -0.5267
     10 C6          0.1304    2.5021   -4.6363 C.3       1 <0>         0.0825
     11 N3         -4.0750    2.3633   -1.9402 N.pl3     1 <0>        -0.5116
     12 C7         -4.1947    1.9799   -0.6394 C.2       1 <0>         0.3398
     13 N4         -3.0090    1.6393   -0.1746 N.2       1 <0>        -0.4795
     14 H1         -4.7903    2.6627   -2.5230 H         1 <0>         0.4377
     15 C8         -5.4560    1.9505    0.1310 C.ar      1 <0>        -0.0296
     16 C9         -6.6556    2.3310   -0.4734 C.ar      1 <0>        -0.0838
     17 C10        -7.8293    2.3016    0.2507 C.ar      1 <0>        -0.1075
     18 C11        -7.8200    1.8961    1.5736 C.ar      1 <0>        -0.0680
     19 C12        -6.6343    1.5175    2.1793 C.ar      1 <0>        -0.0930
     20 C13        -5.4536    1.5370    1.4638 C.ar      1 <0>        -0.0372
     21 Br1        -6.6329    0.9650    3.9878 Br        1 <0>        -0.0323
     22 H2          0.0021   -0.0041    0.0020 H         1 <0>         0.0752
     23 H3          1.0099    1.4631    0.0003 H         1 <0>         0.0953
     24 H4         -0.5229    1.4373    0.9048 H         1 <0>         0.0929
     25 H5         -0.5264    2.8571   -5.4305 H         1 <0>         0.1042
     26 H6          0.8906    3.2554   -4.4297 H         1 <0>         0.0838
     27 H7          0.6123    1.5762   -4.9502 H         1 <0>         0.0837
     28 H8         -6.6645    2.6481   -1.5057 H         1 <0>         0.1308
     29 H9         -8.7577    2.5961   -0.2160 H         1 <0>         0.1439
     30 H10        -8.7417    1.8752    2.1360 H         1 <0>         0.1418
     31 H11        -4.5296    1.2371    1.9358 H         1 <0>         0.1523
@<TRIPOS>BOND
     1    1   22 1
     2    1   23 1
     3    1   24 1
     4    1    2 1
     5    2    3 1
     6    2    8 am
     7    3   13 1
     8    3    4 2
     9    4    5 1
    10    4   11 1
    11    5    7 am
    12    5    6 2
    13    7    8 am
    14    7   10 1
    15    8    9 2
    16   10   25 1
    17   10   26 1
    18   10   27 1
    19   11   14 1
    20   11   12 1
    21   12   15 1
    22   12   13 2
    23   15   20 ar
    24   15   16 ar
    25   16   17 ar
    26   16   28 1
    27   17   18 ar
    28   17   29 1
    29   18   19 ar
    30   18   30 1
    31   19   20 ar
    32   19   21 1
    33   20   31 1
@<TRIPOS>MOLECULE
ZINC15974495
   32    34     0     0     0
SMALL
USER_CHARGES

@<TRIPOS>ATOM
      1 C1         -0.0127    1.0858    0.0080 C.3       1 <0>         0.0742
      2 N1         -0.7213    1.5711   -1.1789 N.am      1 <0>        -0.5177
      3 C2         -2.0796    1.7788   -1.1212 C.2       1 <0>         0.2801
      4 C3         -2.7436    2.2403   -2.2535 C.2       1 <0>        -0.0894
      5 C4         -1.9590    2.4860   -3.4657 C.2       1 <0>         0.5956
      6 O1         -2.4935    2.8905   -4.4820 O.2       1 <0>        -0.4771
      7 N2         -0.6290    2.2542   -3.4303 N.am      1 <0>        -0.5544
      8 C5         -0.0346    1.8132   -2.3092 C.2       1 <0>         0.7150
      9 O2          1.1661    1.6216   -2.3184 O.2       1 <0>        -0.5268
     10 C6          0.1778    2.4923   -4.6297 C.3       1 <0>         0.0823
     11 N3         -4.0534    2.3603   -1.9394 N.2       1 <0>        -0.3694
     12 C7         -4.2290    2.0019   -0.6902 C.2       1 <0>         0.2704
     13 N4         -3.0212    1.6341   -0.1510 N.pl3     1 <0>        -0.5531
     14 H1         -2.8676    1.3272    0.7562 H         1 <0>         0.4282
     15 C8         -5.5225    1.9954    0.0245 C.ar      1 <0>        -0.0516
     16 C9         -5.5836    1.5977    1.3606 C.ar      1 <0>        -0.0927
     17 C10        -6.7937    1.5937    2.0223 C.ar      1 <0>        -0.1256
     18 C11        -7.9491    1.9824    1.3661 C.ar      1 <0>        -0.0869
     19 C12        -7.9012    2.3778    0.0429 C.ar      1 <0>        -0.1436
     20 C13        -6.6922    2.3938   -0.6339 C.ar      1 <0>         0.1563
     21 O3         -6.6429    2.7885   -1.9324 O.3       1 <0>        -0.4732
     22 H2          0.0021   -0.0041    0.0020 H         1 <0>         0.0798
     23 H3          1.0099    1.4631    0.0003 H         1 <0>         0.1055
     24 H4         -0.5229    1.4373    0.9048 H         1 <0>         0.0791
     25 H5         -0.4646    2.8488   -5.4349 H         1 <0>         0.1055
     26 H6          0.9386    3.2422   -4.4129 H         1 <0>         0.0830
     27 H7          0.6598    1.5632   -4.9337 H         1 <0>         0.0830
     28 H8         -4.6846    1.2931    1.8758 H         1 <0>         0.1222
     29 H9         -6.8402    1.2857    3.0564 H         1 <0>         0.1328
     30 H10        -8.8929    1.9762    1.8911 H         1 <0>         0.1333
     31 H11        -8.8065    2.6795   -0.4629 H         1 <0>         0.1387
     32 H12        -6.7670    2.0695   -2.5670 H         1 <0>         0.3964
@<TRIPOS>BOND
     1    1   22 1
     2    1   23 1
     3    1   24 1
     4    1    2 1
     5    2    3 1
     6    2    8 am
     7    3   13 1
     8    3    4 2
     9    4    5 1
    10    4   11 1
    11    5    7 am
    12    5    6 2
    13    7    8 am
    14    7   10 1
    15    8    9 2
    16   10   25 1
    17   10   26 1
    18   10   27 1
    19   11   12 2
    20   12   15 1
    21   12   13 1
    22   13   14 1
    23   15   20 ar
    24   15   16 ar
    25   16   17 ar
    26   16   28 1
    27   17   18 ar
    28   17   29 1
    29   18   19 ar
    30   18   30 1
    31   19   20 ar
    32   19   31 1
    33   20   21 1
    34   21   32 1
@<TRIPOS>MOLECULE
ZINC15974495
   31    33     0     0     0
SMALL
USER_CHARGES

@<TRIPOS>ATOM
      1 C1         -0.0127    1.0858    0.0080 C.3       1 <0>         0.0917
      2 N1         -0.7213    1.5711   -1.1789 N.am      1 <0>        -0.5071
      3 C2         -2.0905    1.7830   -1.1292 C.2       1 <0>         0.3187
      4 C3         -2.7388    2.2447   -2.2705 C.2       1 <0>        -0.1923
      5 C4         -1.9867    2.4824   -3.4394 C.2       1 <0>         0.5952
      6 O1         -2.5318    2.8872   -4.4508 O.2       1 <0>        -0.5369
      7 N2         -0.6566    2.2571   -3.4249 N.am      1 <0>        -0.5553
      8 C5         -0.0410    1.8159   -2.3145 C.2       1 <0>         0.7075
      9 O2          1.1603    1.6286   -2.3376 O.2       1 <0>        -0.5514
     10 C6          0.1297    2.5019   -4.6365 C.3       1 <0>         0.0881
     11 N3         -4.0759    2.3642   -1.9402 N.pl3     1 <0>        -0.5457
     12 C7         -4.1953    1.9804   -0.6388 C.2       1 <0>         0.4095
     13 N4         -3.0087    1.6393   -0.1745 N.2       1 <0>        -0.4567
     14 H1         -4.7912    2.6640   -2.5228 H         1 <0>         0.4254
     15 C8         -5.4548    1.9502    0.1309 C.ar      1 <0>        -0.2290
     16 C9         -6.6555    2.3300   -0.4724 C.ar      1 <0>        -0.0373
     17 C10        -7.8283    2.2992    0.2516 C.ar      1 <0>        -0.2604
     18 C11        -7.8213    1.8935    1.5757 C.ar      1 <0>        -0.0548
     19 C12        -6.6401    1.5158    2.1842 C.ar      1 <0>        -0.2528
     20 C13        -5.4528    1.5349    1.4688 C.ar      1 <0>         0.3090
     21 O3         -4.2924    1.1581    2.0639 O.3       1 <0>        -0.6621
     22 H2          0.0021   -0.0041    0.0020 H         1 <0>         0.0690
     23 H3          1.0099    1.4631    0.0003 H         1 <0>         0.0863
     24 H4         -0.5229    1.4373    0.9048 H         1 <0>         0.0964
     25 H5         -0.5274    2.8570   -5.4304 H         1 <0>         0.0993
     26 H6          0.8901    3.2551   -4.4302 H         1 <0>         0.0763
     27 H7          0.6113    1.5759   -4.9504 H         1 <0>         0.0763
     28 H8         -6.6652    2.6477   -1.5045 H         1 <0>         0.0918
     29 H9         -8.7565    2.5931   -0.2158 H         1 <0>         0.0997
     30 H10        -8.7444    1.8726    2.1358 H         1 <0>         0.0978
     31 H11        -6.6422    1.2012    3.2173 H         1 <0>         0.1039
@<TRIPOS>BOND
     1    1   22 1
     2    1   23 1
     3    1   24 1
     4    1    2 1
     5    2    3 1
     6    2    8 am
     7    3   13 1
     8    3    4 2
     9    4    5 1
    10    4   11 1
    11    5    7 am
    12    5    6 2
    13    7    8 am
    14    7   10 1
    15    8    9 2
    16   10   25 1
    17   10   26 1
    18   10   27 1
    19   11   14 1
    20   11   12 1
    21   12   15 1
    22   12   13 2
    23   15   20 ar
    24   15   16 ar
    25   16   17 ar
    26   16   28 1
    27   17   18 ar
    28   17   29 1
    29   18   19 ar
    30   18   30 1
    31   19   20 ar
    32   19   31 1
    33   20   21 1
@<TRIPOS>MOLECULE
ZINC22058213
   46    48     0     0     0
SMALL
USER_CHARGES

@<TRIPOS>ATOM
      1 C1         -0.0187    1.5258    0.0104 C.3       1 <0>        -0.1464
      2 C2          0.0021   -0.0041    0.0020 C.3       1 <0>        -0.1391
      3 C3          0.7421   -0.5109    1.2415 C.3       1 <0>         0.1191
      4 N1          0.7619   -1.9757    1.2335 N.am      1 <0>        -0.5069
      5 C4         -0.2661   -2.6852    1.8352 C.2       1 <0>         0.3263
      6 C5         -0.2232   -4.0756    1.8129 C.2       1 <0>        -0.1520
      7 C6          0.8617   -4.7198    1.1812 C.2       1 <0>         0.5952
      8 O1          0.9214   -5.9360    1.1483 O.2       1 <0>        -0.5132
      9 N2          1.8317   -3.9735    0.6136 N.am      1 <0>        -0.5494
     10 C7          1.7755   -2.6308    0.6370 C.2       1 <0>         0.7089
     11 O2          2.6658   -1.9913    0.1106 O.2       1 <0>        -0.5345
     12 C8          2.9607   -4.6368   -0.0434 C.3       1 <0>         0.1150
     13 C9          2.6270   -4.8707   -1.5181 C.3       1 <0>        -0.1386
     14 C10         3.8061   -5.5634   -2.2042 C.3       1 <0>        -0.1461
     15 N3         -1.3542   -4.5128    2.4747 N.pl3     1 <0>        -0.5150
     16 H1         -1.6140   -5.4345    2.6289 H         1 <0>         0.4373
     17 C11        -2.0336   -3.4010    2.8694 C.2       1 <0>         0.3560
     18 N4         -1.3745   -2.3270    2.4821 N.2       1 <0>        -0.4821
     19 C12        -3.3102   -3.3986    3.6148 C.ar      1 <0>        -0.0252
     20 C13        -3.9134   -4.6044    3.9759 C.ar      1 <0>        -0.1221
     21 C14        -5.1044   -4.5951    4.6719 C.ar      1 <0>        -0.0316
     22 C15        -5.7014   -3.3940    5.0116 C.ar      1 <0>        -0.6327
     23 C16        -5.1088   -2.1952    4.6567 C.ar      1 <0>        -0.0340
     24 C17        -3.9147   -2.1904    3.9656 C.ar      1 <0>        -0.0867
     25 S1         -7.2232   -3.3911    5.8996 S.o2      1 <0>         2.6913
     26 O3         -7.9409   -2.1892    5.5039 O.2       1 <0>        -1.0573
     27 O4         -7.9368   -4.6002    5.5188 O.2       1 <0>        -1.0586
     28 O5         -6.8866   -3.3818    7.3147 O.3       1 <0>        -1.0570
     29 H2          1.0039    1.9031    0.0027 H         1 <0>         0.0572
     30 H3         -0.5459    1.8868   -0.8726 H         1 <0>         0.0598
     31 H4         -0.5289    1.8773    0.9072 H         1 <0>         0.0602
     32 H5         -1.0205   -0.3814    0.0098 H         1 <0>         0.0697
     33 H6          0.5123   -0.3556   -0.8948 H         1 <0>         0.0666
     34 H7          1.7647   -0.1336    1.2338 H         1 <0>         0.0994
     35 H8          0.2319   -0.1594    2.1383 H         1 <0>         0.0999
     36 H9          3.8469   -4.0067    0.0331 H         1 <0>         0.1021
     37 H10         3.1524   -5.5938    0.4420 H         1 <0>         0.1006
     38 H11         1.7409   -5.5008   -1.5946 H         1 <0>         0.0677
     39 H12         2.4353   -3.9137   -2.0034 H         1 <0>         0.0692
     40 H13         4.6922   -4.9333   -2.1277 H         1 <0>         0.0588
     41 H14         3.9978   -6.5204   -1.7188 H         1 <0>         0.0584
     42 H15         3.5683   -5.7300   -3.2548 H         1 <0>         0.0602
     43 H16        -3.4488   -5.5427    3.7108 H         1 <0>         0.1218
     44 H17        -5.5722   -5.5274    4.9520 H         1 <0>         0.1427
     45 H18        -5.5798   -1.2611    4.9249 H         1 <0>         0.1441
     46 H19        -3.4511   -1.2539    3.6928 H         1 <0>         0.1410
@<TRIPOS>BOND
     1    1    2 1
     2    1   29 1
     3    1   30 1
     4    1   31 1
     5    2    3 1
     6    2   32 1
     7    2   33 1
     8    3    4 1
     9    3   34 1
    10    3   35 1
    11    4   10 am
    12    4    5 1
    13    5   18 1
    14    5    6 2
    15    6    7 1
    16    6   15 1
    17    7    8 2
    18    7    9 am
    19    9   10 am
    20    9   12 1
    21   10   11 2
    22   12   13 1
    23   12   36 1
    24   12   37 1
    25   13   14 1
    26   13   38 1
    27   13   39 1
    28   14   40 1
    29   14   41 1
    30   14   42 1
    31   15   16 1
    32   15   17 1
    33   17   18 2
    34   17   19 1
    35   19   24 ar
    36   19   20 ar
    37   20   21 ar
    38   20   43 1
    39   21   22 ar
    40   21   44 1
    41   22   23 ar
    42   22   25 1
    43   23   24 ar
    44   23   45 1
    45   24   46 1
    46   25   26 2
    47   25   27 2
    48   25   28 1
@<TRIPOS>MOLECULE
ZINC12405301
   35    37     0     0     0
SMALL
USER_CHARGES

@<TRIPOS>ATOM
      1 C1         -0.0127    1.0858    0.0080 C.3       1 <0>         0.0896
      2 N1         -0.7213    1.5711   -1.1789 N.am      1 <0>        -0.5102
      3 C2         -2.0905    1.7830   -1.1292 C.2       1 <0>         0.3245
      4 C3         -2.7388    2.2447   -2.2705 C.2       1 <0>        -0.1488
      5 C4         -1.9867    2.4824   -3.4394 C.2       1 <0>         0.5941
      6 O1         -2.5318    2.8872   -4.4508 O.2       1 <0>        -0.5148
      7 N2         -0.6566    2.2571   -3.4249 N.am      1 <0>        -0.5514
      8 C5         -0.0410    1.8159   -2.3145 C.2       1 <0>         0.7073
      9 O2          1.1603    1.6286   -2.3376 O.2       1 <0>        -0.5309
     10 C6          0.1297    2.5019   -4.6365 C.3       1 <0>         0.0832
     11 N3         -4.0759    2.3642   -1.9402 N.pl3     1 <0>        -0.5186
     12 C7         -4.1953    1.9804   -0.6388 C.2       1 <0>         0.3511
     13 N4         -3.0087    1.6393   -0.1745 N.2       1 <0>        -0.4618
     14 H1         -4.7912    2.6640   -2.5228 H         1 <0>         0.4351
     15 C8         -5.4548    1.9502    0.1309 C.ar      1 <0>        -0.0790
     16 C9         -6.6555    2.3300   -0.4724 C.ar      1 <0>        -0.0577
     17 C10        -7.8283    2.2992    0.2516 C.ar      1 <0>        -0.1561
     18 C11        -7.8213    1.8935    1.5757 C.ar      1 <0>        -0.0524
     19 C12        -6.6401    1.5158    2.1842 C.ar      1 <0>        -0.2123
     20 C13        -5.4528    1.5349    1.4688 C.ar      1 <0>         0.1826
     21 O3         -4.2924    1.1581    2.0639 O.3       1 <0>        -0.2780
     22 C14        -4.3677    0.7467    3.4303 C.3       1 <0>         0.0206
     23 H2          0.0021   -0.0041    0.0020 H         1 <0>         0.0732
     24 H3          1.0099    1.4631    0.0003 H         1 <0>         0.0931
     25 H4         -0.5229    1.4373    0.9048 H         1 <0>         0.0930
     26 H5         -0.5274    2.8570   -5.4304 H         1 <0>         0.1036
     27 H6          0.8901    3.2551   -4.4302 H         1 <0>         0.0827
     28 H7          0.6113    1.5759   -4.9504 H         1 <0>         0.0826
     29 H8         -6.6652    2.6477   -1.5045 H         1 <0>         0.1297
     30 H9         -8.7565    2.5931   -0.2158 H         1 <0>         0.1347
     31 H10        -8.7444    1.8726    2.1358 H         1 <0>         0.1334
     32 H11        -6.6422    1.2012    3.2173 H         1 <0>         0.1389
     33 H12        -3.3733    0.4727    3.7826 H         1 <0>         0.1047
     34 H13        -4.7546    1.5664    4.0357 H         1 <0>         0.0571
     35 H14        -5.0327   -0.1127    3.5149 H         1 <0>         0.0572
@<TRIPOS>BOND
     1    1   23 1
     2    1   24 1
     3    1   25 1
     4    1    2 1
     5    2    3 1
     6    2    8 am
     7    3   13 1
     8    3    4 2
     9    4    5 1
    10    4   11 1
    11    5    7 am
    12    5    6 2
    13    7    8 am
    14    7   10 1
    15    8    9 2
    16   10   26 1
    17   10   27 1
    18   10   28 1
    19   11   14 1
    20   11   12 1
    21   12   15 1
    22   12   13 2
    23   15   20 ar
    24   15   16 ar
    25   16   17 ar
    26   16   29 1
    27   17   18 ar
    28   17   30 1
    29   18   19 ar
    30   18   31 1
    31   19   20 ar
    32   19   32 1
    33   20   21 1
    34   21   22 1
    35   22   33 1
    36   22   34 1
    37   22   35 1
@<TRIPOS>MOLECULE
ZINC12405301
   36    38     0     0     0
SMALL
USER_CHARGES
8-(2-methoxyphenyl)-1,3-dimethyl-7H-purine-2,6-dione
@<TRIPOS>ATOM
      1 C1         -1.5762    4.8085    2.7087 C.3       1 <0>         0.0633
      2 N1         -1.4527    3.3614    2.5167 N.am      1 <0>        -0.5130
      3 C2         -1.9770    2.4908    3.4598 C.2       1 <0>         0.3519
      4 C3         -1.8459    1.1211    3.2531 C.2       1 <0>        -0.0719
      5 C4         -1.1867    0.6610    2.0945 C.2       1 <0>         0.5896
      6 O1         -1.0593   -0.5335    1.8918 O.2       1 <0>        -0.4676
      7 N2         -0.6984    1.5583    1.2133 N.am      1 <0>        -0.5415
      8 C5         -0.8266    2.8791    1.4270 C.2       1 <0>         0.7083
      9 O2         -0.3689    3.6581    0.6131 O.2       1 <0>        -0.4824
     10 C6         -0.0127    1.0858    0.0080 C.3       1 <0>         0.0750
     11 N3         -2.4491    0.5026    4.3324 N.pl3     1 <0>        -0.4675
     12 H1         -2.5270   -0.4821    4.4885 H         1 <0>         0.4815
     13 C7         -2.9168    1.4929    5.1422 C.cat     1 <0>         0.4520
     14 C8         -3.6341    1.2875    6.4161 C.ar      1 <0>        -0.1333
     15 C9         -3.8836   -0.0055    6.8807 C.ar      1 <0>        -0.0313
     16 C10        -4.5536   -0.1907    8.0713 C.ar      1 <0>        -0.1383
     17 C11        -4.9807    0.9004    8.8094 C.ar      1 <0>        -0.0153
     18 C12        -4.7405    2.1846    8.3605 C.ar      1 <0>        -0.1963
     19 C13        -4.0632    2.3886    7.1684 C.ar      1 <0>         0.1854
     20 O3         -3.8213    3.6501    6.7292 O.3       1 <0>        -0.3457
     21 C14        -4.2883    4.7233    7.5491 C.3       1 <0>         0.0222
     22 H2         -0.7124    5.1767    3.2622 H         1 <0>         0.0959
     23 H3         -1.6224    5.3013    1.7376 H         1 <0>         0.1211
     24 H4         -2.4858    5.0243    3.2693 H         1 <0>         0.0891
     25 H5          0.0021   -0.0041    0.0020 H         1 <0>         0.1135
     26 H6          1.0099    1.4631    0.0003 H         1 <0>         0.0947
     27 H7         -0.5399    1.4469   -0.8751 H         1 <0>         0.0947
     28 H8         -3.5525   -0.8591    6.3080 H         1 <0>         0.1444
     29 H9         -4.7458   -1.1911    8.4300 H         1 <0>         0.1531
     30 H10        -5.5049    0.7465    9.7410 H         1 <0>         0.1515
     31 H11        -5.0770    3.0307    8.9413 H         1 <0>         0.1545
     32 H12        -4.0304    5.6747    7.0840 H         1 <0>         0.1179
     33 H13        -5.3707    4.6533    7.6573 H         1 <0>         0.0755
     34 H14        -3.8202    4.6603    8.5314 H         1 <0>         0.0755
     35 N4         -2.6286    2.6666    4.6102 N.pl3     1 <0>        -0.4893
     36 H15        -2.8696    3.5767    5.0200 H         1 <0>         0.4832
@<TRIPOS>BOND
     1    1    2 1
     2    1   22 1
     3    1   23 1
     4    1   24 1
     5    2    8 am
     6    2    3 1
     7    3    4 2
     8    3   35 1
     9    4    5 1
    10    4   11 1
    11    5    6 2
    12    5    7 am
    13    7    8 am
    14    7   10 1
    15    8    9 2
    16   10   25 1
    17   10   26 1
    18   10   27 1
    19   11   12 1
    20   11   13 1
    21   13   14 1
    22   13   35 2
    23   14   19 ar
    24   14   15 ar
    25   15   16 ar
    26   15   28 1
    27   16   17 ar
    28   16   29 1
    29   17   18 ar
    30   17   30 1
    31   18   19 ar
    32   18   31 1
    33   19   20 1
    34   20   21 1
    35   21   32 1
    36   21   33 1
    37   21   34 1
    38   35   36 1
@<TRIPOS>MOLECULE
ZINC04217017
   48    51     0     0     0
SMALL
USER_CHARGES

@<TRIPOS>ATOM
      1 C1         -0.0158    1.3119    0.0093 C.ar      1 <0>         0.3642
      2 N1          1.0888    2.0360    0.0026 N.ar      1 <0>        -0.5868
      3 C2          2.2875    1.4625   -0.0119 C.ar      1 <0>         0.5089
      4 C3          2.3582    0.0588   -0.0202 C.ar      1 <0>        -0.1086
      5 C4          1.1547   -0.6659   -0.0126 C.ar      1 <0>         0.3136
      6 N2          0.0021   -0.0041    0.0020 N.ar      1 <0>        -0.5514
      7 N3          1.5110   -1.9908   -0.0227 N.pl3     1 <0>        -0.4718
      8 C5          2.8729   -2.0476   -0.0358 C.2       1 <0>         0.2611
      9 N4          3.3680   -0.8441   -0.0343 N.2       1 <0>        -0.4600
     10 C6          0.5956   -3.1347   -0.0195 C.3       1 <0>         0.3142
     11 H1         -0.2832   -2.9148    0.5866 H         1 <0>         0.1228
     12 C7          0.1775   -3.4928   -1.4629 C.3       1 <0>         0.0797
     13 H2          0.9267   -3.1463   -2.1747 H         1 <0>         0.0850
     14 C8          0.1056   -5.0362   -1.4608 C.3       1 <0>         0.0473
     15 H3          0.8193   -5.4528   -2.1716 H         1 <0>         0.0869
     16 C9          0.4888   -5.4280   -0.0165 C.3       1 <0>         0.0504
     17 H4         -0.4066   -5.5617    0.5906 H         1 <0>         0.1001
     18 O1          1.2661   -4.3138    0.4763 O.3       1 <0>        -0.3470
     19 C10         1.3272   -6.7078   -0.0164 C.3       1 <0>         0.0821
     20 O2          1.5723   -7.1166    1.3308 O.3       1 <0>        -0.5634
     21 O3         -1.2191   -5.4762   -1.7672 O.3       1 <0>        -0.5387
     22 O4         -1.0998   -2.9297   -1.7685 O.3       1 <0>        -0.5252
     23 N5          3.4393    2.2295   -0.0193 N.pl3     1 <0>        -0.6901
     24 C11         3.3458    3.6915   -0.0110 C.3       1 <0>         0.1521
     25 C12         3.2018    4.1852    1.4300 C.3       1 <0>        -0.1279
     26 C13         3.1042    5.7121    1.4386 C.3       1 <0>        -0.1161
     27 C14         4.3704    6.3075    0.8197 C.3       1 <0>        -0.1232
     28 C15         4.5144    5.8139   -0.6213 C.3       1 <0>        -0.1145
     29 C16         4.6120    4.2870   -0.6300 C.3       1 <0>        -0.1286
     30 H5         -0.9693    1.8187    0.0257 H         1 <0>         0.2042
     31 H6          3.4551   -2.9572   -0.0459 H         1 <0>         0.2223
     32 H7          0.7880   -7.4954   -0.5427 H         1 <0>         0.0671
     33 H8          2.2767   -6.5201   -0.5176 H         1 <0>         0.0609
     34 H9          2.0996   -7.9235    1.4072 H         1 <0>         0.3867
     35 H10        -1.3212   -6.4377   -1.7794 H         1 <0>         0.3873
     36 H11        -1.4113   -3.1237   -2.6632 H         1 <0>         0.3905
     37 H12         4.3085    1.7992   -0.0299 H         1 <0>         0.4159
     38 H13         2.4769    4.0033   -0.5905 H         1 <0>         0.0947
     39 H14         2.2998    3.7610    1.8710 H         1 <0>         0.0687
     40 H15         4.0708    3.8734    2.0094 H         1 <0>         0.0607
     41 H16         2.2352    6.0239    0.8592 H         1 <0>         0.0660
     42 H17         3.0016    6.0638    2.4652 H         1 <0>         0.0643
     43 H18         4.3008    7.3953    0.8258 H         1 <0>         0.0642
     44 H19         5.2393    5.9957    1.3991 H         1 <0>         0.0620
     45 H20         3.6454    6.1257   -1.2008 H         1 <0>         0.0661
     46 H21         5.4164    6.2381   -1.0623 H         1 <0>         0.0672
     47 H22         5.4809    3.9752   -0.0505 H         1 <0>         0.0677
     48 H23         4.7146    3.9353   -1.6566 H         1 <0>         0.0684
@<TRIPOS>BOND
     1    1    6 ar
     2    1    2 ar
     3    1   30 1
     4    2    3 ar
     5    3    4 ar
     6    3   23 1
     7    4    9 1
     8    4    5 ar
     9    5    6 ar
    10    5    7 1
    11    7    8 1
    12    7   10 1
    13    8    9 2
    14    8   31 1
    15   10   11 1
    16   10   18 1
    17   10   12 1
    18   12   13 1
    19   12   14 1
    20   12   22 1
    21   14   15 1
    22   14   16 1
    23   14   21 1
    24   16   17 1
    25   16   18 1
    26   16   19 1
    27   19   20 1
    28   19   32 1
    29   19   33 1
    30   20   34 1
    31   21   35 1
    32   22   36 1
    33   23   24 1
    34   23   37 1
    35   24   29 1
    36   24   25 1
    37   24   38 1
    38   25   26 1
    39   25   39 1
    40   25   40 1
    41   26   27 1
    42   26   41 1
    43   26   42 1
    44   27   28 1
    45   27   43 1
    46   27   44 1
    47   28   29 1
    48   28   45 1
    49   28   46 1
    50   29   47 1
    51   29   48 1
@<TRIPOS>MOLECULE
ZINC03995401
   38    40     0     0     0
SMALL
USER_CHARGES

@<TRIPOS>ATOM
      1 C1         -0.0187    1.5258    0.0104 C.3       1 <0>        -0.1678
      2 C2          0.0021   -0.0041    0.0020 C.3       1 <0>         0.1135
      3 N1          0.6878   -0.4765   -1.2033 N.am      1 <0>        -0.7272
      4 C3          0.8268   -1.7986   -1.4250 C.2       1 <0>         0.5159
      5 O1          0.3843   -2.5972   -0.6267 O.2       1 <0>        -0.5034
      6 C4          1.5322   -2.2846   -2.6649 C.3       1 <0>         0.0319
      7 H1          2.5323   -1.8560   -2.7290 H         1 <0>         0.1223
      8 C5          0.7085   -1.9402   -3.9319 C.3       1 <0>         0.0508
      9 H2         -0.3595   -2.0480   -3.7427 H         1 <0>         0.0949
     10 C6          1.2015   -3.0074   -4.9392 C.3       1 <0>         0.0831
     11 H3          0.3680   -3.3897   -5.5285 H         1 <0>         0.0899
     12 C7          1.7901   -4.1212   -4.0517 C.3       1 <0>         0.3141
     13 H4          2.8552   -4.2328   -4.2545 H         1 <0>         0.1318
     14 O2          1.5952   -3.7270   -2.6817 O.3       1 <0>        -0.3269
     15 N2          1.0980   -5.3855   -4.3143 N.pl3     1 <0>        -0.4753
     16 C8          0.0390   -5.8854   -3.6166 C.2       1 <0>         0.2664
     17 N3         -0.3260   -7.0283   -4.1208 N.2       1 <0>        -0.4588
     18 C9          0.4732   -7.3336   -5.1712 C.ar      1 <0>        -0.1081
     19 C10         1.3931   -6.2806   -5.3114 C.ar      1 <0>         0.3101
     20 N4          2.2951   -6.3363   -6.2857 N.ar      1 <0>        -0.5540
     21 C11         2.3279   -7.3607   -7.1119 C.ar      1 <0>         0.3666
     22 N5          1.4828   -8.3713   -7.0218 N.ar      1 <0>        -0.5906
     23 C12         0.5516   -8.4074   -6.0740 C.ar      1 <0>         0.5098
     24 N6         -0.3304   -9.4704   -5.9882 N.pl3     1 <0>        -0.8164
     25 O3          2.2079   -2.4612   -5.7941 O.3       1 <0>        -0.5314
     26 O4          1.0116   -0.6227   -4.3947 O.3       1 <0>        -0.5362
     27 H5          1.0039    1.9031    0.0027 H         1 <0>         0.0645
     28 H6         -0.5459    1.8868   -0.8726 H         1 <0>         0.0637
     29 H7         -0.5289    1.8773    0.9072 H         1 <0>         0.0792
     30 H8          0.5293   -0.3651    0.8851 H         1 <0>         0.0731
     31 H9         -1.0205   -0.3814    0.0098 H         1 <0>         0.0727
     32 H10         1.0417    0.1622   -1.8418 H         1 <0>         0.3979
     33 H11        -0.4280   -5.4042   -2.7700 H         1 <0>         0.2249
     34 H12         3.0737   -7.3749   -7.8929 H         1 <0>         0.2070
     35 H13        -1.0129   -9.4799   -5.2989 H         1 <0>         0.4195
     36 H14        -0.2662  -10.2059   -6.6173 H         1 <0>         0.4114
     37 H15         1.9048   -1.7181   -6.3335 H         1 <0>         0.3970
     38 H16         0.8031    0.0753   -3.7587 H         1 <0>         0.3843
@<TRIPOS>BOND
     1    1    2 1
     2    1   27 1
     3    1   28 1
     4    1   29 1
     5    2    3 1
     6    2   30 1
     7    2   31 1
     8    3    4 am
     9    3   32 1
    10    4    5 2
    11    4    6 1
    12    6    7 1
    13    6   14 1
    14    6    8 1
    15    8    9 1
    16    8   10 1
    17    8   26 1
    18   10   11 1
    19   10   12 1
    20   10   25 1
    21   12   13 1
    22   12   14 1
    23   12   15 1
    24   15   19 1
    25   15   16 1
    26   16   17 2
    27   16   33 1
    28   17   18 1
    29   18   23 ar
    30   18   19 ar
    31   19   20 ar
    32   20   21 ar
    33   21   22 ar
    34   21   34 1
    35   22   23 ar
    36   23   24 1
    37   24   35 1
    38   24   36 1
    39   25   37 1
    40   26   38 1
@<TRIPOS>MOLECULE
ZINC40900552
   47    51     0     0     0
SMALL
USER_CHARGES

@<TRIPOS>ATOM
      1 C1         -0.0173    1.4248    0.0099 C.3       1 <0>         0.0242
      2 O1          0.0021   -0.0041    0.0020 O.3       1 <0>        -0.3128
      3 C2          0.6260   -0.6186    1.0418 C.ar      1 <0>         0.1263
      4 C3          1.2021    0.1398    2.0509 C.ar      1 <0>        -0.1865
      5 C4          1.8359   -0.4836    3.1071 C.ar      1 <0>        -0.0763
      6 C5          1.8968   -1.8701    3.1596 C.ar      1 <0>         0.1279
      7 C6          1.3199   -2.6285    2.1492 C.ar      1 <0>        -0.0924
      8 C7          0.6815   -2.0039    1.0964 C.ar      1 <0>        -0.1245
      9 N1          2.5403   -2.5034    4.2310 N.am      1 <0>        -0.3657
     10 C8          2.6771   -3.8344    4.4040 C.2       1 <0>         0.6592
     11 O2          2.2632   -4.7019    3.6558 O.2       1 <0>        -0.5108
     12 N2          3.3532   -4.0323    5.5502 N.am      1 <0>        -0.4690
     13 C9          3.7755   -5.1781    6.2185 C.ar      1 <0>         0.0624
     14 C10         3.5046   -6.4364    5.6970 C.ar      1 <0>        -0.0694
     15 C11         3.9455   -7.5490    6.3978 C.ar      1 <0>        -0.1423
     16 C12         4.6356   -7.3739    7.5846 C.ar      1 <0>         0.1244
     17 N3          4.8816   -6.1724    8.0617 N.ar      1 <0>        -0.4260
     18 C13         4.4805   -5.0698    7.4276 C.ar      1 <0>         0.3033
     19 N4          4.7592   -3.8514    7.9595 N.2       1 <0>        -0.4187
     20 C14         4.3841   -2.7410    7.3709 C.2       1 <0>         0.4773
     21 C15         3.6433   -2.7937    6.1027 C.2       1 <0>         0.2491
     22 N5          3.1639   -1.8686    5.3146 N.2       1 <0>        -0.2241
     23 N6          4.6868   -1.5187    7.9441 N.am      1 <0>        -0.6322
     24 C16         5.3668   -1.4695    9.1067 C.2       1 <0>         0.5514
     25 O3          5.7141   -2.4989    9.6516 O.2       1 <0>        -0.4401
     26 C17         5.6901   -0.1638    9.7189 C.ar      1 <0>        -0.1377
     27 C18         5.2877    1.0203    9.0986 C.ar      1 <0>        -0.0863
     28 C19         5.5924    2.2357    9.6757 C.ar      1 <0>        -0.1248
     29 C20         6.2952    2.2827   10.8667 C.ar      1 <0>        -0.0867
     30 C21         6.6971    1.1129   11.4867 C.ar      1 <0>        -0.1248
     31 C22         6.3943   -0.1093   10.9231 C.ar      1 <0>        -0.0524
     32 H1          1.0053    1.8021    0.0021 H         1 <0>         0.0581
     33 H2         -0.5445    1.7859   -0.8732 H         1 <0>         0.1034
     34 H3         -0.5275    1.7763    0.9067 H         1 <0>         0.0581
     35 H4          1.1550    1.2180    2.0098 H         1 <0>         0.1408
     36 H5          2.2846    0.1068    3.8923 H         1 <0>         0.1422
     37 H6          1.3669   -3.7067    2.1893 H         1 <0>         0.1612
     38 H7          0.2291   -2.5936    0.3129 H         1 <0>         0.1445
     39 H8          2.9636   -6.5459    4.7687 H         1 <0>         0.1616
     40 H9          3.7518   -8.5425    6.0212 H         1 <0>         0.1563
     41 H10         4.9788   -8.2405    8.1301 H         1 <0>         0.1783
     42 H11         4.4096   -0.6971    7.5092 H         1 <0>         0.4286
     43 H12         4.7393    0.9850    8.1688 H         1 <0>         0.1267
     44 H13         5.2819    3.1525    9.1967 H         1 <0>         0.1327
     45 H14         6.5315    3.2369   11.3141 H         1 <0>         0.1307
     46 H15         7.2457    1.1566   12.4160 H         1 <0>         0.1342
     47 H16         6.7047   -1.0218   11.4104 H         1 <0>         0.1407
@<TRIPOS>BOND
     1    1    2 1
     2    1   32 1
     3    1   33 1
     4    1   34 1
     5    2    3 1
     6    3    8 ar
     7    3    4 ar
     8    4    5 ar
     9    4   35 1
    10    5    6 ar
    11    5   36 1
    12    6    7 ar
    13    6    9 1
    14    7    8 ar
    15    7   37 1
    16    8   38 1
    17    9   22 1
    18    9   10 am
    19   10   11 2
    20   10   12 am
    21   12   21 1
    22   12   13 1
    23   13   18 ar
    24   13   14 ar
    25   14   15 ar
    26   14   39 1
    27   15   16 ar
    28   15   40 1
    29   16   17 ar
    30   16   41 1
    31   17   18 ar
    32   18   19 1
    33   19   20 2
    34   20   21 1
    35   20   23 1
    36   21   22 2
    37   23   24 am
    38   23   42 1
    39   24   25 2
    40   24   26 1
    41   26   31 ar
    42   26   27 ar
    43   27   28 ar
    44   27   43 1
    45   28   29 ar
    46   28   44 1
    47   29   30 ar
    48   29   45 1
    49   30   31 ar
    50   30   46 1
    51   31   47 1
@<TRIPOS>MOLECULE
ZINC18207215
   54    58     0     0     0
SMALL
USER_CHARGES

@<TRIPOS>ATOM
      1 C1         -0.0187    1.5258    0.0104 C.3       1 <0>        -0.1472
      2 C2          0.0021   -0.0041    0.0020 C.3       1 <0>        -0.1379
      3 C3         -1.4333   -0.5336    0.0129 C.3       1 <0>         0.1191
      4 N1         -1.4134   -1.9985    0.0048 N.am      1 <0>        -0.5073
      5 C4         -1.3926   -2.6965    1.2014 C.2       1 <0>         0.3253
      6 C5         -1.3745   -4.0853    1.1673 C.2       1 <0>        -0.1553
      7 C6         -1.3778   -4.7426   -0.0818 C.2       1 <0>         0.5939
      8 O1         -1.3626   -5.9592   -0.1378 O.2       1 <0>        -0.5125
      9 N2         -1.3985   -4.0075   -1.2131 N.am      1 <0>        -0.5487
     10 C7         -1.4211   -2.6644   -1.1653 C.2       1 <0>         0.7072
     11 O2         -1.4445   -2.0347   -2.2054 O.2       1 <0>        -0.5296
     12 C8         -1.4021   -4.6834   -2.5128 C.3       1 <0>         0.1138
     13 C9         -2.8457   -4.9379   -2.9514 C.3       1 <0>        -0.1378
     14 C10        -2.8494   -5.6438   -4.3088 C.3       1 <0>        -0.1472
     15 N3         -1.3562   -4.5039    2.4827 N.pl3     1 <0>        -0.5130
     16 C11        -1.3635   -3.3955    3.2487 C.2       1 <0>         0.3244
     17 N4         -1.3850   -2.3321    2.4862 N.2       1 <0>        -0.4864
     18 H1         -1.3410   -5.4217    2.7960 H         1 <0>         0.4346
     19 C12        -1.3491   -3.3823    4.7555 C.3       1 <0>         0.0007
     20 C13        -0.3830   -4.4298    5.3831 C.3       1 <0>        -0.1187
     21 C14        -0.1207   -3.7936    6.7774 C.3       1 <0>        -0.0896
     22 H2          0.6849   -4.2848    7.3232 H         1 <0>         0.0922
     23 C15        -1.4390   -3.7841    7.5562 C.3       1 <0>        -0.1073
     24 C16        -2.5864   -3.0979    6.8097 C.3       1 <0>        -0.0926
     25 H3         -3.5164   -3.0994    7.3782 H         1 <0>         0.0936
     26 C17        -2.7211   -3.7395    5.3994 C.3       1 <0>        -0.1093
     27 C18        -2.1308   -1.6708    6.4004 C.3       1 <0>        -0.1188
     28 C19        -0.9534   -2.0058    5.3650 C.3       1 <0>        -0.0740
     29 C20         0.2357   -2.3440    6.3494 C.3       1 <0>        -0.1216
     30 H4          1.0039    1.9031    0.0027 H         1 <0>         0.0607
     31 H5         -0.5459    1.8868   -0.8726 H         1 <0>         0.0588
     32 H6         -0.5289    1.8773    0.9072 H         1 <0>         0.0589
     33 H7          0.5123   -0.3556   -0.8948 H         1 <0>         0.0676
     34 H8          0.5293   -0.3651    0.8851 H         1 <0>         0.0678
     35 H9         -1.9435   -0.1821    0.9097 H         1 <0>         0.0985
     36 H10        -1.9605   -0.1726   -0.8702 H         1 <0>         0.0999
     37 H11        -0.9037   -4.0548   -3.2507 H         1 <0>         0.1031
     38 H12        -0.8748   -5.6338   -2.4296 H         1 <0>         0.1013
     39 H13        -3.3441   -5.5666   -2.2135 H         1 <0>         0.0670
     40 H14        -3.3730   -3.9876   -3.0346 H         1 <0>         0.0692
     41 H15        -2.3510   -5.0151   -5.0466 H         1 <0>         0.0599
     42 H16        -2.3221   -6.5941   -4.2256 H         1 <0>         0.0588
     43 H17        -3.8778   -5.8251   -4.6212 H         1 <0>         0.0614
     44 H18        -0.8668   -5.4018    5.4797 H         1 <0>         0.0762
     45 H19         0.5392   -4.5078    4.8073 H         1 <0>         0.0714
     46 H20        -1.7268   -4.8139    7.7674 H         1 <0>         0.0629
     47 H21        -1.2810   -3.2679    8.5031 H         1 <0>         0.0662
     48 H22        -3.5451   -3.3020    4.8358 H         1 <0>         0.0740
     49 H23        -2.8416   -4.8188    5.4935 H         1 <0>         0.0719
     50 H24        -2.9334   -1.1324    5.8963 H         1 <0>         0.0677
     51 H25        -1.7679   -1.1124    7.2632 H         1 <0>         0.0742
     52 H26        -0.7411   -1.2390    4.6199 H         1 <0>         0.1113
     53 H27         0.2376   -1.6711    7.2069 H         1 <0>         0.0747
     54 H28         1.1918   -2.3132    5.8269 H         1 <0>         0.0663
@<TRIPOS>BOND
     1    1    2 1
     2    1   30 1
     3    1   31 1
     4    1   32 1
     5    2    3 1
     6    2   33 1
     7    2   34 1
     8    3   35 1
     9    3   36 1
    10    3    4 1
    11    4    5 1
    12    4   10 am
    13    5   17 1
    14    5    6 2
    15    6    7 1
    16    6   15 1
    17    7    9 am
    18    7    8 2
    19    9   10 am
    20    9   12 1
    21   10   11 2
    22   12   13 1
    23   12   37 1
    24   12   38 1
    25   13   14 1
    26   13   39 1
    27   13   40 1
    28   14   41 1
    29   14   42 1
    30   14   43 1
    31   15   18 1
    32   15   16 1
    33   16   19 1
    34   16   17 2
    35   19   26 1
    36   19   28 1
    37   19   20 1
    38   20   21 1
    39   20   44 1
    40   20   45 1
    41   21   22 1
    42   21   29 1
    43   21   23 1
    44   23   24 1
    45   23   46 1
    46   23   47 1
    47   24   25 1
    48   24   26 1
    49   24   27 1
    50   26   48 1
    51   26   49 1
    52   27   28 1
    53   27   50 1
    54   27   51 1
    55   28   29 1
    56   28   52 1
    57   29   53 1
    58   29   54 1
@<TRIPOS>MOLECULE
ZINC18207215
   55    59     0     0     0
SMALL
USER_CHARGES
1,3-dipropyl-8-BLAHyl-7H-purine-2,6-dione
@<TRIPOS>ATOM
      1 C1         -2.3129    4.8502   -5.0821 C.3       1 <0>        -0.1537
      2 C2         -0.9968    5.2159   -4.3928 C.3       1 <0>        -0.1442
      3 C3          0.1042    4.2595   -4.8554 C.3       1 <0>         0.0949
      4 N1          1.3644    4.6097   -4.1955 N.am      1 <0>        -0.5097
      5 C4          1.6928    4.0312   -2.9801 C.2       1 <0>         0.3509
      6 C5          2.8934    4.3796   -2.3743 C.2       1 <0>        -0.0751
      7 C6          3.7415    5.3099   -3.0130 C.2       1 <0>         0.5886
      8 O1          4.7990    5.6317   -2.5017 O.2       1 <0>        -0.4630
      9 N2          3.3660    5.8398   -4.1957 N.am      1 <0>        -0.5390
     10 C7          2.2013    5.4937   -4.7707 C.2       1 <0>         0.7080
     11 O2          1.8961    5.9911   -5.8375 O.2       1 <0>        -0.4799
     12 C8          4.2408    6.8070   -4.8632 C.3       1 <0>         0.1068
     13 C9          3.8828    8.2213   -4.4024 C.3       1 <0>        -0.1382
     14 C10         4.7964    9.2314   -5.0996 C.3       1 <0>        -0.1511
     15 N3          2.9548    3.6614   -1.1969 N.pl3     1 <0>        -0.4517
     16 H1          3.6944    3.6838   -0.5243 H         1 <0>         0.4836
     17 C11         1.8290    2.9246   -1.1261 C.cat     1 <0>         0.4103
     18 C12         1.4760    1.9857   -0.0014 C.3       1 <0>        -0.0447
     19 C13         1.7539    2.5449    1.4258 C.3       1 <0>        -0.1138
     20 C14         0.7636    1.7031    2.2757 C.3       1 <0>        -0.0856
     21 H2          0.6664    2.0677    3.2984 H         1 <0>         0.1085
     22 C15         1.1777    0.2311    2.1968 C.3       1 <0>        -0.1184
     23 C16         1.3277   -0.2870    0.7638 C.3       1 <0>        -0.0867
     24 H3          1.6304   -1.3330    0.7147 H         1 <0>         0.1082
     25 C17         2.2891    0.6570   -0.0086 C.3       1 <0>        -0.1090
     26 C18         0.0021   -0.0041    0.0020 C.3       1 <0>        -0.1233
     27 C19        -0.0190    1.5528    0.0106 C.3       1 <0>        -0.0898
     28 C20        -0.5347    1.8895    1.4407 C.3       1 <0>        -0.1202
     29 H4         -3.0972    5.5316   -4.7525 H         1 <0>         0.0721
     30 H5         -2.1919    4.9307   -6.1623 H         1 <0>         0.0685
     31 H6         -2.5871    3.8277   -4.8224 H         1 <0>         0.0604
     32 H7         -1.1178    5.1354   -3.3126 H         1 <0>         0.0636
     33 H8         -0.7226    6.2384   -4.6525 H         1 <0>         0.0836
     34 H9          0.2252    4.3400   -5.9357 H         1 <0>         0.1287
     35 H10        -0.1700    3.2370   -4.5957 H         1 <0>         0.0959
     36 H11         5.2790    6.5938   -4.6088 H         1 <0>         0.1127
     37 H12         4.1084    6.7321   -5.9426 H         1 <0>         0.1138
     38 H13         2.8446    8.4345   -4.6568 H         1 <0>         0.0711
     39 H14         4.0152    8.2962   -3.3231 H         1 <0>         0.0696
     40 H15         5.8347    9.0182   -4.8452 H         1 <0>         0.0626
     41 H16         4.6641    9.1565   -6.1789 H         1 <0>         0.0633
     42 H17         4.5414   10.2390   -4.7713 H         1 <0>         0.0674
     43 H18         2.7850    2.3587    1.7261 H         1 <0>         0.0932
     44 H19         1.5167    3.6072    1.4838 H         1 <0>         0.0820
     45 H20         0.4263   -0.3705    2.7083 H         1 <0>         0.0779
     46 H21         2.1296    0.1083    2.7135 H         1 <0>         0.0732
     47 H22         3.2346    0.7728    0.5213 H         1 <0>         0.0933
     48 H23         2.4527    0.3028   -1.0264 H         1 <0>         0.0805
     49 H24        -0.8543   -0.4113    0.5395 H         1 <0>         0.0902
     50 H25         0.0434   -0.3906   -1.0163 H         1 <0>         0.0747
     51 H26        -0.6075    1.9886   -0.7968 H         1 <0>         0.0849
     52 H27        -0.8935    2.9172    1.4969 H         1 <0>         0.0754
     53 H28        -1.3076    1.1880    1.7547 H         1 <0>         0.0898
     54 N4          1.0892    3.1423   -2.1849 N.pl3     1 <0>        -0.4924
     55 H29         0.1834    2.6978   -2.3751 H         1 <0>         0.4811
@<TRIPOS>BOND
     1    1    2 1
     2    1   29 1
     3    1   30 1
     4    1   31 1
     5    2    3 1
     6    2   32 1
     7    2   33 1
     8    3    4 1
     9    3   34 1
    10    3   35 1
    11    4   10 am
    12    4    5 1
    13    5    6 2
    14    5   54 1
    15    6    7 1
    16    6   15 1
    17    7    8 2
    18    7    9 am
    19    9   10 am
    20    9   12 1
    21   10   11 2
    22   12   13 1
    23   12   36 1
    24   12   37 1
    25   13   14 1
    26   13   38 1
    27   13   39 1
    28   14   40 1
    29   14   41 1
    30   14   42 1
    31   15   16 1
    32   15   17 1
    33   17   18 1
    34   17   54 2
    35   18   25 1
    36   18   27 1
    37   18   19 1
    38   19   20 1
    39   19   43 1
    40   19   44 1
    41   20   21 1
    42   20   28 1
    43   20   22 1
    44   22   23 1
    45   22   45 1
    46   22   46 1
    47   23   24 1
    48   23   25 1
    49   23   26 1
    50   25   47 1
    51   25   48 1
    52   26   27 1
    53   26   49 1
    54   26   50 1
    55   27   28 1
    56   27   51 1
    57   28   52 1
    58   28   53 1
    59   54   55 1
@<TRIPOS>MOLECULE
ZINC04475322
   51    54     0     0     0
SMALL
USER_CHARGES

@<TRIPOS>ATOM
      1 C1         -0.0187    1.5258    0.0104 C.3       1 <0>        -0.1631
      2 C2          0.0021   -0.0041    0.0020 C.3       1 <0>         0.1538
      3 H1          0.5293   -0.3651    0.8851 H         1 <0>         0.0970
      4 C3          0.7182   -0.4975   -1.2568 C.3       1 <0>        -0.0915
      5 C4          0.8473   -1.9981   -1.2057 C.ar      1 <0>        -0.0833
      6 C5          1.9579   -2.5768   -0.6205 C.ar      1 <0>        -0.1153
      7 C6          2.0763   -3.9532   -0.5737 C.ar      1 <0>        -0.1179
      8 C7          1.0839   -4.7510   -1.1116 C.ar      1 <0>        -0.1236
      9 C8         -0.0272   -4.1724   -1.6960 C.ar      1 <0>        -0.1166
     10 C9         -0.1477   -2.7959   -1.7390 C.ar      1 <0>        -0.1114
     11 N1         -1.3723   -0.5112    0.0124 N.pl3     1 <0>        -0.6847
     12 C10        -2.0462   -0.6591    1.2121 C.ar      1 <0>         0.5114
     13 C11        -3.3630   -1.1495    1.2414 C.ar      1 <0>        -0.1076
     14 C12        -3.9954   -1.2776    2.4893 C.ar      1 <0>         0.3133
     15 N2         -3.3315   -0.9338    3.5883 N.ar      1 <0>        -0.5521
     16 C13        -2.0986   -0.4792    3.5127 C.ar      1 <0>         0.3641
     17 N3         -1.4615   -0.3459    2.3635 N.ar      1 <0>        -0.5871
     18 N4         -5.2495   -1.7694    2.2292 N.pl3     1 <0>        -0.4716
     19 C14        -5.3550   -1.9261    0.8792 C.2       1 <0>         0.2599
     20 N5         -4.2472   -1.5619    0.3015 N.2       1 <0>        -0.4591
     21 C15        -6.2852   -2.0711    3.2205 C.3       1 <0>         0.3143
     22 H2         -5.8341   -2.4623    4.1324 H         1 <0>         0.1224
     23 C16        -7.1166   -0.8068    3.5314 C.3       1 <0>         0.0799
     24 H3         -7.0713   -0.1054    2.6982 H         1 <0>         0.0849
     25 C17        -8.5557   -1.3392    3.7133 C.3       1 <0>         0.0472
     26 H4         -9.2218   -0.9010    2.9700 H         1 <0>         0.0868
     27 C18        -8.4234   -2.8621    3.4907 C.3       1 <0>         0.0504
     28 H5         -8.3019   -3.3758    4.4444 H         1 <0>         0.1000
     29 O1         -7.2349   -3.0173    2.6833 O.3       1 <0>        -0.3469
     30 C19        -9.6487   -3.4004    2.7493 C.3       1 <0>         0.0822
     31 O2         -9.5620   -4.8238    2.6564 O.3       1 <0>        -0.5634
     32 O3         -9.0288   -1.0625    5.0330 O.3       1 <0>        -0.5387
     33 O4         -6.6539   -0.1861    4.7325 O.3       1 <0>        -0.5251
     34 H6          1.0039    1.9031    0.0027 H         1 <0>         0.0681
     35 H7         -0.5459    1.8868   -0.8726 H         1 <0>         0.0555
     36 H8         -0.5289    1.8773    0.9072 H         1 <0>         0.0645
     37 H9          0.1430   -0.2121   -2.1375 H         1 <0>         0.0786
     38 H10         1.7103   -0.0491   -1.3098 H         1 <0>         0.0924
     39 H11         2.7333   -1.9534   -0.2002 H         1 <0>         0.1218
     40 H12         2.9444   -4.4053   -0.1171 H         1 <0>         0.1212
     41 H13         1.1767   -5.8264   -1.0757 H         1 <0>         0.1199
     42 H14        -0.8025   -4.7957   -2.1166 H         1 <0>         0.1203
     43 H15        -1.0175   -2.3439   -2.1923 H         1 <0>         0.1175
     44 H16        -1.8100   -0.7432   -0.8215 H         1 <0>         0.4144
     45 H17        -1.5876   -0.2084    4.4248 H         1 <0>         0.2035
     46 H18        -6.2290   -2.2977    0.3649 H         1 <0>         0.2215
     47 H19       -10.5523   -3.1263    3.2938 H         1 <0>         0.0670
     48 H20        -9.6843   -2.9724    1.7475 H         1 <0>         0.0609
     49 H21       -10.3074   -5.2341    2.1971 H         1 <0>         0.3867
     50 H22        -9.9281   -1.3753    5.2020 H         1 <0>         0.3872
     51 H23        -7.1412    0.6131    4.9751 H         1 <0>         0.3903
@<TRIPOS>BOND
     1    1    2 1
     2    1   34 1
     3    1   35 1
     4    1   36 1
     5    2    3 1
     6    2    4 1
     7    2   11 1
     8    4    5 1
     9    4   37 1
    10    4   38 1
    11    5   10 ar
    12    5    6 ar
    13    6    7 ar
    14    6   39 1
    15    7    8 ar
    16    7   40 1
    17    8    9 ar
    18    8   41 1
    19    9   10 ar
    20    9   42 1
    21   10   43 1
    22   11   12 1
    23   11   44 1
    24   12   17 ar
    25   12   13 ar
    26   13   20 1
    27   13   14 ar
    28   14   15 ar
    29   14   18 1
    30   15   16 ar
    31   16   17 ar
    32   16   45 1
    33   18   19 1
    34   18   21 1
    35   19   20 2
    36   19   46 1
    37   21   22 1
    38   21   29 1
    39   21   23 1
    40   23   24 1
    41   23   25 1
    42   23   33 1
    43   25   26 1
    44   25   27 1
    45   25   32 1
    46   27   28 1
    47   27   29 1
    48   27   30 1
    49   30   31 1
    50   30   47 1
    51   30   48 1
    52   31   49 1
    53   32   50 1
    54   33   51 1
@<TRIPOS>MOLECULE
ZINC13610737
   48    51     0     0     0
SMALL
USER_CHARGES
(2R,3S,4R,5R)-5-[6-(cyclopentylamino)purin-9-yl]-2-(hydroxymethyl)-3-methyl-tetrahydrofuran-3,4-diol
@<TRIPOS>ATOM
      1 C1          8.1200   -0.4202    2.2860 C.3       1 <0>        -0.1809
      2 C2          8.0054    0.7771    1.3404 C.3       1 <0>         0.1159
      3 C3          8.1688    0.3249   -0.1277 C.3       1 <0>         0.0551
      4 H1          8.6659    1.1003   -0.7105 H         1 <0>         0.0994
      5 O1          6.8202    0.1245   -0.6044 O.3       1 <0>        -0.3462
      6 C4          6.0547    1.2169   -0.0507 C.3       1 <0>         0.2718
      7 H2          6.2261    2.1287   -0.6229 H         1 <0>         0.1215
      8 C5          6.5826    1.3774    1.3922 C.3       1 <0>         0.0845
      9 H3          5.9585    0.8208    2.0913 H         1 <0>         0.0869
     10 O2          6.6348    2.7584    1.7555 O.3       1 <0>        -0.5217
     11 N1          4.6279    0.8847   -0.0378 N.pl3     1 <0>        -0.4742
     12 C6          4.0915   -0.3684   -0.0388 C.2       1 <0>         0.2750
     13 N2          2.7921   -0.2959   -0.0258 N.2       1 <0>        -0.4529
     14 C7          2.4132    1.0047   -0.0156 C.ar      1 <0>        -0.0644
     15 C8          3.5866    1.7779   -0.0231 C.ar      1 <0>         0.2920
     16 N3          3.4869    3.1030   -0.0155 N.ar      1 <0>        -0.5422
     17 C9          2.3072    3.6871   -0.0011 C.ar      1 <0>         0.3500
     18 N4          1.1777    3.0031    0.0013 N.ar      1 <0>        -0.5666
     19 C10         1.1779    1.6740   -0.0002 C.ar      1 <0>         0.4454
     20 N5         -0.0111    0.9658    0.0074 N.pl3     1 <0>        -0.5945
     21 C11        -1.2896    1.6810    0.0173 C.3       1 <0>         0.0847
     22 C12        -1.7080    1.9953    1.4685 C.3       1 <0>        -0.1124
     23 C13        -3.2472    1.8150    1.4667 C.3       1 <0>        -0.1251
     24 C14        -3.4482    0.5956    0.5332 C.3       1 <0>        -0.1205
     25 C15        -2.3956    0.7918   -0.5774 C.3       1 <0>        -0.1287
     26 C16         8.9582   -0.9838   -0.1972 C.3       1 <0>         0.0806
     27 O3          9.1347   -1.3617   -1.5640 O.3       1 <0>        -0.5644
     28 O4          8.9797    1.7690    1.6701 O.3       1 <0>        -0.5207
     29 H4          9.1076   -0.8702    2.1845 H         1 <0>         0.0757
     30 H5          7.9767   -0.0865    3.3137 H         1 <0>         0.0780
     31 H6          7.3574   -1.1569    2.0335 H         1 <0>         0.0763
     32 H7          5.7749    3.2006    1.7452 H         1 <0>         0.3842
     33 H8          4.6608   -1.2861   -0.0493 H         1 <0>         0.2255
     34 H9          2.2614    4.7661    0.0048 H         1 <0>         0.2075
     35 H10        -0.0620    0.3912   -0.8094 H         1 <0>         0.3681
     36 H11        -1.2049    2.6047   -0.5552 H         1 <0>         0.0767
     37 H12        -1.2427    1.2931    2.1603 H         1 <0>         0.0735
     38 H13        -1.4435    3.0203    1.7283 H         1 <0>         0.0681
     39 H14        -3.7384    2.6986    1.0593 H         1 <0>         0.0679
     40 H15        -3.6149    1.5985    2.4697 H         1 <0>         0.0687
     41 H16        -4.4532    0.5997    0.1113 H         1 <0>         0.0674
     42 H17        -3.2655   -0.3341    1.0720 H         1 <0>         0.0691
     43 H18        -2.8483    1.2842   -1.4381 H         1 <0>         0.0736
     44 H19        -1.9810   -0.1716   -0.8742 H         1 <0>         0.0737
     45 H20         9.9331   -0.8453    0.2702 H         1 <0>         0.0682
     46 H21         8.4112   -1.7665    0.3284 H         1 <0>         0.0649
     47 H22         9.6282   -2.1846   -1.6840 H         1 <0>         0.3865
     48 H23         9.8938    1.4627    1.5952 H         1 <0>         0.3791
@<TRIPOS>BOND
     1    1    2 1
     2    1   29 1
     3    1   30 1
     4    1   31 1
     5    2    8 1
     6    2    3 1
     7    2   28 1
     8    3    4 1
     9    3    5 1
    10    3   26 1
    11    5    6 1
    12    6    7 1
    13    6    8 1
    14    6   11 1
    15    8    9 1
    16    8   10 1
    17   10   32 1
    18   11   15 1
    19   11   12 1
    20   12   13 2
    21   12   33 1
    22   13   14 1
    23   14   19 ar
    24   14   15 ar
    25   15   16 ar
    26   16   17 ar
    27   17   18 ar
    28   17   34 1
    29   18   19 ar
    30   19   20 1
    31   20   21 1
    32   20   35 1
    33   21   25 1
    34   21   22 1
    35   21   36 1
    36   22   23 1
    37   22   37 1
    38   22   38 1
    39   23   24 1
    40   23   39 1
    41   23   40 1
    42   24   25 1
    43   24   41 1
    44   24   42 1
    45   25   43 1
    46   25   44 1
    47   26   27 1
    48   26   45 1
    49   26   46 1
    50   27   47 1
    51   28   48 1
