@<TRIPOS>MOLECULE
ZINC26816145
   50    51     0     0     0
SMALL
USER_CHARGES

@<TRIPOS>ATOM
      1 C1         -1.5727    1.1561    1.0004 C.3       1 <0>        -0.1497
      2 C2         -1.1984   -0.3112    0.7814 C.3       1 <0>         0.0652
      3 O1         -0.2200   -0.7023    1.7467 O.3       1 <0>        -0.3341
      4 C3          0.2199   -1.9749    1.6909 C.2       1 <0>         0.4737
      5 C4          1.1632   -2.4179    2.5920 C.2       1 <0>        -0.3954
      6 C5          1.6280   -1.5463    3.7454 C.3       1 <0>         0.0742
      7 H1          2.0385   -0.6250    3.3321 H         1 <0>         0.0316
      8 C6          2.6707   -2.1613    4.6609 C.2       1 <0>        -0.3789
      9 C7          3.0958   -3.4268    4.3741 C.2       1 <0>         0.2801
     10 N1          2.6324   -4.1149    3.3419 N.2       1 <0>        -0.6482
     11 C8          1.7291   -3.6898    2.4883 C.2       1 <0>         0.3106
     12 C9          1.2968   -4.5962    1.3646 C.3       1 <0>        -0.0927
     13 C10         4.1310   -4.0638    5.2650 C.3       1 <0>        -0.1135
     14 C11         3.1806   -1.4537    5.7635 C.2       1 <0>         0.5267
     15 O2          3.9342   -2.0051    6.5454 O.2       1 <0>        -0.5582
     16 O3          2.8346   -0.1623    5.9558 O.3       1 <0>        -0.3534
     17 C12         3.3899    0.4951    7.0966 C.3       1 <0>         0.0873
     18 C13         2.8878    1.9395    7.1475 C.3       1 <0>        -0.1091
     19 S1          3.5927    2.7741    8.5957 S.3       1 <0>        -0.1006
     20 C14         2.9284    4.4040    8.5137 C.ar      1 <0>        -0.0795
     21 C15         2.0666    4.7538    7.4811 C.ar      1 <0>        -0.1328
     22 C16         1.5479    6.0320    7.4200 C.ar      1 <0>        -0.0991
     23 C17         1.8851    6.9637    8.3849 C.ar      1 <0>        -0.1284
     24 C18         2.7428    6.6193    9.4138 C.ar      1 <0>        -0.1028
     25 C19         3.2604    5.3412    9.4847 C.ar      1 <0>        -0.1018
     26 C20         0.4071   -1.1841    4.5932 C.3       1 <0>        -0.1426
     27 O4         -0.2629   -2.8142    0.7536 O.3       1 <0>        -0.6532
     28 H2         -0.6845    1.7780    0.8900 H         1 <0>         0.0613
     29 H3         -2.3191    1.4544    0.2641 H         1 <0>         0.0693
     30 H4         -1.9814    1.2810    2.0032 H         1 <0>         0.0611
     31 H5         -2.0867   -0.9332    0.8919 H         1 <0>         0.0572
     32 H6         -0.7897   -0.4361   -0.2213 H         1 <0>         0.0573
     33 H7          1.5762   -4.1502    0.4101 H         1 <0>         0.0733
     34 H8          1.7860   -5.5645    1.4703 H         1 <0>         0.0474
     35 H9          0.2156   -4.7294    1.4008 H         1 <0>         0.0869
     36 H10         3.6401   -4.5156    6.1270 H         1 <0>         0.0693
     37 H11         4.6666   -4.8324    4.7077 H         1 <0>         0.0529
     38 H12         4.8351   -3.3042    5.6046 H         1 <0>         0.0951
     39 H13         3.0836   -0.0281    8.0024 H         1 <0>         0.0692
     40 H14         4.4775    0.4909    7.0248 H         1 <0>         0.0691
     41 H15         3.1942    2.4628    6.2417 H         1 <0>         0.0984
     42 H16         1.8002    1.9438    7.2194 H         1 <0>         0.0982
     43 H17         1.8031    4.0268    6.7271 H         1 <0>         0.1266
     44 H18         0.8784    6.3047    6.6176 H         1 <0>         0.1259
     45 H19         1.4779    7.9628    8.3347 H         1 <0>         0.1236
     46 H20         3.0042    7.3496   10.1653 H         1 <0>         0.1266
     47 H21         3.9260    5.0714   10.2913 H         1 <0>         0.1276
     48 H22        -0.0538   -2.0954    4.9744 H         1 <0>         0.0337
     49 H23         0.7181   -0.5572    5.4289 H         1 <0>         0.0463
     50 H24        -0.3129   -0.6417    3.9804 H         1 <0>         0.0484
@<TRIPOS>BOND
     1    1    2 1
     2    1   28 1
     3    1   29 1
     4    1   30 1
     5    2    3 1
     6    2   31 1
     7    2   32 1
     8    3    4 1
     9    4    5 2
    10    4   27 1
    11    5   11 1
    12    5    6 1
    13    6    7 1
    14    6    8 1
    15    6   26 1
    16    8    9 2
    17    8   14 1
    18    9   10 1
    19    9   13 1
    20   10   11 2
    21   11   12 1
    22   12   33 1
    23   12   34 1
    24   12   35 1
    25   13   36 1
    26   13   37 1
    27   13   38 1
    28   14   15 2
    29   14   16 1
    30   16   17 1
    31   17   18 1
    32   17   39 1
    33   17   40 1
    34   18   19 1
    35   18   41 1
    36   18   42 1
    37   19   20 1
    38   20   25 ar
    39   20   21 ar
    40   21   22 ar
    41   21   43 1
    42   22   23 ar
    43   22   44 1
    44   23   24 ar
    45   23   45 1
    46   24   25 ar
    47   24   46 1
    48   25   47 1
    49   26   48 1
    50   26   49 1
    51   26   50 1
@<TRIPOS>MOLECULE
ZINC26816150
   50    51     0     0     0
SMALL
USER_CHARGES

@<TRIPOS>ATOM
      1 C1         -1.9159    0.9000    1.1230 C.3       1 <0>        -0.1497
      2 C2         -1.2977   -0.4532    0.7658 C.3       1 <0>         0.0653
      3 O1         -0.3626   -0.8317    1.7780 O.3       1 <0>        -0.3342
      4 C3          0.2745   -2.0077    1.6134 C.2       1 <0>         0.4742
      5 C4          1.1890   -2.4330    2.5519 C.2       1 <0>        -0.3955
      6 C5          1.6387   -1.5295    3.6865 C.3       1 <0>         0.0743
      7 H1          0.7580   -1.2360    4.2577 H         1 <0>         0.0300
      8 C6          2.6497   -2.1276    4.6476 C.2       1 <0>        -0.3793
      9 C7          3.0627   -3.4079    4.4141 C.2       1 <0>         0.2801
     10 N1          2.6143   -4.1241    3.3944 N.2       1 <0>        -0.6482
     11 C8          1.7384   -3.7155    2.5049 C.2       1 <0>         0.3100
     12 C9          1.3200   -4.6534    1.4020 C.3       1 <0>        -0.0910
     13 C10         4.0665   -4.0288    5.3511 C.3       1 <0>        -0.1139
     14 C11         3.1431   -1.3902    5.7382 C.2       1 <0>         0.5262
     15 O2          3.8655   -1.9265    6.5590 O.2       1 <0>        -0.5580
     16 O3          2.8160   -0.0869    5.8756 O.3       1 <0>        -0.3519
     17 C12         3.3529    0.6009    7.0072 C.3       1 <0>         0.0860
     18 C13         2.8762    2.0547    6.9938 C.3       1 <0>        -0.1091
     19 S1          3.5578    2.9278    8.4303 S.3       1 <0>        -0.1006
     20 C14         2.9259    4.5651    8.2732 C.ar      1 <0>        -0.0795
     21 C15         2.0983    4.8929    7.2060 C.ar      1 <0>        -0.1328
     22 C16         1.6051    6.1771    7.0861 C.ar      1 <0>        -0.0992
     23 C17         1.9337    7.1365    8.0265 C.ar      1 <0>        -0.1284
     24 C18         2.7573    6.8140    9.0896 C.ar      1 <0>        -0.1028
     25 C19         3.2493    5.5303    9.2194 C.ar      1 <0>        -0.1018
     26 C20         2.2525   -0.2671    3.0777 C.3       1 <0>        -0.1449
     27 O4          0.0172   -2.7677    0.5307 O.3       1 <0>        -0.6528
     28 H2         -1.1298    1.6520    1.1909 H         1 <0>         0.0611
     29 H3         -2.6291    1.1887    0.3509 H         1 <0>         0.0693
     30 H4         -2.4292    0.8233    2.0815 H         1 <0>         0.0613
     31 H5         -2.0838   -1.2052    0.6979 H         1 <0>         0.0573
     32 H6         -0.7844   -0.3766   -0.1927 H         1 <0>         0.0572
     33 H7          1.5950   -4.2259    0.4378 H         1 <0>         0.0834
     34 H8          1.8219   -5.6124    1.5307 H         1 <0>         0.0477
     35 H9          0.2406   -4.8002    1.4398 H         1 <0>         0.0746
     36 H10         3.5476   -4.4503    6.2120 H         1 <0>         0.0694
     37 H11         4.6088   -4.8185    4.8312 H         1 <0>         0.0528
     38 H12         4.7691   -3.2665    5.6879 H         1 <0>         0.0953
     39 H13         3.0131    0.1156    7.9222 H         1 <0>         0.0691
     40 H14         4.4418    0.5751    6.9651 H         1 <0>         0.0691
     41 H15         3.2160    2.5400    6.0788 H         1 <0>         0.0981
     42 H16         1.7874    2.0805    7.0359 H         1 <0>         0.0984
     43 H17         1.8416    4.1443    6.4711 H         1 <0>         0.1266
     44 H18         0.9622    6.4326    6.2568 H         1 <0>         0.1259
     45 H19         1.5464    8.1400    7.9302 H         1 <0>         0.1236
     46 H20         3.0121    7.5658    9.8219 H         1 <0>         0.1266
     47 H21         3.8883    5.2778   10.0527 H         1 <0>         0.1276
     48 H22         1.5065    0.2415    2.4670 H         1 <0>         0.0460
     49 H23         2.5830    0.3975    3.8759 H         1 <0>         0.0535
     50 H24         3.1052   -0.5410    2.4565 H         1 <0>         0.0333
@<TRIPOS>BOND
     1    1    2 1
     2    1   28 1
     3    1   29 1
     4    1   30 1
     5    2    3 1
     6    2   31 1
     7    2   32 1
     8    3    4 1
     9    4    5 2
    10    4   27 1
    11    5   11 1
    12    5    6 1
    13    6    7 1
    14    6    8 1
    15    6   26 1
    16    8    9 2
    17    8   14 1
    18    9   10 1
    19    9   13 1
    20   10   11 2
    21   11   12 1
    22   12   33 1
    23   12   34 1
    24   12   35 1
    25   13   36 1
    26   13   37 1
    27   13   38 1
    28   14   15 2
    29   14   16 1
    30   16   17 1
    31   17   18 1
    32   17   39 1
    33   17   40 1
    34   18   19 1
    35   18   41 1
    36   18   42 1
    37   19   20 1
    38   20   25 ar
    39   20   21 ar
    40   21   22 ar
    41   21   43 1
    42   22   23 ar
    43   22   44 1
    44   23   24 ar
    45   23   45 1
    46   24   25 ar
    47   24   46 1
    48   25   47 1
    49   26   48 1
    50   26   49 1
    51   26   50 1
@<TRIPOS>MOLECULE
ZINC26577575
   63    66     0     0     0
SMALL
USER_CHARGES

@<TRIPOS>ATOM
      1 C1          0.7310   -1.2669    2.0730 C.3       1 <0>        -0.1517
      2 C2          0.0336   -1.2473    0.7113 C.3       1 <0>         0.0560
      3 O1          0.9139   -1.7761   -0.2824 O.3       1 <0>        -0.3471
      4 C3          0.4481   -1.8292   -1.5478 C.2       1 <0>         0.5392
      5 O2         -0.6759   -1.4365   -1.7994 O.2       1 <0>        -0.4936
      6 C4          1.2660   -2.3410   -2.5813 C.2       1 <0>        -0.2402
      7 C5          1.3742   -3.6718   -2.7318 C.2       1 <0>         0.2019
      8 N1          2.1611   -4.2083   -3.7128 N.pl3     1 <0>        -0.6272
      9 C6          3.1262   -3.4391   -4.3243 C.2       1 <0>         0.2452
     10 C7          3.0861   -2.0832   -4.2361 C.2       1 <0>        -0.2235
     11 C8          1.9862   -1.3830   -3.4862 C.3       1 <0>         0.1769
     12 H1          1.2767   -0.9582   -4.1963 H         1 <0>         0.1108
     13 C9          2.5691   -0.2993   -2.6785 C.1       1 <0>        -0.1665
     14 C10         3.0340    0.5651   -2.0343 C.1       1 <0>        -0.1121
     15 C11         3.6011    1.6194   -1.2485 C.ar      1 <0>         0.0179
     16 C12         3.4370    1.6266    0.1372 C.ar      1 <0>        -0.0938
     17 C13         3.9863    2.6450    0.8887 C.ar      1 <0>        -0.1180
     18 C14         4.6984    3.6577    0.2712 C.ar      1 <0>        -0.1105
     19 C15         4.8647    3.6565   -1.1023 C.ar      1 <0>        -0.1176
     20 C16         4.3249    2.6409   -1.8646 C.ar      1 <0>        -0.0970
     21 C17         4.0904   -1.3201   -4.8630 C.2       1 <0>         0.5425
     22 O3          3.8400   -0.7057   -5.8839 O.2       1 <0>        -0.4983
     23 O4          5.3307   -1.2700   -4.3318 O.3       1 <0>        -0.3346
     24 C18         6.2688   -0.3911   -4.9560 C.3       1 <0>         0.1066
     25 C19         7.6166   -0.5470   -4.3002 C.ar      1 <0>        -0.0954
     26 C20         7.9136    0.1650   -3.1532 C.ar      1 <0>        -0.0915
     27 C21         9.1499    0.0219   -2.5516 C.ar      1 <0>        -0.1219
     28 C22        10.0891   -0.8335   -3.0968 C.ar      1 <0>        -0.1092
     29 C23         9.7917   -1.5462   -4.2433 C.ar      1 <0>        -0.1230
     30 C24         8.5538   -1.4064   -4.8425 C.ar      1 <0>        -0.0944
     31 C25         4.2132   -4.0924   -5.0810 C.ar      1 <0>        -0.0832
     32 C26         4.9299   -5.1465   -4.5104 C.ar      1 <0>        -0.0854
     33 C27         5.9440   -5.7521   -5.2229 C.ar      1 <0>        -0.1171
     34 C28         6.2517   -5.3174   -6.5001 C.ar      1 <0>        -0.0976
     35 C29         5.5456   -4.2735   -7.0715 C.ar      1 <0>        -0.1153
     36 C30         4.5253   -3.6626   -6.3727 C.ar      1 <0>        -0.0933
     37 C31         0.6169   -4.5873   -1.8046 C.3       1 <0>        -0.1350
     38 H2          0.9959   -2.2923    2.3308 H         1 <0>         0.0667
     39 H3          1.6345   -0.6589    2.0273 H         1 <0>         0.0657
     40 H4          0.0596   -0.8635    2.8310 H         1 <0>         0.0803
     41 H5         -0.8699   -1.8554    0.7571 H         1 <0>         0.0682
     42 H6         -0.2312   -0.2219    0.4535 H         1 <0>         0.0676
     43 H7          2.0396   -5.1332   -3.9787 H         1 <0>         0.4228
     44 H8          2.8810    0.8368    0.6204 H         1 <0>         0.1256
     45 H9          3.8597    2.6519    1.9612 H         1 <0>         0.1279
     46 H10         5.1261    4.4529    0.8638 H         1 <0>         0.1260
     47 H11         5.4217    4.4499   -1.5783 H         1 <0>         0.1280
     48 H12         4.4593    2.6387   -2.9362 H         1 <0>         0.1237
     49 H13         6.3491   -0.6379   -6.0147 H         1 <0>         0.0769
     50 H14         5.9291    0.6390   -4.8479 H         1 <0>         0.0746
     51 H15         7.1799    0.8333   -2.7272 H         1 <0>         0.1229
     52 H16         9.3823    0.5787   -1.6558 H         1 <0>         0.1249
     53 H17        11.0552   -0.9447   -2.6271 H         1 <0>         0.1241
     54 H18        10.5255   -2.2143   -4.6694 H         1 <0>         0.1247
     55 H19         8.3201   -1.9660   -5.7361 H         1 <0>         0.1221
     56 H20         4.6910   -5.4865   -3.5136 H         1 <0>         0.1274
     57 H21         6.4993   -6.5672   -4.7828 H         1 <0>         0.1303
     58 H22         7.0469   -5.7949   -7.0533 H         1 <0>         0.1286
     59 H23         5.7910   -3.9393   -8.0688 H         1 <0>         0.1306
     60 H24         3.9719   -2.8512   -6.8217 H         1 <0>         0.1340
     61 H25        -0.3574   -4.8166   -2.2362 H         1 <0>         0.0941
     62 H26         1.1795   -5.5106   -1.6663 H         1 <0>         0.0882
     63 H27         0.4810   -4.0968   -0.8408 H         1 <0>         0.0912
@<TRIPOS>BOND
     1    1    2 1
     2    1   38 1
     3    1   39 1
     4    1   40 1
     5    2    3 1
     6    2   41 1
     7    2   42 1
     8    3    4 1
     9    4    5 2
    10    4    6 1
    11    6   11 1
    12    6    7 2
    13    7    8 1
    14    7   37 1
    15    8    9 1
    16    8   43 1
    17    9   10 2
    18    9   31 1
    19   10   11 1
    20   10   21 1
    21   11   12 1
    22   11   13 1
    23   13   14 3
    24   14   15 1
    25   15   20 ar
    26   15   16 ar
    27   16   17 ar
    28   16   44 1
    29   17   18 ar
    30   17   45 1
    31   18   19 ar
    32   18   46 1
    33   19   20 ar
    34   19   47 1
    35   20   48 1
    36   21   22 2
    37   21   23 1
    38   23   24 1
    39   24   25 1
    40   24   49 1
    41   24   50 1
    42   25   30 ar
    43   25   26 ar
    44   26   27 ar
    45   26   51 1
    46   27   28 ar
    47   27   52 1
    48   28   29 ar
    49   28   53 1
    50   29   30 ar
    51   29   54 1
    52   30   55 1
    53   31   36 ar
    54   31   32 ar
    55   32   33 ar
    56   32   56 1
    57   33   34 ar
    58   33   57 1
    59   34   35 ar
    60   34   58 1
    61   35   36 ar
    62   35   59 1
    63   36   60 1
    64   37   61 1
    65   37   62 1
    66   37   63 1
@<TRIPOS>MOLECULE
ZINC00406589
   47    48     0     0     0
SMALL
USER_CHARGES

@<TRIPOS>ATOM
      1 C1         -0.1680    1.6167   -0.1909 C.3       1 <0>        -0.1492
      2 C2         -0.4749    0.1388   -0.4412 C.3       1 <0>         0.0619
      3 O1          0.4511   -0.3851   -1.3951 O.3       1 <0>        -0.3341
      4 C3          0.3170   -1.6840   -1.7284 C.2       1 <0>         0.4734
      5 C4          1.1767   -2.2529   -2.6423 C.2       1 <0>        -0.3897
      6 C5          1.1518   -3.7432   -2.9326 C.3       1 <0>         0.1290
      7 H1          0.1520   -4.0062   -3.2781 H         1 <0>         0.0396
      8 C6          2.1536   -4.2336   -3.9620 C.2       1 <0>        -0.3681
      9 C7          2.9796   -3.3071   -4.5310 C.2       1 <0>         0.2755
     10 N1          2.9301   -2.0220   -4.2151 N.2       1 <0>        -0.6459
     11 C8          2.1049   -1.4837   -3.3464 C.2       1 <0>         0.2885
     12 C9          2.1655    0.0016   -3.0992 C.3       1 <0>        -0.1024
     13 C10         3.9852   -3.7641   -5.5562 C.3       1 <0>        -0.1123
     14 C11         2.2286   -5.5920   -4.3163 C.2       1 <0>         0.5230
     15 O2          2.9538   -5.9441   -5.2292 O.2       1 <0>        -0.5605
     16 O3          1.4963   -6.5066   -3.6442 O.3       1 <0>        -0.3520
     17 C12         1.6216   -7.8688   -4.0577 C.3       1 <0>         0.0413
     18 C13         1.4098   -4.4785   -1.6427 C.ar      1 <0>        -0.0569
     19 C14         2.5889   -4.2678   -0.9521 C.ar      1 <0>        -0.0721
     20 C15         2.8280   -4.9410    0.2303 C.ar      1 <0>        -0.1600
     21 C16         1.8835   -5.8287    0.7249 C.ar      1 <0>         0.0977
     22 C17         0.7010   -6.0380    0.0303 C.ar      1 <0>        -0.2109
     23 C18         0.4644   -5.3584   -1.1490 C.ar      1 <0>        -0.0425
     24 O4          2.1165   -6.4925    1.8877 O.3       1 <0>        -0.3269
     25 C19         1.1000   -7.3907    2.3369 C.3       1 <0>         0.0324
     26 O5         -0.6581   -2.4262   -1.1678 O.3       1 <0>        -0.6417
     27 H2          0.8466    1.7168    0.1947 H         1 <0>         0.0616
     28 H3         -0.2575    2.1697   -1.1259 H         1 <0>         0.0616
     29 H4         -0.8743    2.0163    0.5367 H         1 <0>         0.0686
     30 H5         -0.3854   -0.4143    0.4938 H         1 <0>         0.0572
     31 H6         -1.4895    0.0387   -0.8268 H         1 <0>         0.0571
     32 H7          2.4067    0.1862   -2.0523 H         1 <0>         0.0793
     33 H8          2.9342    0.4443   -3.7326 H         1 <0>         0.0612
     34 H9          1.1995    0.4488   -3.3337 H         1 <0>         0.0734
     35 H10         3.5099   -3.8098   -6.5361 H         1 <0>         0.0688
     36 H11         4.8168   -3.0602   -5.5883 H         1 <0>         0.0524
     37 H12         4.3562   -4.7527   -5.2858 H         1 <0>         0.0947
     38 H13         0.9823   -8.4970   -3.4374 H         1 <0>         0.0847
     39 H14         1.3196   -7.9610   -5.1009 H         1 <0>         0.0477
     40 H15         2.6584   -8.1873   -3.9500 H         1 <0>         0.0477
     41 H16         3.3239   -3.5767   -1.3376 H         1 <0>         0.1145
     42 H17         3.7495   -4.7766    0.7690 H         1 <0>         0.1157
     43 H18        -0.0358   -6.7285    0.4133 H         1 <0>         0.1136
     44 H19        -0.4579   -5.5177   -1.6878 H         1 <0>         0.1129
     45 H20         0.1725   -6.8403    2.4947 H         1 <0>         0.0502
     46 H21         0.9403   -8.1638    1.5852 H         1 <0>         0.0496
     47 H22         1.4118   -7.8533    3.2733 H         1 <0>         0.0904
@<TRIPOS>BOND
     1    1    2 1
     2    1   27 1
     3    1   28 1
     4    1   29 1
     5    2    3 1
     6    2   30 1
     7    2   31 1
     8    3    4 1
     9    4    5 2
    10    4   26 1
    11    5   11 1
    12    5    6 1
    13    6    7 1
    14    6    8 1
    15    6   18 1
    16    8    9 2
    17    8   14 1
    18    9   10 1
    19    9   13 1
    20   10   11 2
    21   11   12 1
    22   12   32 1
    23   12   33 1
    24   12   34 1
    25   13   35 1
    26   13   36 1
    27   13   37 1
    28   14   15 2
    29   14   16 1
    30   16   17 1
    31   17   38 1
    32   17   39 1
    33   17   40 1
    34   18   23 ar
    35   18   19 ar
    36   19   20 ar
    37   19   41 1
    38   20   21 ar
    39   20   42 1
    40   21   22 ar
    41   21   24 1
    42   22   23 ar
    43   22   43 1
    44   23   44 1
    45   24   25 1
    46   25   45 1
    47   25   46 1
    48   25   47 1
@<TRIPOS>MOLECULE
ZINC00406590
   47    48     0     0     0
SMALL
USER_CHARGES

@<TRIPOS>ATOM
      1 C1         -0.3118    1.5563   -0.2153 C.3       1 <0>        -0.1492
      2 C2         -0.5668    0.0669   -0.4554 C.3       1 <0>         0.0621
      3 O1          0.3746   -0.4299   -1.4088 O.3       1 <0>        -0.3344
      4 C3          0.2858   -1.7348   -1.7335 C.2       1 <0>         0.4712
      5 C4          1.1626   -2.2787   -2.6464 C.2       1 <0>        -0.3895
      6 C5          1.1574   -3.7639   -2.9625 C.3       1 <0>         0.1293
      7 H1          1.3348   -4.3099   -2.0359 H         1 <0>         0.0394
      8 C6          2.1769   -4.2258   -3.9877 C.2       1 <0>        -0.3682
      9 C7          2.9997   -3.2809   -4.5305 C.2       1 <0>         0.2756
     10 N1          2.9324   -2.0021   -4.1932 N.2       1 <0>        -0.6460
     11 C8          2.0909   -1.4876   -3.3256 C.2       1 <0>         0.2886
     12 C9          2.1325   -0.0062   -3.0522 C.3       1 <0>        -0.1021
     13 C10         4.0225   -3.7093   -5.5509 C.3       1 <0>        -0.1124
     14 C11         2.2709   -5.5770   -4.3643 C.2       1 <0>         0.5241
     15 O2          3.0178   -5.9068   -5.2680 O.2       1 <0>        -0.5600
     16 O3          1.5328   -6.5095   -3.7239 O.3       1 <0>        -0.3545
     17 C12         1.6783   -7.8629   -4.1586 C.3       1 <0>         0.0417
     18 C13        -0.2135   -4.1329   -3.4681 C.ar      1 <0>        -0.0544
     19 C14        -0.7133   -3.5319   -4.6085 C.ar      1 <0>        -0.0723
     20 C15        -1.9699   -3.8681   -5.0738 C.ar      1 <0>        -0.1596
     21 C16        -2.7302   -4.8099   -4.3959 C.ar      1 <0>         0.0971
     22 C17        -2.2262   -5.4119   -3.2521 C.ar      1 <0>        -0.2103
     23 C18        -0.9669   -5.0760   -2.7938 C.ar      1 <0>        -0.0436
     24 O4         -3.9668   -5.1420   -4.8513 O.3       1 <0>        -0.3271
     25 C19        -4.6929   -6.1192   -4.1030 C.3       1 <0>         0.0325
     26 O5         -0.6608   -2.5076   -1.1654 O.3       1 <0>        -0.6392
     27 H2          0.6996    1.6948    0.1667 H         1 <0>         0.0614
     28 H3         -0.4235    2.0999   -1.1535 H         1 <0>         0.0616
     29 H4         -1.0299    1.9353    0.5119 H         1 <0>         0.0685
     30 H5         -0.4551   -0.4767    0.4828 H         1 <0>         0.0570
     31 H6         -1.5782   -0.0716   -0.8374 H         1 <0>         0.0572
     32 H7          2.3759    0.1630   -2.0033 H         1 <0>         0.0779
     33 H8          2.8922    0.4581   -3.6810 H         1 <0>         0.0610
     34 H9          1.1595    0.4317   -3.2747 H         1 <0>         0.0748
     35 H10         3.5588   -3.7467   -6.5366 H         1 <0>         0.0689
     36 H11         4.8451   -2.9943   -5.5632 H         1 <0>         0.0523
     37 H12         4.4035   -4.6970   -5.2909 H         1 <0>         0.0949
     38 H13         1.0317   -8.5074   -3.5630 H         1 <0>         0.0851
     39 H14         1.3987   -7.9391   -5.2094 H         1 <0>         0.0480
     40 H15         2.7154   -8.1747   -4.0351 H         1 <0>         0.0478
     41 H16        -0.1210   -2.7988   -5.1359 H         1 <0>         0.1137
     42 H17        -2.3601   -3.3978   -5.9642 H         1 <0>         0.1154
     43 H18        -2.8162   -6.1453   -2.7226 H         1 <0>         0.1134
     44 H19        -0.5723   -5.5475   -1.9059 H         1 <0>         0.1126
     45 H20        -4.1291   -7.0518   -4.0799 H         1 <0>         0.0494
     46 H21        -4.8425   -5.7598   -3.0850 H         1 <0>         0.0503
     47 H22        -5.6609   -6.2914   -4.5735 H         1 <0>         0.0903
@<TRIPOS>BOND
     1    1    2 1
     2    1   27 1
     3    1   28 1
     4    1   29 1
     5    2    3 1
     6    2   30 1
     7    2   31 1
     8    3    4 1
     9    4    5 2
    10    4   26 1
    11    5   11 1
    12    5    6 1
    13    6    7 1
    14    6    8 1
    15    6   18 1
    16    8    9 2
    17    8   14 1
    18    9   10 1
    19    9   13 1
    20   10   11 2
    21   11   12 1
    22   12   32 1
    23   12   33 1
    24   12   34 1
    25   13   35 1
    26   13   36 1
    27   13   37 1
    28   14   15 2
    29   14   16 1
    30   16   17 1
    31   17   38 1
    32   17   39 1
    33   17   40 1
    34   18   23 ar
    35   18   19 ar
    36   19   20 ar
    37   19   41 1
    38   20   21 ar
    39   20   42 1
    40   21   22 ar
    41   21   24 1
    42   22   23 ar
    43   22   43 1
    44   23   44 1
    45   24   25 1
    46   25   45 1
    47   25   46 1
    48   25   47 1
@<TRIPOS>MOLECULE
ZINC26831593
   39    40     0     0     0
SMALL
USER_CHARGES

@<TRIPOS>ATOM
      1 C1         -0.0444    1.5002    0.0894 C.3       1 <0>        -0.1103
      2 C2         -0.0105   -0.0056    0.0382 C.2       1 <0>         0.2697
      3 C3         -1.1642   -0.6668   -0.0456 C.2       1 <0>        -0.2528
      4 C4         -1.1129   -2.1820   -0.0967 C.3       1 <0>         0.1039
      5 H1         -1.5983   -2.5079   -1.0166 H         1 <0>         0.0582
      6 C5          0.2722   -2.8025   -0.0463 C.2       1 <0>        -0.3960
      7 C6          0.4504   -4.1503   -0.0853 C.2       1 <0>         0.4775
      8 O1          1.6938   -4.6638   -0.1975 O.3       1 <0>        -0.6483
      9 O2         -0.6162   -4.9745   -0.0118 O.3       1 <0>        -0.3227
     10 C7         -0.3554   -6.3787   -0.0587 C.3       1 <0>         0.0449
     11 C8          1.3626   -1.9178    0.0421 C.2       1 <0>         0.3184
     12 N1          1.1850   -0.6248    0.0737 N.2       1 <0>        -0.6269
     13 C9          2.7625   -2.4732    0.0961 C.3       1 <0>        -0.0889
     14 C10        -1.9070   -2.7189    1.0661 C.ar      1 <0>         0.0022
     15 C11        -1.5452   -2.3922    2.3599 C.ar      1 <0>        -0.1117
     16 C12        -2.2735   -2.8846    3.4264 C.ar      1 <0>        -0.0964
     17 C13        -3.3640   -3.7036    3.1995 C.ar      1 <0>        -0.1370
     18 C14        -3.7262   -4.0295    1.9061 C.ar      1 <0>        -0.0803
     19 C15        -3.0003   -3.5335    0.8391 C.ar      1 <0>        -0.1516
     20 C16        -3.3984   -3.8845   -0.5714 C.3       1 <0>         0.5017
     21 F1         -4.5252   -4.7133   -0.5453 F         1 <0>        -0.1913
     22 F2         -3.6968   -2.7139   -1.2768 F         1 <0>        -0.1630
     23 F3         -2.3428   -4.5524   -1.2013 F         1 <0>        -0.1610
     24 N2         -2.4622    0.0583   -0.0872 N.pl3     1 <0>         0.0816
     25 O3         -2.4814    1.2664   -0.0449 O.2       1 <0>        -0.2404
     26 O4         -3.4981   -0.5605   -0.1634 O.3       1 <0>        -0.2079
     27 H2          0.9737    1.8846    0.1516 H         1 <0>         0.0674
     28 H3         -0.5232    1.8836   -0.8115 H         1 <0>         0.0832
     29 H4         -0.6081    1.8213    0.9653 H         1 <0>         0.0825
     30 H5          0.1409   -6.6250   -0.9974 H         1 <0>         0.0503
     31 H6          0.2878   -6.6569    0.7762 H         1 <0>         0.0487
     32 H7         -1.2959   -6.9254    0.0094 H         1 <0>         0.0813
     33 H8          2.9809   -2.9990   -0.8333 H         1 <0>         0.0868
     34 H9          3.4725   -1.6566    0.2271 H         1 <0>         0.0522
     35 H10         2.8467   -3.1656    0.9337 H         1 <0>         0.0816
     36 H11        -0.6933   -1.7524    2.5372 H         1 <0>         0.1191
     37 H12        -1.9904   -2.6299    4.4371 H         1 <0>         0.1216
     38 H13        -3.9326   -4.0890    4.0328 H         1 <0>         0.1244
     39 H14        -4.5779   -4.6695    1.7288 H         1 <0>         0.1294
@<TRIPOS>BOND
     1    1    2 1
     2    1   27 1
     3    1   28 1
     4    1   29 1
     5    2   12 1
     6    2    3 2
     7    3    4 1
     8    3   24 1
     9    4    5 1
    10    4    6 1
    11    4   14 1
    12    6    7 2
    13    6   11 1
    14    7    8 1
    15    7    9 1
    16    9   10 1
    17   10   30 1
    18   10   31 1
    19   10   32 1
    20   11   12 2
    21   11   13 1
    22   13   33 1
    23   13   34 1
    24   13   35 1
    25   14   19 ar
    26   14   15 ar
    27   15   16 ar
    28   15   36 1
    29   16   17 ar
    30   16   37 1
    31   17   18 ar
    32   17   38 1
    33   18   19 ar
    34   18   39 1
    35   19   20 1
    36   20   21 1
    37   20   22 1
    38   20   23 1
    39   24   25 2
    40   24   26 1
@<TRIPOS>MOLECULE
ZINC15880093
   34    36     0     0     0
SMALL
USER_CHARGES

@<TRIPOS>ATOM
      1 C1         -0.0178    1.4608    0.0101 C.3       1 <0>         0.0854
      2 N1          0.0021   -0.0041    0.0020 N.am      1 <0>        -0.5106
      3 C2         -1.1889   -0.7120    0.0039 C.2       1 <0>         0.3238
      4 C3         -1.1437   -2.1005   -0.0039 C.2       1 <0>        -0.1540
      5 C4          0.1107   -2.7476   -0.0134 C.2       1 <0>         0.5938
      6 O1          0.1765   -3.9638   -0.0207 O.2       1 <0>        -0.5125
      7 N2          1.2361   -2.0032   -0.0148 N.am      1 <0>        -0.5511
      8 C5          1.1776   -0.6603   -0.0127 C.2       1 <0>         0.7080
      9 O2          2.2126   -0.0219   -0.0196 O.2       1 <0>        -0.5321
     10 C6          2.5413   -2.6685   -0.0246 C.3       1 <0>         0.0833
     11 N3         -2.4557   -2.5297    0.0001 N.pl3     1 <0>        -0.5129
     12 H1         -2.7618   -3.4502   -0.0030 H         1 <0>         0.4351
     13 C7         -3.2306   -1.4275    0.0098 C.2       1 <0>         0.3086
     14 N4         -2.4766   -0.3579    0.0120 N.2       1 <0>        -0.4911
     15 C8         -4.7376   -1.4266    0.0162 C.3       1 <0>        -0.0169
     16 C9         -5.2635   -2.6576    0.7829 C.3       1 <0>        -0.1247
     17 C10        -6.5224   -3.0893   -0.0094 C.3       1 <0>        -0.1243
     18 C11        -6.1023   -2.8421   -1.4796 C.3       1 <0>        -0.1289
     19 C12        -5.2709   -1.5439   -1.4224 C.3       1 <0>        -0.1171
     20 H2          1.0048    1.8381    0.0023 H         1 <0>         0.1034
     21 H3         -0.5450    1.8219   -0.8730 H         1 <0>         0.0796
     22 H4         -0.5280    1.8123    0.9069 H         1 <0>         0.0799
     23 H5          2.8601   -2.8279   -1.0547 H         1 <0>         0.0772
     24 H6          3.2716   -2.0434    0.4891 H         1 <0>         0.0972
     25 H7          2.4632   -3.6292    0.4844 H         1 <0>         0.0953
     26 H8         -5.1081   -0.5116    0.4783 H         1 <0>         0.1182
     27 H9         -4.5198   -3.4544    0.7812 H         1 <0>         0.0624
     28 H10        -5.5302   -2.3856    1.8042 H         1 <0>         0.0826
     29 H11        -6.7412   -4.1439    0.1577 H         1 <0>         0.0739
     30 H12        -7.3782   -2.4691    0.2573 H         1 <0>         0.0763
     31 H13        -5.4941   -3.6687   -1.8467 H         1 <0>         0.0666
     32 H14        -6.9812   -2.7047   -2.1096 H         1 <0>         0.0745
     33 H15        -5.9010   -0.6863   -1.6581 H         1 <0>         0.0826
     34 H16        -4.4397   -1.6015   -2.1252 H         1 <0>         0.0685
@<TRIPOS>BOND
     1    1    2 1
     2    1   20 1
     3    1   21 1
     4    1   22 1
     5    2    8 am
     6    2    3 1
     7    3   14 1
     8    3    4 2
     9    4    5 1
    10    4   11 1
    11    5    6 2
    12    5    7 am
    13    7    8 am
    14    7   10 1
    15    8    9 2
    16   10   23 1
    17   10   24 1
    18   10   25 1
    19   11   12 1
    20   11   13 1
    21   13   14 2
    22   13   15 1
    23   15   19 1
    24   15   16 1
    25   15   26 1
    26   16   17 1
    27   16   27 1
    28   16   28 1
    29   17   18 1
    30   17   29 1
    31   17   30 1
    32   18   19 1
    33   18   31 1
    34   18   32 1
    35   19   33 1
    36   19   34 1
@<TRIPOS>MOLECULE
ZINC49784878
   28    30     0     0     0
SMALL
USER_CHARGES

@<TRIPOS>ATOM
      1 C1         -0.0178    1.4608    0.0101 C.3       1 <0>         0.0891
      2 N1          0.0021   -0.0041    0.0020 N.pl3     1 <0>        -0.3241
      3 C2          0.0074   -0.7671   -1.0994 C.2       1 <0>         0.1302
      4 C3          0.0280   -2.0836   -0.6995 C.ar      1 <0>        -0.3535
      5 C4          0.0430   -3.3846   -1.3658 C.ar      1 <0>         0.5422
      6 N2          0.0621   -4.4666   -0.6004 N.ar      1 <0>        -0.6170
      7 C5          0.0676   -4.3905    0.7292 C.ar      1 <0>         0.4551
      8 N3          0.0546   -3.2636    1.4074 N.ar      1 <0>        -0.5411
      9 C6          0.0352   -2.0765    0.7747 C.ar      1 <0>         0.3186
     10 N4          0.0244   -0.8138    1.1440 N.2       1 <0>        -0.2925
     11 C7          0.0893   -5.6597    1.4954 C.ar      1 <0>        -0.0505
     12 C8          0.0901   -5.6356    2.8892 C.ar      1 <0>        -0.0652
     13 C9          0.1104   -6.8200    3.5971 C.ar      1 <0>        -0.1340
     14 C10         0.1299   -8.0296    2.9261 C.ar      1 <0>        -0.0983
     15 C11         0.1292   -8.0597    1.5431 C.ar      1 <0>        -0.1357
     16 C12         0.1032   -6.8817    0.8247 C.ar      1 <0>        -0.0658
     17 N5          0.0372   -3.4826   -2.7394 N.pl3     1 <0>        -0.8133
     18 H1          1.0048    1.8381    0.0023 H         1 <0>         0.0883
     19 H2         -0.5450    1.8219   -0.8730 H         1 <0>         0.0976
     20 H3         -0.5280    1.8123    0.9069 H         1 <0>         0.1008
     21 H4         -0.0030   -0.4122   -2.1193 H         1 <0>         0.1893
     22 H5          0.0752   -4.6918    3.4141 H         1 <0>         0.1383
     23 H6          0.1114   -6.8026    4.6769 H         1 <0>         0.1269
     24 H7          0.1461   -8.9541    3.4842 H         1 <0>         0.1239
     25 H8          0.1449   -9.0070    1.0246 H         1 <0>         0.1264
     26 H9          0.0978   -6.9064   -0.2550 H         1 <0>         0.1366
     27 H10         0.0228   -2.6793   -3.2829 H         1 <0>         0.4132
     28 H11         0.0474   -4.3550   -3.1634 H         1 <0>         0.4146
@<TRIPOS>BOND
     1    1    2 1
     2    1   18 1
     3    1   19 1
     4    1   20 1
     5    2   10 1
     6    2    3 1
     7    3    4 2
     8    3   21 1
     9    4    9 ar
    10    4    5 ar
    11    5    6 ar
    12    5   17 1
    13    6    7 ar
    14    7    8 ar
    15    7   11 1
    16    8    9 ar
    17    9   10 2
    18   11   16 ar
    19   11   12 ar
    20   12   13 ar
    21   12   22 1
    22   13   14 ar
    23   13   23 1
    24   14   15 ar
    25   14   24 1
    26   15   16 ar
    27   15   25 1
    28   16   26 1
    29   17   27 1
    30   17   28 1
@<TRIPOS>MOLECULE
ZINC06749231
   48    51     0     0     0
SMALL
USER_CHARGES
3-(p-tolyl)-N-(2-pyridyl)-6,7,8,9-tetrahydro-5H-imidazo[1,5-a]azepine-1-carboxamide
@<TRIPOS>ATOM
      1 C1         -3.7415   13.7546    0.6389 C.3       1 <0>        -0.1195
      2 C2         -2.7617   12.6114    0.5744 C.ar      1 <0>        -0.0726
      3 C3         -3.2034   11.3437    0.2402 C.ar      1 <0>        -0.1176
      4 C4         -2.3115   10.2927    0.1803 C.ar      1 <0>        -0.0719
      5 C5         -0.9616   10.5106    0.4573 C.ar      1 <0>        -0.0210
      6 C6         -0.5234   11.7904    0.7985 C.ar      1 <0>        -0.1092
      7 C7         -1.4244   12.8341    0.8502 C.ar      1 <0>        -0.1172
      8 C8          0.0001    9.3880    0.3955 C.2       1 <0>         0.2484
      9 N1         -0.2687    8.1339    0.6716 N.2       1 <0>        -0.4470
     10 C9          0.8505    7.3975    0.4996 C.2       1 <0>        -0.0666
     11 C10         1.8449    8.2407    0.1028 C.2       1 <0>         0.0868
     12 N2          1.3156    9.4845    0.0423 N.pl3     1 <0>        -0.4378
     13 C11         2.0361   10.7077   -0.3203 C.3       1 <0>         0.0874
     14 C12         2.8430   10.4643   -1.5982 C.3       1 <0>        -0.1364
     15 C13         4.2338    9.9437   -1.2392 C.3       1 <0>        -0.1254
     16 C14         4.1711    9.0764    0.0157 C.3       1 <0>        -0.1315
     17 C15         3.2638    7.8700   -0.2409 C.3       1 <0>        -0.0554
     18 C16         0.9753    5.9447    0.7093 C.2       1 <0>         0.6004
     19 O1          2.0425    5.3925    0.5207 O.2       1 <0>        -0.4711
     20 N3         -0.0930    5.2274    1.1102 N.am      1 <0>        -0.6501
     21 C17         0.0494    3.8746    1.4110 C.ar      1 <0>         0.3632
     22 C18        -1.0306    3.1659    1.9260 C.ar      1 <0>        -0.2080
     23 C19        -0.8756    1.8229    2.2199 C.ar      1 <0>        -0.0472
     24 C20         0.3593    1.2322    1.9877 C.ar      1 <0>        -0.2076
     25 C21         1.3900    1.9977    1.4798 C.ar      1 <0>         0.1318
     26 N4          1.2113    3.2754    1.2036 N.ar      1 <0>        -0.4787
     27 H1         -4.1485   13.8279    1.6474 H         1 <0>         0.0744
     28 H2         -3.2326   14.6842    0.3841 H         1 <0>         0.0686
     29 H3         -4.5522   13.5786   -0.0681 H         1 <0>         0.0694
     30 H4         -4.2487   11.1763    0.0260 H         1 <0>         0.1298
     31 H5         -2.6576    9.3034   -0.0800 H         1 <0>         0.1334
     32 H6          0.5196   11.9646    1.0184 H         1 <0>         0.1244
     33 H7         -1.0857   13.8261    1.1102 H         1 <0>         0.1284
     34 H8          1.3218   11.5135   -0.4895 H         1 <0>         0.1057
     35 H9          2.7117   10.9849    0.4889 H         1 <0>         0.0970
     36 H10         2.3291    9.7285   -2.2168 H         1 <0>         0.0750
     37 H11         2.9373   11.3990   -2.1510 H         1 <0>         0.0880
     38 H12         4.6219    9.3512   -2.0678 H         1 <0>         0.0733
     39 H13         4.8997   10.7880   -1.0609 H         1 <0>         0.0699
     40 H14         5.1732    8.7300    0.2682 H         1 <0>         0.0793
     41 H15         3.7706    9.6627    0.8427 H         1 <0>         0.0653
     42 H16         3.3258    7.5842   -1.2909 H         1 <0>         0.0897
     43 H17         3.5824    7.0352    0.3834 H         1 <0>         0.1095
     44 H18        -0.9610    5.6531    1.1893 H         1 <0>         0.4244
     45 H19        -1.9774    3.6574    2.0946 H         1 <0>         0.1360
     46 H20        -1.6965    1.2471    2.6212 H         1 <0>         0.1378
     47 H21         0.5133    0.1859    2.2063 H         1 <0>         0.1354
     48 H22         2.3536    1.5436    1.3018 H         1 <0>         0.1589
@<TRIPOS>BOND
     1    1    2 1
     2    1   27 1
     3    1   28 1
     4    1   29 1
     5    2    7 ar
     6    2    3 ar
     7    3    4 ar
     8    3   30 1
     9    4    5 ar
    10    4   31 1
    11    5    6 ar
    12    5    8 1
    13    6    7 ar
    14    6   32 1
    15    7   33 1
    16    8   12 1
    17    8    9 2
    18    9   10 1
    19   10   11 2
    20   10   18 1
    21   11   17 1
    22   11   12 1
    23   12   13 1
    24   13   14 1
    25   13   34 1
    26   13   35 1
    27   14   15 1
    28   14   36 1
    29   14   37 1
    30   15   16 1
    31   15   38 1
    32   15   39 1
    33   16   17 1
    34   16   40 1
    35   16   41 1
    36   17   42 1
    37   17   43 1
    38   18   19 2
    39   18   20 am
    40   20   21 1
    41   20   44 1
    42   21   26 ar
    43   21   22 ar
    44   22   23 ar
    45   22   45 1
    46   23   24 ar
    47   23   46 1
    48   24   25 ar
    49   24   47 1
    50   25   26 ar
    51   25   48 1
@<TRIPOS>MOLECULE
ZINC06749231
   49    52     0     0     0
SMALL
USER_CHARGES
3-(p-tolyl)-N-(2-pyridyl)-6,7,8,9-tetrahydro-5H-imidazo[1,5-a]azepine-1-carboxamide
@<TRIPOS>ATOM
      1 C1         -3.7415   13.7546    0.6389 C.3       1 <0>        -0.1348
      2 C2         -2.7617   12.6114    0.5744 C.ar      1 <0>        -0.0245
      3 C3         -3.2034   11.3437    0.2402 C.ar      1 <0>        -0.1110
      4 C4         -2.3115   10.2927    0.1803 C.ar      1 <0>        -0.0679
      5 C5         -0.9616   10.5106    0.4573 C.ar      1 <0>        -0.1055
      6 C6         -0.5234   11.7904    0.7985 C.ar      1 <0>        -0.0730
      7 C7         -1.4244   12.8341    0.8502 C.ar      1 <0>        -0.1115
      8 C8          0.0001    9.3880    0.3955 C.cat     1 <0>         0.3878
      9 C9          0.8505    7.3975    0.4996 C.2       1 <0>        -0.0386
     10 C10         1.8449    8.2407    0.1028 C.2       1 <0>         0.1573
     11 N1          1.3156    9.4845    0.0423 N.pl3     1 <0>        -0.4020
     12 C11         2.0361   10.7077   -0.3203 C.3       1 <0>         0.0768
     13 C12         2.8430   10.4643   -1.5982 C.3       1 <0>        -0.1400
     14 C13         4.2338    9.9437   -1.2392 C.3       1 <0>        -0.1343
     15 C14         4.1711    9.0764    0.0157 C.3       1 <0>        -0.1347
     16 C15         3.2638    7.8700   -0.2409 C.3       1 <0>        -0.0712
     17 C16         0.9753    5.9447    0.7093 C.2       1 <0>         0.5827
     18 O1          2.0425    5.3925    0.5207 O.2       1 <0>        -0.4206
     19 N2         -0.0930    5.2274    1.1102 N.am      1 <0>        -0.6531
     20 C17         0.0494    3.8746    1.4110 C.ar      1 <0>         0.3432
     21 C18        -1.0306    3.1659    1.9260 C.ar      1 <0>        -0.1962
     22 C19        -0.8756    1.8229    2.2199 C.ar      1 <0>        -0.0443
     23 C20         0.3593    1.2322    1.9877 C.ar      1 <0>        -0.1853
     24 C21         1.3900    1.9977    1.4798 C.ar      1 <0>         0.1346
     25 N3          1.2113    3.2754    1.2036 N.ar      1 <0>        -0.4768
     26 H1         -4.1485   13.8279    1.6474 H         1 <0>         0.0885
     27 H2         -3.2326   14.6842    0.3841 H         1 <0>         0.0804
     28 H3         -4.5522   13.5786   -0.0681 H         1 <0>         0.0803
     29 H4         -4.2487   11.1763    0.0260 H         1 <0>         0.1464
     30 H5         -2.6576    9.3034   -0.0800 H         1 <0>         0.1341
     31 H6          0.5196   11.9646    1.0184 H         1 <0>         0.1377
     32 H7         -1.0857   13.8261    1.1102 H         1 <0>         0.1466
     33 H8          1.3218   11.5135   -0.4895 H         1 <0>         0.1254
     34 H9          2.7117   10.9849    0.4889 H         1 <0>         0.1268
     35 H10         2.3291    9.7285   -2.2168 H         1 <0>         0.0809
     36 H11         2.9373   11.3990   -2.1510 H         1 <0>         0.1081
     37 H12         4.6219    9.3512   -2.0678 H         1 <0>         0.0850
     38 H13         4.8997   10.7880   -1.0609 H         1 <0>         0.0831
     39 H14         5.1732    8.7300    0.2682 H         1 <0>         0.0979
     40 H15         3.7706    9.6627    0.8427 H         1 <0>         0.0680
     41 H16         3.3258    7.5842   -1.2909 H         1 <0>         0.1174
     42 H17         3.5824    7.0352    0.3834 H         1 <0>         0.1298
     43 H18        -0.9610    5.6531    1.1893 H         1 <0>         0.4113
     44 H19        -1.9774    3.6574    2.0946 H         1 <0>         0.1380
     45 H20        -1.6965    1.2471    2.6212 H         1 <0>         0.1456
     46 H21         0.5133    0.1859    2.2063 H         1 <0>         0.1445
     47 H22         2.3536    1.5436    1.3018 H         1 <0>         0.1670
     48 N4         -0.2657    8.1351    0.6706 N.pl3     1 <0>        -0.4728
     49 H23        -1.1787    7.7722    0.9690 H         1 <0>         0.4730
@<TRIPOS>BOND
     1    1    2 1
     2    1   26 1
     3    1   27 1
     4    1   28 1
     5    2    7 ar
     6    2    3 ar
     7    3    4 ar
     8    3   29 1
     9    4    5 ar
    10    4   30 1
    11    5    6 ar
    12    5    8 1
    13    6    7 ar
    14    6   31 1
    15    7   32 1
    16    8   11 1
    17    8   48 2
    18    9   10 2
    19    9   17 1
    20    9   48 1
    21   10   16 1
    22   10   11 1
    23   11   12 1
    24   12   13 1
    25   12   33 1
    26   12   34 1
    27   13   14 1
    28   13   35 1
    29   13   36 1
    30   14   15 1
    31   14   37 1
    32   14   38 1
    33   15   16 1
    34   15   39 1
    35   15   40 1
    36   16   41 1
    37   16   42 1
    38   17   18 2
    39   17   19 am
    40   19   20 1
    41   19   43 1
    42   20   25 ar
    43   20   21 ar
    44   21   22 ar
    45   21   44 1
    46   22   23 ar
    47   22   45 1
    48   23   24 ar
    49   23   46 1
    50   24   25 ar
    51   24   47 1
    52   48   49 1
@<TRIPOS>MOLECULE
ZINC12880583
   42    44     0     0     0
SMALL
USER_CHARGES

@<TRIPOS>ATOM
      1 C1          0.4332    1.4732   -0.0129 C.3       1 <0>        -0.1165
      2 C2          0.2166   -0.0181   -0.0090 C.ar      1 <0>        -0.0467
      3 C3          0.0008   -0.6880   -1.1994 C.ar      1 <0>        -0.1598
      4 C4         -0.1981   -2.0560   -1.1992 C.ar      1 <0>        -0.0751
      5 C5         -0.1823   -2.7574   -0.0089 C.ar      1 <0>        -0.2185
      6 C6          0.0339   -2.0878    1.1865 C.ar      1 <0>         0.1353
      7 C7          0.2394   -0.7156    1.1829 C.ar      1 <0>        -0.1523
      8 O1          0.0500   -2.7755    2.3585 O.3       1 <0>        -0.2928
      9 C8         -0.0425   -4.1991    2.2768 C.3       1 <0>         0.0934
     10 H1          0.4839   -4.5469    1.3879 H         1 <0>         0.1020
     11 C9         -1.5136   -4.6107    2.1921 C.3       1 <0>        -0.1673
     12 C10         0.5815   -4.8143    3.5029 C.2       1 <0>         0.5108
     13 O2          0.9777   -4.1023    4.4060 O.2       1 <0>        -0.5700
     14 N1          0.6987   -6.1331    3.5973 N.2       1 <0>        -0.6543
     15 C11         1.2510   -6.6776    4.6827 C.2       1 <0>         0.6257
     16 N2          1.7293   -6.0075    5.7643 N.pl3     1 <0>        -0.6215
     17 H2          1.7296   -5.0448    5.8831 H         1 <0>         0.4544
     18 C12         2.2139   -6.9334    6.6629 C.2       1 <0>         0.3309
     19 N3          2.0456   -8.1267    6.1647 N.2       1 <0>        -0.2625
     20 N4          1.4323   -7.9966    4.9114 N.pl3     1 <0>        -0.4800
     21 C13         2.8240   -6.6246    7.9754 C.ar      1 <0>        -0.0492
     22 C14         2.9423   -5.3007    8.3987 C.ar      1 <0>        -0.0860
     23 C15         3.5116   -5.0193    9.6237 C.ar      1 <0>        -0.1163
     24 C16         3.9646   -6.0470   10.4315 C.ar      1 <0>        -0.0894
     25 C17         3.8506   -7.3620   10.0172 C.ar      1 <0>        -0.1193
     26 C18         3.2779   -7.6567    8.7969 C.ar      1 <0>        -0.0657
     27 H3          1.4970    1.6856   -0.1193 H         1 <0>         0.0738
     28 H4         -0.1111    1.9173   -0.8464 H         1 <0>         0.0697
     29 H5          0.0703    1.8955    0.9242 H         1 <0>         0.0688
     30 H6         -0.0126   -0.1414   -2.1308 H         1 <0>         0.1236
     31 H7         -0.3665   -2.5769   -2.1302 H         1 <0>         0.1257
     32 H8         -0.3385   -3.8261   -0.0092 H         1 <0>         0.1303
     33 H9          0.4127   -0.1927    2.1119 H         1 <0>         0.1302
     34 H10        -1.5841   -5.6966    2.1297 H         1 <0>         0.0872
     35 H11        -2.0399   -4.2629    3.0810 H         1 <0>         0.0673
     36 H12        -1.9649   -4.1657    1.3053 H         1 <0>         0.0728
     37 H13         2.5893   -4.4976    7.7687 H         1 <0>         0.1272
     38 H14         3.6041   -3.9947    9.9523 H         1 <0>         0.1353
     39 H15         4.4095   -5.8217   11.3895 H         1 <0>         0.1328
     40 H16         4.2067   -8.1598   10.6520 H         1 <0>         0.1360
     41 H17         3.1850   -8.6839    8.4767 H         1 <0>         0.1397
     42 H18         1.1848   -8.7212    4.3160 H         1 <0>         0.4703
@<TRIPOS>BOND
     1    1    2 1
     2    1   27 1
     3    1   28 1
     4    1   29 1
     5    2    7 ar
     6    2    3 ar
     7    3    4 ar
     8    3   30 1
     9    4    5 ar
    10    4   31 1
    11    5    6 ar
    12    5   32 1
    13    6    7 ar
    14    6    8 1
    15    7   33 1
    16    8    9 1
    17    9   10 1
    18    9   11 1
    19    9   12 1
    20   11   34 1
    21   11   35 1
    22   11   36 1
    23   12   13 2
    24   12   14 1
    25   14   15 2
    26   15   20 1
    27   15   16 1
    28   16   17 1
    29   16   18 1
    30   18   19 2
    31   18   21 1
    32   19   20 1
    33   20   42 1
    34   21   26 ar
    35   21   22 ar
    36   22   23 ar
    37   22   37 1
    38   23   24 ar
    39   23   38 1
    40   24   25 ar
    41   24   39 1
    42   25   26 ar
    43   25   40 1
    44   26   41 1
@<TRIPOS>MOLECULE
ZINC00020245
   46    48     0     0     0
SMALL
USER_CHARGES

@<TRIPOS>ATOM
      1 C1         -5.6836    1.3838    0.0162 C.3       1 <0>        -0.0473
      2 N1         -5.6620   -0.0833   -0.0564 N.4       1 <0>        -0.3868
      3 C2         -6.3713   -0.5242   -1.2649 C.3       1 <0>        -0.0522
      4 C3         -4.2702   -0.5505   -0.1076 C.3       1 <0>        -0.0086
      5 C4         -4.2434   -2.0795   -0.0575 C.3       1 <0>        -0.1781
      6 C5         -2.7938   -2.5661   -0.1108 C.3       1 <0>         0.1490
      7 N2         -2.7704   -4.0309   -0.1190 N.pl3     1 <0>        -0.6108
      8 C6         -2.7295   -4.7451   -1.3212 C.ar      1 <0>         0.1758
      9 C7         -1.6865   -4.4783   -2.2022 C.ar      1 <0>        -0.1411
     10 C8         -1.5734   -5.1772   -3.3856 C.ar      1 <0>        -0.1022
     11 C9         -2.5089   -6.1508   -3.6854 C.ar      1 <0>        -0.1266
     12 C10        -3.5489   -6.4041   -2.8209 C.ar      1 <0>        -0.1101
     13 C11        -3.6933   -5.6947   -1.6266 C.ar      1 <0>        -0.0998
     14 C12        -4.9357   -6.0340   -0.8354 C.3       1 <0>        -0.0687
     15 C13        -5.1005   -5.1892    0.4158 C.3       1 <0>        -0.0773
     16 C14        -3.9592   -5.4030    1.3779 C.ar      1 <0>        -0.0996
     17 C15        -2.7824   -4.7590    1.0748 C.ar      1 <0>         0.1523
     18 C16        -1.6837   -4.8488    1.9126 C.ar      1 <0>        -0.1184
     19 C17        -1.7825   -5.6251    3.0560 C.ar      1 <0>        -0.1094
     20 C18        -2.9565   -6.2950    3.3488 C.ar      1 <0>        -0.1165
     21 C19        -4.0679   -6.1865    2.5030 C.ar      1 <0>        -0.1028
     22 H1         -6.7163    1.7305    0.0542 H         1 <0>         0.1245
     23 H2         -5.1573    1.7109    0.9129 H         1 <0>         0.1235
     24 H3         -5.1933    1.7984   -0.8646 H         1 <0>         0.1221
     25 H4         -6.3552   -1.6128   -1.3188 H         1 <0>         0.1231
     26 H5         -7.4040   -0.1775   -1.2269 H         1 <0>         0.1246
     27 H6         -5.8810   -0.1096   -2.1457 H         1 <0>         0.1227
     28 H7         -3.8061   -0.2091   -1.0329 H         1 <0>         0.1308
     29 H8         -3.7207   -0.1494    0.7440 H         1 <0>         0.1320
     30 H9         -4.7075   -2.4209    0.8678 H         1 <0>         0.0908
     31 H10        -4.7929   -2.4806   -0.9091 H         1 <0>         0.0915
     32 H11        -2.3174   -2.1901   -1.0161 H         1 <0>         0.0824
     33 H12        -2.2550   -2.1990    0.7627 H         1 <0>         0.0801
     34 H13        -0.9599   -3.7176   -1.9576 H         1 <0>         0.1215
     35 H14        -0.7646   -4.9667   -4.0697 H         1 <0>         0.1276
     36 H15        -2.4229   -6.7145   -4.6025 H         1 <0>         0.1250
     37 H16        -4.2693   -7.1687   -3.0712 H         1 <0>         0.1222
     38 H17        -5.8074   -5.8880   -1.4734 H         1 <0>         0.0793
     39 H18        -4.8898   -7.0837   -0.5452 H         1 <0>         0.0765
     40 H19        -5.1365   -4.1371    0.1334 H         1 <0>         0.0724
     41 H20        -6.0358   -5.4578    0.9068 H         1 <0>         0.0709
     42 H21        -0.7686   -4.3248    1.6795 H         1 <0>         0.1257
     43 H22        -0.9372   -5.7074    3.7231 H         1 <0>         0.1275
     44 H23        -3.0178   -6.9071    4.2365 H         1 <0>         0.1269
     45 H24        -4.9880   -6.7067    2.7249 H         1 <0>         0.1290
     46 H25        -6.1159   -0.4671    0.7589 H         1 <0>         0.4268
@<TRIPOS>BOND
     1    1    2 1
     2    1   22 1
     3    1   23 1
     4    1   24 1
     5    2    3 1
     6    2    4 1
     7    2   46 1
     8    3   25 1
     9    3   26 1
    10    3   27 1
    11    4    5 1
    12    4   28 1
    13    4   29 1
    14    5    6 1
    15    5   30 1
    16    5   31 1
    17    6    7 1
    18    6   32 1
    19    6   33 1
    20    7   17 1
    21    7    8 1
    22    8   13 ar
    23    8    9 ar
    24    9   10 ar
    25    9   34 1
    26   10   11 ar
    27   10   35 1
    28   11   12 ar
    29   11   36 1
    30   12   13 ar
    31   12   37 1
    32   13   14 1
    33   14   15 1
    34   14   38 1
    35   14   39 1
    36   15   16 1
    37   15   40 1
    38   15   41 1
    39   16   21 ar
    40   16   17 ar
    41   17   18 ar
    42   18   19 ar
    43   18   42 1
    44   19   20 ar
    45   19   43 1
    46   20   21 ar
    47   20   44 1
    48   21   45 1
@<TRIPOS>MOLECULE
ZINC02004584
   57    58     0     0     0
SMALL
USER_CHARGES

@<TRIPOS>ATOM
      1 C1         -0.2067    1.5669   -0.3181 C.3       1 <0>        -0.1502
      2 C2         -0.1345    0.0387   -0.3085 C.3       1 <0>        -0.1222
      3 C3         -1.5233   -0.5357   -0.0220 C.3       1 <0>        -0.1035
      4 C4         -1.4522   -2.0410   -0.0125 C.ar      1 <0>         0.0530
      5 C5         -1.6477   -2.7760   -1.1858 C.ar      1 <0>        -0.1894
      6 C6         -1.5736   -4.1712   -1.1378 C.ar      1 <0>         0.2086
      7 N1         -1.3237   -4.7986   -0.0092 N.ar      1 <0>        -0.4658
      8 C7         -1.1313   -4.1452    1.1291 C.ar      1 <0>         0.2443
      9 C8         -1.1837   -2.7382    1.1668 C.ar      1 <0>        -0.1596
     10 C9         -0.9633   -2.0134    2.4326 C.2       1 <0>         0.5318
     11 O1         -1.9126   -1.6601    3.1036 O.2       1 <0>        -0.4876
     12 O2          0.2908   -1.7431    2.8446 O.3       1 <0>        -0.3371
     13 C10         0.4300   -1.0381    4.0798 C.3       1 <0>         0.0615
     14 C11         1.9149   -0.8244    4.3804 C.3       1 <0>        -0.1231
     15 C12         2.0640   -0.0695    5.7028 C.3       1 <0>        -0.1505
     16 C13        -0.8534   -4.9018    2.3706 C.ar      1 <0>        -0.0678
     17 C14        -1.4981   -4.5584    3.5594 C.ar      1 <0>        -0.1044
     18 C15        -1.2347   -5.2676    4.7132 C.ar      1 <0>        -0.1182
     19 C16        -0.3331   -6.3168    4.6932 C.ar      1 <0>        -0.0993
     20 C17         0.3098   -6.6620    3.5176 C.ar      1 <0>        -0.1221
     21 C18         0.0500   -5.9649    2.3556 C.ar      1 <0>        -0.0691
     22 C19        -1.7838   -4.9690   -2.3989 C.3       1 <0>        -0.0878
     23 C20        -0.4408   -5.1734   -3.1029 C.3       1 <0>        -0.1482
     24 C21        -1.9296   -2.0863   -2.4613 C.2       1 <0>         0.4149
     25 O3         -1.0132   -1.7542   -3.1886 O.2       1 <0>        -0.4208
     26 S1         -3.5937   -1.7448   -2.9291 S.3       1 <0>        -0.1659
     27 C22        -3.4364   -0.9077   -4.5307 C.3       1 <0>        -0.0954
     28 C23        -4.8274   -0.5502   -5.0581 C.3       1 <0>        -0.1393
     29 H1          0.7827    1.9762   -0.5222 H         1 <0>         0.0620
     30 H2         -0.9015    1.8930   -1.0921 H         1 <0>         0.0565
     31 H3         -0.5528    1.9205    0.6531 H         1 <0>         0.0568
     32 H4          0.2116   -0.3148   -1.2797 H         1 <0>         0.0716
     33 H5          0.5603   -0.2874    0.4655 H         1 <0>         0.0711
     34 H6         -1.8695   -0.1822    0.9493 H         1 <0>         0.0895
     35 H7         -2.2181   -0.2097   -0.7960 H         1 <0>         0.0891
     36 H8         -0.0682   -0.0716    4.0046 H         1 <0>         0.0708
     37 H9         -0.0233   -1.6191    4.8829 H         1 <0>         0.0716
     38 H10         2.4132   -1.7909    4.4556 H         1 <0>         0.0752
     39 H11         2.3683   -0.2434    3.5773 H         1 <0>         0.0746
     40 H12         1.5658    0.8970    5.6277 H         1 <0>         0.0587
     41 H13         1.6107   -0.6505    6.5060 H         1 <0>         0.0590
     42 H14         3.1219    0.0827    5.9170 H         1 <0>         0.0668
     43 H15        -2.2015   -3.7391    3.5765 H         1 <0>         0.1335
     44 H16        -1.7330   -5.0028    5.6341 H         1 <0>         0.1292
     45 H17        -0.1300   -6.8687    5.5991 H         1 <0>         0.1280
     46 H18         1.0130   -7.4816    3.5086 H         1 <0>         0.1304
     47 H19         0.5486   -6.2386    1.4375 H         1 <0>         0.1306
     48 H20        -2.2138   -5.9386   -2.1480 H         1 <0>         0.0995
     49 H21        -2.4626   -4.4307   -3.0604 H         1 <0>         0.0841
     50 H22        -0.0108   -4.2037   -3.3538 H         1 <0>         0.0598
     51 H23         0.2379   -5.7117   -2.4414 H         1 <0>         0.0643
     52 H24        -0.5929   -5.7504   -4.0151 H         1 <0>         0.0707
     53 H25        -2.8491    0.0024   -4.4088 H         1 <0>         0.0948
     54 H26        -2.9383   -1.5696   -5.2392 H         1 <0>         0.0957
     55 H27        -5.4148   -1.4603   -5.1799 H         1 <0>         0.0691
     56 H28        -5.3256    0.1116   -4.3496 H         1 <0>         0.0686
     57 H29        -4.7329   -0.0473   -6.0205 H         1 <0>         0.0814
@<TRIPOS>BOND
     1    1    2 1
     2    1   29 1
     3    1   30 1
     4    1   31 1
     5    2    3 1
     6    2   32 1
     7    2   33 1
     8    3    4 1
     9    3   34 1
    10    3   35 1
    11    4    9 ar
    12    4    5 ar
    13    5    6 ar
    14    5   24 1
    15    6    7 ar
    16    6   22 1
    17    7    8 ar
    18    8    9 ar
    19    8   16 1
    20    9   10 1
    21   10   11 2
    22   10   12 1
    23   12   13 1
    24   13   14 1
    25   13   36 1
    26   13   37 1
    27   14   15 1
    28   14   38 1
    29   14   39 1
    30   15   40 1
    31   15   41 1
    32   15   42 1
    33   16   21 ar
    34   16   17 ar
    35   17   18 ar
    36   17   43 1
    37   18   19 ar
    38   18   44 1
    39   19   20 ar
    40   19   45 1
    41   20   21 ar
    42   20   46 1
    43   21   47 1
    44   22   23 1
    45   22   48 1
    46   22   49 1
    47   23   50 1
    48   23   51 1
    49   23   52 1
    50   24   25 2
    51   24   26 1
    52   26   27 1
    53   27   28 1
    54   27   53 1
    55   27   54 1
    56   28   55 1
    57   28   56 1
    58   28   57 1
@<TRIPOS>MOLECULE
ZINC00722314
   53    55     0     0     0
SMALL
USER_CHARGES
diethyl 8-(2-phenylacetyl)amino-7-thia-4-azabicyclo[4.3.0]nona-8,10-diene-4,9-dicarboxylate
@<TRIPOS>ATOM
      1 C1         10.8688   -1.8142   -0.8651 C.3       1 <0>        -0.1536
      2 C2          9.7879   -2.8322   -1.2342 C.3       1 <0>         0.0581
      3 O1          8.8412   -2.2221   -2.1506 O.3       1 <0>        -0.3500
      4 C3          7.8184   -2.9915   -2.5765 C.2       1 <0>         0.5318
      5 O2          7.7211   -4.1413   -2.1919 O.2       1 <0>        -0.4928
      6 C4          6.8252   -2.4425   -3.5020 C.2       1 <0>        -0.2123
      7 C5          6.9992   -2.5446   -4.9421 C.2       1 <0>        -0.0458
      8 C6          6.0108   -1.9924   -5.6784 C.2       1 <0>        -0.2456
      9 S1          4.8631   -1.3508   -4.4942 S.3       1 <0>         0.2782
     10 C7          5.6806   -1.8088   -3.0367 C.2       1 <0>         0.0868
     11 N1          5.2899   -1.5902   -1.7248 N.am      1 <0>        -0.6230
     12 C8          4.1359   -0.9447   -1.4640 C.2       1 <0>         0.5108
     13 O3          3.4393   -0.5550   -2.3771 O.2       1 <0>        -0.4823
     14 C9          3.7112   -0.7071   -0.0378 C.3       1 <0>        -0.0939
     15 C10         2.3960    0.0285   -0.0212 C.ar      1 <0>        -0.0786
     16 C11         1.2084   -0.6789   -0.0136 C.ar      1 <0>        -0.1022
     17 C12         0.0021   -0.0041    0.0020 C.ar      1 <0>        -0.1179
     18 C13        -0.0167    1.3781    0.0096 C.ar      1 <0>        -0.1137
     19 C14         1.1709    2.0855    0.0021 C.ar      1 <0>        -0.1181
     20 C15         2.3773    1.4107   -0.0141 C.ar      1 <0>        -0.1022
     21 C16         5.9224   -1.9471   -7.1742 C.3       1 <0>         0.2047
     22 N2          7.2217   -2.4091   -7.7013 N.am      1 <0>        -0.5946
     23 C17         7.8464   -3.5686   -7.0466 C.3       1 <0>         0.1310
     24 C18         8.1995   -3.2121   -5.6014 C.3       1 <0>        -0.0816
     25 C19         7.8130   -1.7920   -8.7434 C.2       1 <0>         0.6583
     26 O4          8.8827   -2.1915   -9.1588 O.2       1 <0>        -0.5671
     27 O5          7.2184   -0.7328   -9.3242 O.3       1 <0>        -0.3689
     28 C20         7.9125   -0.1177  -10.4414 C.3       1 <0>         0.0819
     29 C21         7.0899    1.0606  -10.9666 C.3       1 <0>        -0.1540
     30 H1         11.5795   -2.2722   -0.1771 H         1 <0>         0.0824
     31 H2         11.3905   -1.4950   -1.7672 H         1 <0>         0.0683
     32 H3         10.4063   -0.9502   -0.3878 H         1 <0>         0.0667
     33 H4          9.2661   -3.1514   -0.3321 H         1 <0>         0.0709
     34 H5         10.2503   -3.6962   -1.7115 H         1 <0>         0.0727
     35 H6          5.8471   -1.9019   -0.9945 H         1 <0>         0.4205
     36 H7          4.4677   -0.1105    0.4720 H         1 <0>         0.1134
     37 H8          3.5987   -1.6640    0.4720 H         1 <0>         0.1135
     38 H9          1.2231   -1.7588   -0.0196 H         1 <0>         0.1207
     39 H10        -0.9258   -0.5567    0.0079 H         1 <0>         0.1241
     40 H11        -0.9592    1.9054    0.0170 H         1 <0>         0.1234
     41 H12         1.1563    3.1654    0.0077 H         1 <0>         0.1240
     42 H13         3.3051    1.9634   -0.0204 H         1 <0>         0.1206
     43 H14         5.1260   -2.6064   -7.5193 H         1 <0>         0.0943
     44 H15         5.7297   -0.9262   -7.5041 H         1 <0>         0.1094
     45 H16         7.1510   -4.4079   -7.0540 H         1 <0>         0.0842
     46 H17         8.7536   -3.8440   -7.5844 H         1 <0>         0.1066
     47 H18         8.4572   -4.1194   -5.0551 H         1 <0>         0.0913
     48 H19         9.0475   -2.5273   -5.5921 H         1 <0>         0.0881
     49 H20         8.8882    0.2388  -10.1112 H         1 <0>         0.0712
     50 H21         8.0439   -0.8520  -11.2362 H         1 <0>         0.0719
     51 H22         6.9585    1.7949  -10.1718 H         1 <0>         0.0672
     52 H23         7.6110    1.5223  -11.8053 H         1 <0>         0.0835
     53 H24         6.1143    0.7041  -11.2969 H         1 <0>         0.0676
@<TRIPOS>BOND
     1    1    2 1
     2    1   30 1
     3    1   31 1
     4    1   32 1
     5    2    3 1
     6    2   33 1
     7    2   34 1
     8    3    4 1
     9    4    5 2
    10    4    6 1
    11    6   10 2
    12    6    7 1
    13    7   24 1
    14    7    8 2
    15    8    9 1
    16    8   21 1
    17    9   10 1
    18   10   11 1
    19   11   12 am
    20   11   35 1
    21   12   13 2
    22   12   14 1
    23   14   15 1
    24   14   36 1
    25   14   37 1
    26   15   20 ar
    27   15   16 ar
    28   16   17 ar
    29   16   38 1
    30   17   18 ar
    31   17   39 1
    32   18   19 ar
    33   18   40 1
    34   19   20 ar
    35   19   41 1
    36   20   42 1
    37   21   22 1
    38   21   43 1
    39   21   44 1
    40   22   23 1
    41   22   25 am
    42   23   24 1
    43   23   45 1
    44   23   46 1
    45   24   47 1
    46   24   48 1
    47   25   26 2
    48   25   27 1
    49   27   28 1
    50   28   29 1
    51   28   49 1
    52   28   50 1
    53   29   51 1
    54   29   52 1
    55   29   53 1
@<TRIPOS>MOLECULE
ZINC01199658
   46    49     0     0     0
SMALL
USER_CHARGES
6,7-dimethoxy-3-[4-(4-methoxyphenyl)thiazol-2-yl]amino-3H-isobenzofuran-1-one
@<TRIPOS>ATOM
      1 C1          6.5184   -1.3061   -0.0638 C.3       1 <0>         0.0256
      2 O1          6.3259    0.1099   -0.0551 O.3       1 <0>        -0.3164
      3 C2          5.0429    0.5581   -0.0412 C.ar      1 <0>         0.1358
      4 C3          4.7859    1.9221   -0.0322 C.ar      1 <0>        -0.1558
      5 C4          3.4849    2.3802   -0.0181 C.ar      1 <0>        -0.0428
      6 C5          2.4277    1.4717   -0.0129 C.ar      1 <0>        -0.0665
      7 C6          2.6892    0.1025   -0.0166 C.ar      1 <0>        -0.0598
      8 C7          3.9923   -0.3491   -0.0356 C.ar      1 <0>        -0.2097
      9 C8          1.0275    1.9609    0.0028 C.2       1 <0>         0.1438
     10 C9         -0.0126    1.0758    0.0080 C.2       1 <0>        -0.2284
     11 S1         -1.4051    2.1971    0.0193 S.3       1 <0>         0.0015
     12 C10        -0.4690    3.7195    0.0251 C.2       1 <0>         0.3774
     13 N1          0.7715    3.2671    0.0115 N.2       1 <0>        -0.5545
     14 N2         -0.9243    5.0279    0.0363 N.pl3     1 <0>        -0.6608
     15 C11        -2.3632    5.3027    0.0506 C.3       1 <0>         0.3647
     16 H1         -2.9029    4.4482    0.4591 H         1 <0>         0.1468
     17 C12        -2.6469    6.5352    0.8725 C.ar      1 <0>        -0.1472
     18 C13        -2.4348    6.8583    2.1907 C.ar      1 <0>        -0.0350
     19 C14        -2.8111    8.1028    2.6722 C.ar      1 <0>        -0.1641
     20 C15        -3.4037    9.0275    1.8289 C.ar      1 <0>         0.1234
     21 C16        -3.6243    8.7131    0.4913 C.ar      1 <0>         0.1520
     22 C17        -3.2440    7.4564    0.0043 C.ar      1 <0>        -0.1658
     23 C18        -3.3388    6.8349   -1.3256 C.2       1 <0>         0.5278
     24 O2         -3.8103    7.3690   -2.3099 O.2       1 <0>        -0.4213
     25 O3         -2.8296    5.5917   -1.2958 O.3       1 <0>        -0.3243
     26 O4         -4.2051    9.6188   -0.3361 O.3       1 <0>        -0.3161
     27 C19        -3.3349   10.5152   -1.0299 C.3       1 <0>         0.0403
     28 O5         -3.7705   10.2460    2.3088 O.3       1 <0>        -0.2973
     29 C20        -3.5144   10.5028    3.6910 C.3       1 <0>         0.0200
     30 H2          7.5856   -1.5276   -0.0746 H         1 <0>         0.1015
     31 H3          6.0663   -1.7397    0.8282 H         1 <0>         0.0569
     32 H4          6.0501   -1.7310   -0.9516 H         1 <0>         0.0570
     33 H5          5.6054    2.6255   -0.0366 H         1 <0>         0.1336
     34 H6          3.2856    3.4417   -0.0108 H         1 <0>         0.1394
     35 H7          1.8723   -0.6039   -0.0081 H         1 <0>         0.1290
     36 H8          4.1956   -1.4098   -0.0426 H         1 <0>         0.1323
     37 H9          0.0021   -0.0041    0.0020 H         1 <0>         0.1987
     38 H10        -0.2904    5.7621    0.0347 H         1 <0>         0.4226
     39 H11        -1.9734    6.1412    2.8535 H         1 <0>         0.1473
     40 H12        -2.6418    8.3518    3.7093 H         1 <0>         0.1530
     41 H13        -2.6491    9.9442   -1.6558 H         1 <0>         0.0490
     42 H14        -3.9260   11.1843   -1.6552 H         1 <0>         0.1029
     43 H15        -2.7658   11.1008   -0.3079 H         1 <0>         0.0507
     44 H16        -4.0492    9.7747    4.3009 H         1 <0>         0.0626
     45 H17        -2.4446   10.4222    3.8834 H         1 <0>         0.0613
     46 H18        -3.8542   11.5074    3.9429 H         1 <0>         0.1092
@<TRIPOS>BOND
     1    1    2 1
     2    1   30 1
     3    1   31 1
     4    1   32 1
     5    2    3 1
     6    3    8 ar
     7    3    4 ar
     8    4    5 ar
     9    4   33 1
    10    5    6 ar
    11    5   34 1
    12    6    7 ar
    13    6    9 1
    14    7    8 ar
    15    7   35 1
    16    8   36 1
    17    9   13 1
    18    9   10 2
    19   10   11 1
    20   10   37 1
    21   11   12 1
    22   12   13 2
    23   12   14 1
    24   14   15 1
    25   14   38 1
    26   15   16 1
    27   15   25 1
    28   15   17 1
    29   17   22 ar
    30   17   18 ar
    31   18   19 ar
    32   18   39 1
    33   19   20 ar
    34   19   40 1
    35   20   21 ar
    36   20   28 1
    37   21   22 ar
    38   21   26 1
    39   22   23 1
    40   23   24 2
    41   23   25 1
    42   26   27 1
    43   27   41 1
    44   27   42 1
    45   27   43 1
    46   28   29 1
    47   29   44 1
    48   29   45 1
    49   29   46 1
@<TRIPOS>MOLECULE
ZINC01199660
   46    49     0     0     0
SMALL
USER_CHARGES
6,7-dimethoxy-3-[4-(4-methoxyphenyl)thiazol-2-yl]amino-3H-isobenzofuran-1-one
@<TRIPOS>ATOM
      1 C1         -1.1501    3.4739    0.0264 C.3       1 <0>         0.0256
      2 O1         -1.2037    2.0459    0.0189 O.3       1 <0>        -0.3164
      3 C2         -0.0167    1.3839    0.0097 C.ar      1 <0>         0.1359
      4 C3          1.1740    2.0971    0.0021 C.ar      1 <0>        -0.2097
      5 C4          2.3802    1.4283   -0.0130 C.ar      1 <0>        -0.0597
      6 C5          2.4025    0.0345   -0.0207 C.ar      1 <0>        -0.0668
      7 C6          1.2049   -0.6789   -0.0131 C.ar      1 <0>        -0.0427
      8 C7          0.0021   -0.0041    0.0020 C.ar      1 <0>        -0.1557
      9 C8          3.6979   -0.6880   -0.0364 C.2       1 <0>         0.1442
     10 C9          4.8745    0.0053   -0.0439 C.2       1 <0>        -0.2279
     11 S1          6.0536   -1.3385   -0.0609 S.3       1 <0>        -0.0005
     12 C10         4.8699   -2.6775   -0.0564 C.2       1 <0>         0.3780
     13 N1          3.7257   -2.0188   -0.0378 N.2       1 <0>        -0.5543
     14 N2          5.0937   -4.0448   -0.0642 N.pl3     1 <0>        -0.6610
     15 C11         6.4641   -4.5626   -0.0789 C.3       1 <0>         0.3655
     16 H1          7.1541   -3.7851   -0.4068 H         1 <0>         0.1464
     17 C12         6.5564   -5.7570   -0.9955 C.ar      1 <0>        -0.1473
     18 C13         6.3312   -5.9335   -2.3389 C.ar      1 <0>        -0.0348
     19 C14         6.5032   -7.1824   -2.9160 C.ar      1 <0>        -0.1639
     20 C15         6.9028   -8.2595   -2.1429 C.ar      1 <0>         0.1231
     21 C16         7.1344   -8.0944   -0.7806 C.ar      1 <0>         0.1522
     22 C17         6.9608   -6.8333   -0.1972 C.ar      1 <0>        -0.1666
     23 C18         7.1213   -6.3444    1.1808 C.2       1 <0>         0.5277
     24 O2          7.4652   -7.0279    2.1247 O.2       1 <0>        -0.4210
     25 O3          6.8339   -5.0334    1.2461 O.3       1 <0>        -0.3234
     26 O4          7.5257   -9.1496   -0.0219 O.3       1 <0>        -0.3162
     27 C19         6.4939   -9.9330    0.5814 C.3       1 <0>         0.0403
     28 O5          7.0689   -9.4815   -2.7161 O.3       1 <0>        -0.2973
     29 C20         6.8142   -9.5802   -4.1187 C.3       1 <0>         0.0200
     30 H2         -2.1633    3.8755    0.0333 H         1 <0>         0.1015
     31 H3         -0.6188    3.8128    0.9157 H         1 <0>         0.0570
     32 H4         -0.6272    3.8225   -0.8642 H         1 <0>         0.0569
     33 H5          1.1560    3.1770    0.0081 H         1 <0>         0.1323
     34 H6          3.3064    1.9838   -0.0184 H         1 <0>         0.1290
     35 H7          1.2189   -1.7588   -0.0186 H         1 <0>         0.1395
     36 H8         -0.9261   -0.5562    0.0083 H         1 <0>         0.1337
     37 H9          5.0456    1.0716   -0.0409 H         1 <0>         0.1988
     38 H10         4.3431   -4.6591   -0.0600 H         1 <0>         0.4225
     39 H11         6.0190   -5.0975   -2.9472 H         1 <0>         0.1469
     40 H12         6.3248   -7.3158   -3.9727 H         1 <0>         0.1528
     41 H13         5.8980   -9.3027    1.2414 H         1 <0>         0.0490
     42 H14         5.8546  -10.3521   -0.1957 H         1 <0>         0.0507
     43 H15         6.9422  -10.7418    1.1584 H         1 <0>         0.1028
     44 H16         7.4842   -8.9104   -4.6577 H         1 <0>         0.0625
     45 H17         6.9837  -10.6055   -4.4475 H         1 <0>         0.1092
     46 H18         5.7804   -9.3000   -4.3209 H         1 <0>         0.0612
@<TRIPOS>BOND
     1    1    2 1
     2    1   30 1
     3    1   31 1
     4    1   32 1
     5    2    3 1
     6    3    8 ar
     7    3    4 ar
     8    4    5 ar
     9    4   33 1
    10    5    6 ar
    11    5   34 1
    12    6    7 ar
    13    6    9 1
    14    7    8 ar
    15    7   35 1
    16    8   36 1
    17    9   13 1
    18    9   10 2
    19   10   11 1
    20   10   37 1
    21   11   12 1
    22   12   13 2
    23   12   14 1
    24   14   15 1
    25   14   38 1
    26   15   16 1
    27   15   25 1
    28   15   17 1
    29   17   22 ar
    30   17   18 ar
    31   18   19 ar
    32   18   39 1
    33   19   20 ar
    34   19   40 1
    35   20   21 ar
    36   20   28 1
    37   21   22 ar
    38   21   26 1
    39   22   23 1
    40   23   24 2
    41   23   25 1
    42   26   27 1
    43   27   41 1
    44   27   42 1
    45   27   43 1
    46   28   29 1
    47   29   44 1
    48   29   45 1
    49   29   46 1
@<TRIPOS>MOLECULE
ZINC03811810
   48    51     0     0     0
SMALL
USER_CHARGES

@<TRIPOS>ATOM
      1 C1         -0.0178    1.4608    0.0101 C.3       1 <0>         0.0858
      2 N1          0.0021   -0.0041    0.0020 N.am      1 <0>        -0.7308
      3 C2         -1.1558   -0.6938    0.0094 C.2       1 <0>         0.5149
      4 O1         -2.2142   -0.1017    0.0227 O.2       1 <0>        -0.5024
      5 C3         -1.1354   -2.2006    0.0011 C.3       1 <0>         0.0320
      6 H1         -0.5471   -2.5799    0.8366 H         1 <0>         0.1225
      7 C4         -0.5782   -2.7315   -1.3443 C.3       1 <0>         0.0506
      8 H2         -0.9118   -2.1105   -2.1757 H         1 <0>         0.0948
      9 C5         -1.2083   -4.1435   -1.4217 C.3       1 <0>         0.0832
     10 H3         -1.5347   -4.3603   -2.4388 H         1 <0>         0.0899
     11 C6         -2.4187   -4.0695   -0.4709 C.3       1 <0>         0.3144
     12 H4         -2.2882   -4.7738    0.3507 H         1 <0>         0.1316
     13 O2         -2.4789   -2.7275    0.0446 O.3       1 <0>        -0.3270
     14 N2         -3.6479   -4.3821   -1.2041 N.pl3     1 <0>        -0.4753
     15 C7         -4.4978   -3.4819   -1.7747 C.2       1 <0>         0.2660
     16 N3         -5.4881   -4.1049   -2.3448 N.2       1 <0>        -0.4586
     17 C8         -5.3371   -5.4406   -2.1768 C.ar      1 <0>        -0.1040
     18 C9         -4.1517   -5.6348   -1.4476 C.ar      1 <0>         0.3101
     19 N4         -3.7707   -6.8732   -1.1522 N.ar      1 <0>        -0.5538
     20 C10        -4.4895   -7.9064   -1.5380 C.ar      1 <0>         0.3661
     21 N5         -5.6079   -7.7739   -2.2273 N.ar      1 <0>        -0.5871
     22 C11        -6.0726   -6.5743   -2.5614 C.ar      1 <0>         0.5073
     23 N6         -7.2452   -6.4456   -3.2850 N.pl3     1 <0>        -0.6904
     24 C12        -7.9987   -7.6392   -3.6772 C.3       1 <0>         0.1703
     25 C13        -9.2253   -7.2276   -4.4499 C.ar      1 <0>        -0.1092
     26 C14       -10.4099   -6.9750   -3.7831 C.ar      1 <0>        -0.0788
     27 C15       -11.5351   -6.5975   -4.4915 C.ar      1 <0>        -0.1155
     28 C16       -11.4764   -6.4722   -5.8670 C.ar      1 <0>        -0.0754
     29 C17       -10.2918   -6.7247   -6.5341 C.ar      1 <0>        -0.1026
     30 C18        -9.1645   -7.0970   -5.8244 C.ar      1 <0>        -0.0641
     31 I1        -10.2026   -6.5356   -8.6187 I         1 <0>        -0.0379
     32 O3         -0.2777   -5.1316   -0.9750 O.3       1 <0>        -0.5314
     33 O4          0.8483   -2.8101   -1.3100 O.3       1 <0>        -0.5362
     34 H5          1.0048    1.8381    0.0023 H         1 <0>         0.0830
     35 H6         -0.5450    1.8219   -0.8730 H         1 <0>         0.0653
     36 H7         -0.5280    1.8123    0.9069 H         1 <0>         0.0657
     37 H8          0.8486   -0.4776   -0.0086 H         1 <0>         0.3996
     38 H9         -4.3686   -2.4098   -1.7561 H         1 <0>         0.2242
     39 H10        -4.1517   -8.8996   -1.2813 H         1 <0>         0.2060
     40 H11        -7.5682   -5.5651   -3.5326 H         1 <0>         0.4195
     41 H12        -7.3721   -8.2754   -4.3023 H         1 <0>         0.0825
     42 H13        -8.2988   -8.1888   -2.7851 H         1 <0>         0.0840
     43 H14       -10.4561   -7.0732   -2.7086 H         1 <0>         0.1321
     44 H15       -12.4604   -6.4006   -3.9704 H         1 <0>         0.1349
     45 H16       -12.3557   -6.1775   -6.4205 H         1 <0>         0.1316
     46 H17        -8.2379   -7.2896   -6.3447 H         1 <0>         0.1313
     47 H18         0.5294   -5.1801   -1.5054 H         1 <0>         0.3970
     48 H19         1.2858   -1.9588   -1.1720 H         1 <0>         0.3844
@<TRIPOS>BOND
     1    1    2 1
     2    1   34 1
     3    1   35 1
     4    1   36 1
     5    2    3 am
     6    2   37 1
     7    3    4 2
     8    3    5 1
     9    5    6 1
    10    5   13 1
    11    5    7 1
    12    7    8 1
    13    7    9 1
    14    7   33 1
    15    9   10 1
    16    9   11 1
    17    9   32 1
    18   11   12 1
    19   11   13 1
    20   11   14 1
    21   14   18 1
    22   14   15 1
    23   15   16 2
    24   15   38 1
    25   16   17 1
    26   17   22 ar
    27   17   18 ar
    28   18   19 ar
    29   19   20 ar
    30   20   21 ar
    31   20   39 1
    32   21   22 ar
    33   22   23 1
    34   23   24 1
    35   23   40 1
    36   24   25 1
    37   24   41 1
    38   24   42 1
    39   25   30 ar
    40   25   26 ar
    41   26   27 ar
    42   26   43 1
    43   27   28 ar
    44   27   44 1
    45   28   29 ar
    46   28   45 1
    47   29   30 ar
    48   29   31 1
    49   30   46 1
    50   32   47 1
    51   33   48 1
@<TRIPOS>MOLECULE
ZINC00006427
   33    35     0     0     0
SMALL
USER_CHARGES

@<TRIPOS>ATOM
      1 C1          0.5645    1.4220    0.1928 C.3       1 <0>         0.0583
      2 N1          0.3235   -0.0204    0.1049 N.am      1 <0>        -0.5555
      3 C2         -0.9927   -0.4531    0.1626 C.ar      1 <0>         0.1844
      4 C3         -1.9457    0.2992   -0.5272 C.ar      1 <0>        -0.1319
      5 C4         -3.2733   -0.0670   -0.5149 C.ar      1 <0>        -0.0651
      6 C5         -3.6777   -1.1917    0.1872 C.ar      1 <0>        -0.0514
      7 C6         -2.7519   -1.9453    0.8726 C.ar      1 <0>        -0.0516
      8 C7         -1.3954   -1.5853    0.8674 C.ar      1 <0>        -0.1200
      9 C8         -0.4607   -2.4388    1.6175 C.2       1 <0>         0.2679
     10 N2          0.7150   -2.7715    1.2168 N.2       1 <0>        -0.4888
     11 C9          1.2537   -2.3110   -0.0624 C.3       1 <0>         0.0242
     12 C10         1.3847   -0.8126   -0.0296 C.2       1 <0>         0.5094
     13 O1          2.4861   -0.3137   -0.1239 O.2       1 <0>        -0.5107
     14 C11        -0.9076   -2.9538    2.9327 C.ar      1 <0>        -0.0709
     15 C12        -0.3330   -4.1079    3.4647 C.ar      1 <0>        -0.0682
     16 C13        -0.7535   -4.5827    4.6901 C.ar      1 <0>        -0.1263
     17 C14        -1.7429   -3.9163    5.3909 C.ar      1 <0>        -0.0986
     18 C15        -2.3166   -2.7710    4.8684 C.ar      1 <0>        -0.1241
     19 C16        -1.9005   -2.2832    3.6466 C.ar      1 <0>        -0.0904
     20 Cl1        -5.3522   -1.6496    0.2025 Cl        1 <0>        -0.0531
     21 H1          1.6353    1.6160    0.1296 H         1 <0>         0.1025
     22 H2          0.0549    1.9262   -0.6283 H         1 <0>         0.0740
     23 H3          0.1827    1.7970    1.1424 H         1 <0>         0.0729
     24 H4         -1.6385    1.1774   -1.0758 H         1 <0>         0.1452
     25 H5         -4.0004    0.5233   -1.0528 H         1 <0>         0.1468
     26 H6         -3.0719   -2.8206    1.4183 H         1 <0>         0.1484
     27 H7          2.2331   -2.7595   -0.2287 H         1 <0>         0.1343
     28 H8          0.5774   -2.5976   -0.8678 H         1 <0>         0.0942
     29 H9          0.4392   -4.6292    2.9184 H         1 <0>         0.1347
     30 H10        -0.3096   -5.4765    5.1029 H         1 <0>         0.1285
     31 H11        -2.0690   -4.2920    6.3495 H         1 <0>         0.1264
     32 H12        -3.0889   -2.2553    5.4199 H         1 <0>         0.1284
     33 H13        -2.3460   -1.3865    3.2417 H         1 <0>         0.1261
@<TRIPOS>BOND
     1    1    2 1
     2    1   21 1
     3    1   22 1
     4    1   23 1
     5    2   12 am
     6    2    3 1
     7    3    8 ar
     8    3    4 ar
     9    4    5 ar
    10    4   24 1
    11    5    6 ar
    12    5   25 1
    13    6    7 ar
    14    6   20 1
    15    7    8 ar
    16    7   26 1
    17    8    9 1
    18    9   10 2
    19    9   14 1
    20   10   11 1
    21   11   12 1
    22   11   27 1
    23   11   28 1
    24   12   13 2
    25   14   19 ar
    26   14   15 ar
    27   15   16 ar
    28   15   29 1
    29   16   17 ar
    30   16   30 1
    31   17   18 ar
    32   17   31 1
    33   18   19 ar
    34   18   32 1
    35   19   33 1
@<TRIPOS>MOLECULE
ZINC27195995
   37    39     0     0     0
SMALL
USER_CHARGES
2-amino-4-(4-hydroxyphenyl)-6-(1H-imidazol-2-ylmethylsulfanyl)pyridine-3,5-dicarbonitrile
@<TRIPOS>ATOM
      1 C1         -2.1592    2.0697   -1.0740 C.ar      1 <0>        -0.0416
      2 C2         -3.3512    2.7607   -1.0589 C.ar      1 <0>        -0.1604
      3 C3         -3.6890    3.5427    0.0386 C.ar      1 <0>         0.1793
      4 C4         -2.8292    3.6278    1.1265 C.ar      1 <0>        -0.2142
      5 C5         -1.6377    2.9360    1.1210 C.ar      1 <0>        -0.0430
      6 C6         -1.2948    2.1485    0.0199 C.ar      1 <0>        -0.1358
      7 C7         -0.0170    1.4050    0.0098 C.ar      1 <0>         0.1689
      8 C8          1.2181    2.0849    0.0016 C.ar      1 <0>        -0.1628
      9 C9          2.4085    1.3352   -0.0138 C.ar      1 <0>         0.5036
     10 N1          2.3794    0.0120   -0.0206 N.ar      1 <0>        -0.5535
     11 C10         1.2431   -0.6686   -0.0134 C.ar      1 <0>         0.2398
     12 C11         0.0021   -0.0041    0.0020 C.ar      1 <0>        -0.1246
     13 C12        -1.2214   -0.7482    0.0102 C.1       1 <0>         0.2580
     14 N2         -2.1920   -1.3385    0.0166 N.1       1 <0>        -0.3941
     15 S1          1.2853   -2.4300   -0.0227 S.3       1 <0>         0.0070
     16 C13         3.0747   -2.7014   -0.0414 C.3       1 <0>        -0.0239
     17 C14         3.3582   -4.1815   -0.0517 C.2       1 <0>         0.1888
     18 N3          3.5223   -4.9590    1.0402 N.pl3     1 <0>        -0.5707
     19 H1          3.4541   -4.5172    2.0453 H         1 <0>         0.4499
     20 C15         3.7568   -6.2332    0.5985 C.2       1 <0>        -0.0259
     21 C16         3.7371   -6.1887   -0.7474 C.2       1 <0>        -0.0289
     22 N4          3.4915   -4.9231   -1.1172 N.2       1 <0>        -0.4704
     23 N5          3.6244    1.9891   -0.0223 N.pl3     1 <0>        -0.8447
     24 C17         1.2603    3.5163    0.0089 C.1       1 <0>         0.2605
     25 N6          1.2937    4.6518    0.0147 N.1       1 <0>        -0.4068
     26 O1         -4.8625    4.2261    0.0477 O.3       1 <0>        -0.5052
     27 H2         -1.8954    1.4653   -1.9292 H         1 <0>         0.1345
     28 H3         -4.0221    2.6970   -1.9028 H         1 <0>         0.1365
     29 H4         -3.0953    4.2368    1.9779 H         1 <0>         0.1338
     30 H5         -0.9697    3.0029    1.9669 H         1 <0>         0.1285
     31 H6          3.5063   -2.2391   -0.9414 H         1 <0>         0.1313
     32 H7          3.5237   -2.2483    0.8547 H         1 <0>         0.1158
     33 H8          3.9287   -7.1056    1.2113 H         1 <0>         0.1801
     34 H9          3.8922   -7.0255   -1.4123 H         1 <0>         0.1744
     35 H10         4.5599    1.4106   -0.0343 H         1 <0>         0.4397
     36 H11         3.6576    3.0886   -0.0170 H         1 <0>         0.4382
     37 H12        -5.1314    4.8457    0.9159 H         1 <0>         0.4381
@<TRIPOS>BOND
     1    1    6 ar
     2    1    2 ar
     3    1   27 1
     4    2    3 ar
     5    2   28 1
     6    3    4 ar
     7    3   26 1
     8    4    5 ar
     9    4   29 1
    10    5    6 ar
    11    5   30 1
    12    6    7 1
    13    7   12 ar
    14    7    8 ar
    15    8    9 ar
    16    8   24 1
    17    9   10 ar
    18    9   23 1
    19   10   11 ar
    20   11   12 ar
    21   11   15 1
    22   12   13 1
    23   13   14 3
    24   15   16 1
    25   16   17 1
    26   16   31 1
    27   16   32 1
    28   17   22 2
    29   17   18 1
    30   18   19 1
    31   18   20 1
    32   20   21 2
    33   20   33 1
    34   21   22 1
    35   21   34 1
    36   23   35 1
    37   23   36 1
    38   24   25 3
    39   26   37 1
@<TRIPOS>MOLECULE
ZINC02022527
   54    55     0     0     0
SMALL
USER_CHARGES

@<TRIPOS>ATOM
      1 C1         -3.0730    2.2881   -4.2693 C.3       1 <0>        -0.1569
      2 C2         -2.3049    1.5870   -3.1471 C.3       1 <0>        -0.1270
      3 C3         -2.8110    2.0874   -1.7927 C.3       1 <0>        -0.1231
      4 C4         -2.0429    1.3862   -0.6705 C.3       1 <0>        -0.1174
      5 C5         -2.5490    1.8867    0.6839 C.3       1 <0>        -0.1006
      6 C6         -2.2117    3.3722    0.8391 C.3       1 <0>        -0.1451
      7 C7         -2.6658    3.8518    2.2196 C.3       1 <0>        -0.0114
      8 C8         -2.3347    1.6429    3.1595 C.3       1 <0>        -0.0001
      9 C9         -1.8707    1.0973    1.8070 C.3       1 <0>        -0.1442
     10 C10        -2.2939    3.5901    4.5974 C.3       1 <0>        -0.0052
     11 C11        -2.1583    5.1140    4.5919 C.3       1 <0>        -0.1459
     12 C12        -2.4764    5.6593    5.9856 C.3       1 <0>        -0.1543
     13 C13        -2.3428    7.1604    5.9803 C.2       1 <0>         0.3987
     14 O1         -2.0245    7.7371    4.9623 O.2       1 <0>        -0.4456
     15 C14        -2.5986    7.9263    7.2106 C.ar      1 <0>        -0.1885
     16 C15        -3.0878    7.2813    8.3513 C.ar      1 <0>        -0.0705
     17 C16        -3.3195    8.0047    9.5018 C.ar      1 <0>        -0.1389
     18 C17        -3.0801    9.3679    9.5265 C.ar      1 <0>        -0.0729
     19 C18        -2.6016   10.0143    8.4004 C.ar      1 <0>        -0.1345
     20 C19        -2.3594    9.3036    7.2436 C.ar      1 <0>        -0.0178
     21 C20        -1.8387   10.0095    6.0182 C.3       1 <0>        -0.1264
     22 H1         -4.1363    2.0676   -4.1746 H         1 <0>         0.0549
     23 H2         -2.9175    3.3647   -4.1985 H         1 <0>         0.0540
     24 H3         -2.7125    1.9316   -5.2342 H         1 <0>         0.0581
     25 H4         -1.2417    1.8075   -3.2417 H         1 <0>         0.0621
     26 H5         -2.4605    0.5104   -3.2179 H         1 <0>         0.0631
     27 H6         -3.8743    1.8669   -1.6981 H         1 <0>         0.0644
     28 H7         -2.6555    3.1639   -1.7219 H         1 <0>         0.0632
     29 H8         -2.1984    0.3097   -0.7413 H         1 <0>         0.0733
     30 H9         -0.9796    1.6067   -0.7651 H         1 <0>         0.0688
     31 H10        -3.6287    1.7492    0.7427 H         1 <0>         0.0884
     32 H11        -1.1354    3.5132    0.7407 H         1 <0>         0.0881
     33 H12        -2.7264    3.9447    0.0675 H         1 <0>         0.1133
     34 H13        -3.7442    3.7233    2.3122 H         1 <0>         0.1295
     35 H14        -2.4142    4.9057    2.3388 H         1 <0>         0.1342
     36 H15        -3.4146    1.5248    3.2476 H         1 <0>         0.1293
     37 H16        -1.8426    1.0924    3.9613 H         1 <0>         0.1282
     38 H17        -2.1418    0.0446    1.7270 H         1 <0>         0.1118
     39 H18        -0.7890    1.2025    1.7239 H         1 <0>         0.0880
     40 H19        -3.3133    3.3170    4.8704 H         1 <0>         0.1315
     41 H20        -1.5979    3.1659    5.3211 H         1 <0>         0.1302
     42 H21        -1.1389    5.3871    4.3190 H         1 <0>         0.0944
     43 H22        -2.8542    5.5382    3.8682 H         1 <0>         0.0968
     44 H23        -3.4115    5.4088    6.2361 H         1 <0>         0.0981
     45 H24        -1.7805    5.2352    6.7093 H         1 <0>         0.1100
     46 H25        -3.2793    6.2186    8.3321 H         1 <0>         0.1290
     47 H26        -3.6933    7.5074   10.3846 H         1 <0>         0.1322
     48 H27        -3.2682    9.9300   10.4293 H         1 <0>         0.1326
     49 H28        -2.4176   11.0782    8.4274 H         1 <0>         0.1332
     50 H29        -2.6709   10.2515    5.3572 H         1 <0>         0.0784
     51 H30        -1.3321   10.9277    6.3156 H         1 <0>         0.0652
     52 H31        -1.1365    9.3600    5.4956 H         1 <0>         0.0893
     53 N1         -1.9588    3.0696    3.2558 N.4       1 <0>        -0.3931
     54 H32        -0.9467    3.1581    3.1071 H         1 <0>         0.4272
@<TRIPOS>BOND
     1    1    2 1
     2    1   22 1
     3    1   23 1
     4    1   24 1
     5    2    3 1
     6    2   25 1
     7    2   26 1
     8    3    4 1
     9    3   27 1
    10    3   28 1
    11    4    5 1
    12    4   29 1
    13    4   30 1
    14    5    9 1
    15    5    6 1
    16    5   31 1
    17    6    7 1
    18    6   32 1
    19    6   33 1
    20    7   34 1
    21    7   35 1
    22    7   53 1
    23    8    9 1
    24    8   36 1
    25    8   37 1
    26    8   53 1
    27    9   38 1
    28    9   39 1
    29   10   11 1
    30   10   40 1
    31   10   41 1
    32   10   53 1
    33   11   12 1
    34   11   42 1
    35   11   43 1
    36   12   13 1
    37   12   44 1
    38   12   45 1
    39   13   14 2
    40   13   15 1
    41   15   20 ar
    42   15   16 ar
    43   16   17 ar
    44   16   46 1
    45   17   18 ar
    46   17   47 1
    47   18   19 ar
    48   18   48 1
    49   19   20 ar
    50   19   49 1
    51   20   21 1
    52   21   50 1
    53   21   51 1
    54   21   52 1
    55   53   54 1
@<TRIPOS>MOLECULE
ZINC01481744
   59    63     0     0     0
SMALL
USER_CHARGES
tert-butylBLAHol
@<TRIPOS>ATOM
      1 C1          7.4021    8.7034   -0.7443 C.3       1 <0>        -0.1466
      2 C2          7.5600    7.3733   -0.0048 C.3       1 <0>        -0.0472
      3 C3          8.5881    6.5044   -0.7320 C.3       1 <0>        -0.1553
      4 C4          8.0362    7.6381    1.4249 C.3       1 <0>        -0.1470
      5 C5          6.2137    6.6474    0.0323 C.3       1 <0>         0.1386
      6 C6          5.7356    6.3816   -1.3980 C.3       1 <0>        -0.1808
      7 C7          4.4166    5.6077   -1.3542 C.3       1 <0>        -0.0052
      8 C8          3.3652    3.5592   -0.6154 C.3       1 <0>        -0.0027
      9 C9          3.6680    2.1410   -0.1452 C.3       1 <0>        -0.0191
     10 H1          4.2105    1.6604   -0.9594 H         1 <0>         0.1021
     11 C10         2.3734    1.3946   -0.0260 C.ar      1 <0>        -0.0842
     12 C11         1.1723    2.0854    0.0021 C.ar      1 <0>        -0.1223
     13 C12        -0.0167    1.3784    0.0096 C.ar      1 <0>        -0.1108
     14 C13         0.0021   -0.0041    0.0020 C.ar      1 <0>        -0.1048
     15 C14         1.2071   -0.6813    0.0133 C.ar      1 <0>        -0.1051
     16 C15         2.3948    0.0364    0.0071 C.ar      1 <0>        -0.0695
     17 C16         3.7024   -0.6896    0.1021 C.3       1 <0>        -0.0845
     18 C17         4.3272   -0.4713    1.4512 C.3       1 <0>        -0.0850
     19 C18         4.8103    0.9217    1.7463 C.ar      1 <0>        -0.0444
     20 C19         4.5590    2.0827    1.0479 C.ar      1 <0>        -0.0603
     21 C20         5.1779    3.2568    1.4753 C.ar      1 <0>        -0.1299
     22 C21         5.9679    3.2844    2.6137 C.ar      1 <0>        -0.0975
     23 C22         6.1786    2.1330    3.3379 C.ar      1 <0>        -0.0990
     24 C23         5.6072    0.9672    2.8970 C.ar      1 <0>        -0.1046
     25 C24         5.0337    4.5665    0.7444 C.3       1 <0>         0.0810
     26 H2          4.2805    5.1671    1.2544 H         1 <0>         0.1391
     27 C25         6.3702    5.3111    0.7637 C.3       1 <0>        -0.1720
     28 O1          5.2533    7.4561    0.7147 O.3       1 <0>        -0.5331
     29 H3          6.6697    9.3225   -0.2261 H         1 <0>         0.0690
     30 H4          8.3612    9.2205   -0.7707 H         1 <0>         0.0638
     31 H5          7.0629    8.5148   -1.7628 H         1 <0>         0.0556
     32 H6          8.2488    6.3158   -1.7506 H         1 <0>         0.0600
     33 H7          9.5472    7.0215   -0.7584 H         1 <0>         0.0731
     34 H8          8.7006    5.5568   -0.2052 H         1 <0>         0.0598
     35 H9          8.1487    6.6905    1.9518 H         1 <0>         0.0543
     36 H10         8.9953    8.1552    1.3985 H         1 <0>         0.0641
     37 H11         7.3038    8.2571    1.9431 H         1 <0>         0.0692
     38 H12         6.4847    5.7942   -1.9288 H         1 <0>         0.1035
     39 H13         5.5840    7.3302   -1.9132 H         1 <0>         0.1274
     40 H14         4.0813    5.4044   -2.3713 H         1 <0>         0.1398
     41 H15         3.6639    6.2024   -0.8366 H         1 <0>         0.1295
     42 H16         2.9358    3.5269   -1.6168 H         1 <0>         0.1429
     43 H17         2.6573    4.0264    0.0692 H         1 <0>         0.1364
     44 H18         1.1646    3.1652    0.0175 H         1 <0>         0.1229
     45 H19        -0.9590    1.9060    0.0169 H         1 <0>         0.1296
     46 H20        -0.9263   -0.5557   -0.0124 H         1 <0>         0.1306
     47 H21         1.2241   -1.7611    0.0273 H         1 <0>         0.1320
     48 H22         3.5343   -1.7559   -0.0490 H         1 <0>         0.0895
     49 H23         4.3776   -0.3184   -0.6689 H         1 <0>         0.0749
     50 H24         3.5946   -0.7431    2.2111 H         1 <0>         0.0852
     51 H25         5.1749   -1.1501    1.5451 H         1 <0>         0.0900
     52 H26         6.4197    4.2119    2.9332 H         1 <0>         0.1353
     53 H27         6.7814    2.1475    4.2340 H         1 <0>         0.1400
     54 H28         5.7764    0.0573    3.4536 H         1 <0>         0.1328
     55 H29         7.1294    4.7094    0.2640 H         1 <0>         0.1055
     56 H30         6.6704    5.4938    1.7955 H         1 <0>         0.1265
     57 H31         4.3755    7.0555    0.7778 H         1 <0>         0.3658
     58 N1          4.6164    4.3231   -0.6385 N.4       1 <0>        -0.3871
     59 H32         5.3405    3.7791   -1.1223 H         1 <0>         0.4282
@<TRIPOS>BOND
     1    1    2 1
     2    1   29 1
     3    1   30 1
     4    1   31 1
     5    2    3 1
     6    2    4 1
     7    2    5 1
     8    3   32 1
     9    3   33 1
    10    3   34 1
    11    4   35 1
    12    4   36 1
    13    4   37 1
    14    5   27 1
    15    5    6 1
    16    5   28 1
    17    6    7 1
    18    6   38 1
    19    6   39 1
    20    7   40 1
    21    7   41 1
    22    7   58 1
    23    8    9 1
    24    8   42 1
    25    8   43 1
    26    8   58 1
    27    9   10 1
    28    9   20 1
    29    9   11 1
    30   11   16 ar
    31   11   12 ar
    32   12   13 ar
    33   12   44 1
    34   13   14 ar
    35   13   45 1
    36   14   15 ar
    37   14   46 1
    38   15   16 ar
    39   15   47 1
    40   16   17 1
    41   17   18 1
    42   17   48 1
    43   17   49 1
    44   18   19 1
    45   18   50 1
    46   18   51 1
    47   19   24 ar
    48   19   20 ar
    49   20   21 ar
    50   21   22 ar
    51   21   25 1
    52   22   23 ar
    53   22   52 1
    54   23   24 ar
    55   23   53 1
    56   24   54 1
    57   25   26 1
    58   25   27 1
    59   25   58 1
    60   27   55 1
    61   27   56 1
    62   28   57 1
    63   58   59 1
@<TRIPOS>MOLECULE
ZINC00664955
   40    43     0     0     0
SMALL
USER_CHARGES
3-chloro-N-[3-(2-pyridyl)-1-isoquinolyl]-benzamide
@<TRIPOS>ATOM
      1 C1          2.4867    4.0871   -0.0007 C.ar      1 <0>        -0.0953
      2 C2          3.6658    3.3457   -0.0154 C.ar      1 <0>        -0.1122
      3 C3          3.6397    1.9828   -0.0225 C.ar      1 <0>        -0.0949
      4 C4          2.4086    1.3146   -0.0139 C.ar      1 <0>        -0.1172
      5 C5          1.2078    2.0696    0.0016 C.ar      1 <0>        -0.0062
      6 C6          1.2713    3.4708    0.0081 C.ar      1 <0>        -0.1033
      7 C7         -0.0167    1.3778    0.0096 C.ar      1 <0>        -0.1369
      8 C8          0.0021   -0.0041    0.0020 C.ar      1 <0>         0.1746
      9 N1          1.1486   -0.6869   -0.0126 N.ar      1 <0>        -0.4717
     10 C9          2.3252   -0.0960   -0.0206 C.ar      1 <0>         0.3988
     11 N2          3.4846   -0.8593   -0.0353 N.am      1 <0>        -0.6512
     12 C10         3.4056   -2.2048   -0.0413 C.2       1 <0>         0.5542
     13 O1          2.3191   -2.7498   -0.0339 O.2       1 <0>        -0.4569
     14 C11         4.6399   -3.0175   -0.0569 C.ar      1 <0>        -0.1229
     15 C12         4.5615   -4.4115   -0.0632 C.ar      1 <0>        -0.0514
     16 C13         5.7170   -5.1646   -0.0782 C.ar      1 <0>        -0.1097
     17 C14         6.9526   -4.5420   -0.0876 C.ar      1 <0>        -0.0812
     18 C15         7.0382   -3.1601   -0.0819 C.ar      1 <0>        -0.0417
     19 C16         5.8889   -2.3947   -0.0713 C.ar      1 <0>        -0.0811
     20 Cl1         8.5931   -2.3883   -0.0944 Cl        1 <0>        -0.0574
     21 C17        -1.2822   -0.7456    0.0098 C.ar      1 <0>         0.1630
     22 C18        -1.2757   -2.1391   -0.0036 C.ar      1 <0>        -0.1254
     23 C19        -2.4822   -2.8173    0.0091 C.ar      1 <0>        -0.0823
     24 C20        -3.6571   -2.0788    0.0239 C.ar      1 <0>        -0.1656
     25 C21        -3.5899   -0.6976    0.0307 C.ar      1 <0>         0.0981
     26 N3         -2.4280   -0.0769    0.0238 N.ar      1 <0>        -0.4740
     27 H1          2.5365    5.1659    0.0043 H         1 <0>         0.1313
     28 H2          4.6160    3.8589   -0.0217 H         1 <0>         0.1307
     29 H3          4.5625    1.4217   -0.0343 H         1 <0>         0.1247
     30 H4          0.3641    4.0567    0.0195 H         1 <0>         0.1374
     31 H5         -0.9531    1.9158    0.0170 H         1 <0>         0.1532
     32 H6          4.3516   -0.4244   -0.0412 H         1 <0>         0.4166
     33 H7          3.5979   -4.8991   -0.0566 H         1 <0>         0.1463
     34 H8          5.6571   -6.2429   -0.0831 H         1 <0>         0.1442
     35 H9          7.8542   -5.1365   -0.0997 H         1 <0>         0.1419
     36 H10         5.9563   -1.3168   -0.0707 H         1 <0>         0.1342
     37 H11        -0.3423   -2.6822   -0.0195 H         1 <0>         0.1550
     38 H12        -2.5088   -3.8969    0.0036 H         1 <0>         0.1373
     39 H13        -4.6148   -2.5781    0.0303 H         1 <0>         0.1369
     40 H14        -4.5024   -0.1200    0.0422 H         1 <0>         0.1602
@<TRIPOS>BOND
     1    1    6 ar
     2    1    2 ar
     3    1   27 1
     4    2    3 ar
     5    2   28 1
     6    3    4 ar
     7    3   29 1
     8    4   10 ar
     9    4    5 ar
    10    5    6 ar
    11    5    7 ar
    12    6   30 1
    13    7    8 ar
    14    7   31 1
    15    8    9 ar
    16    8   21 1
    17    9   10 ar
    18   10   11 1
    19   11   12 am
    20   11   32 1
    21   12   13 2
    22   12   14 1
    23   14   19 ar
    24   14   15 ar
    25   15   16 ar
    26   15   33 1
    27   16   17 ar
    28   16   34 1
    29   17   18 ar
    30   17   35 1
    31   18   19 ar
    32   18   20 1
    33   19   36 1
    34   21   26 ar
    35   21   22 ar
    36   22   23 ar
    37   22   37 1
    38   23   24 ar
    39   23   38 1
    40   24   25 ar
    41   24   39 1
    42   25   26 ar
    43   25   40 1
@<TRIPOS>MOLECULE
ZINC08660486
   50    53     0     0     0
SMALL
USER_CHARGES
5-[6-[(4-amino-3-iodo-phenyl)methylamino]purin-9-yl]-3,4-dihydroxy-N-methyl-tetrahydrofuran-2-carboxamide
@<TRIPOS>ATOM
      1 C1          7.1879   -2.3345  -11.2516 C.3       1 <0>         0.0858
      2 N1          7.5223   -2.6124   -9.8526 N.am      1 <0>        -0.7307
      3 C2          7.1980   -1.7234   -8.8929 C.2       1 <0>         0.5155
      4 O1          6.6294   -0.6935   -9.1874 O.2       1 <0>        -0.5026
      5 C3          7.5419   -2.0093   -7.4538 C.3       1 <0>         0.0331
      6 H1          8.6150   -2.1631   -7.3401 H         1 <0>         0.1231
      7 C4          6.7563   -3.2424   -6.9394 C.3       1 <0>         0.0507
      8 H2          5.7467   -3.2594   -7.3500 H         1 <0>         0.0948
      9 C5          6.7272   -2.9943   -5.4116 C.3       1 <0>         0.0820
     10 H3          5.7525   -3.2574   -5.0008 H         1 <0>         0.0900
     11 C6          6.9816   -1.4810   -5.2698 C.3       1 <0>         0.3144
     12 H4          7.9085   -1.3107   -4.7222 H         1 <0>         0.1321
     13 O2          7.0880   -0.9394   -6.5971 O.3       1 <0>        -0.3274
     14 N2          5.8630   -0.8519   -4.5633 N.pl3     1 <0>        -0.4771
     15 C7          4.7850   -0.2460   -5.1371 C.2       1 <0>         0.2756
     16 N3          3.9848    0.2041   -4.2147 N.2       1 <0>        -0.4511
     17 C8          4.4940   -0.0886   -2.9939 C.ar      1 <0>        -0.0629
     18 C9          5.7081   -0.7646   -3.2029 C.ar      1 <0>         0.2978
     19 N4          6.4155   -1.1621   -2.1505 N.ar      1 <0>        -0.5326
     20 C10         5.9909   -0.9230   -0.9276 C.ar      1 <0>         0.3472
     21 N5          4.8599   -0.2875   -0.6815 N.ar      1 <0>        -0.5681
     22 C11         4.0856    0.1475   -1.6704 C.ar      1 <0>         0.4431
     23 N6          2.9019    0.8127   -1.4026 N.pl3     1 <0>        -0.5961
     24 C12         2.4894    1.0445   -0.0161 C.3       1 <0>         0.1166
     25 C13         1.1757    1.7827    0.0004 C.ar      1 <0>        -0.1498
     26 C14         1.1615    3.1656    0.0075 C.ar      1 <0>        -0.0399
     27 C15        -0.0405    3.8455    0.0226 C.ar      1 <0>        -0.1929
     28 C16        -1.2364    3.1389    0.0303 C.ar      1 <0>         0.2564
     29 C17        -1.2188    1.7496    0.0173 C.ar      1 <0>        -0.1816
     30 C18        -0.0126    1.0758    0.0080 C.ar      1 <0>        -0.0070
     31 I1         -3.0189    0.6778    0.0200 I         1 <0>        -0.0462
     32 N7         -2.4540    3.8235    0.0455 N.pl3     1 <0>        -0.8709
     33 O3          7.7599   -3.7381   -4.7617 O.3       1 <0>        -0.5311
     34 O4          7.4494   -4.4538   -7.2462 O.3       1 <0>        -0.5351
     35 H5          7.5259   -3.1608  -11.8770 H         1 <0>         0.0829
     36 H6          6.1085   -2.2211  -11.3516 H         1 <0>         0.0654
     37 H7          7.6807   -1.4148  -11.5672 H         1 <0>         0.0657
     38 H8          7.9770   -3.4362   -9.6171 H         1 <0>         0.3997
     39 H9          4.6192   -0.1536   -6.2002 H         1 <0>         0.2267
     40 H10         6.5898   -1.2596   -0.0943 H         1 <0>         0.2069
     41 H11         2.9373    1.7294   -1.8006 H         1 <0>         0.3688
     42 H12         3.2470    1.6396    0.4937 H         1 <0>         0.0645
     43 H13         2.3751    0.0878    0.4937 H         1 <0>         0.0910
     44 H14         2.0916    3.7145    0.0016 H         1 <0>         0.1280
     45 H15        -0.0506    4.9254    0.0289 H         1 <0>         0.1306
     46 H16         0.0021   -0.0041    0.0020 H         1 <0>         0.1295
     47 H17        -2.4650    4.7935    0.0508 H         1 <0>         0.4032
     48 H18        -3.2885    3.3290    0.0509 H         1 <0>         0.4010
     49 H19         7.6499   -4.6971   -4.8197 H         1 <0>         0.3969
     50 H20         7.4942   -4.6528   -8.1915 H         1 <0>         0.3843
@<TRIPOS>BOND
     1    1    2 1
     2    1   35 1
     3    1   36 1
     4    1   37 1
     5    2    3 am
     6    2   38 1
     7    3    4 2
     8    3    5 1
     9    5    6 1
    10    5   13 1
    11    5    7 1
    12    7    8 1
    13    7    9 1
    14    7   34 1
    15    9   10 1
    16    9   11 1
    17    9   33 1
    18   11   12 1
    19   11   13 1
    20   11   14 1
    21   14   18 1
    22   14   15 1
    23   15   16 2
    24   15   39 1
    25   16   17 1
    26   17   22 ar
    27   17   18 ar
    28   18   19 ar
    29   19   20 ar
    30   20   21 ar
    31   20   40 1
    32   21   22 ar
    33   22   23 1
    34   23   24 1
    35   23   41 1
    36   24   25 1
    37   24   42 1
    38   24   43 1
    39   25   30 ar
    40   25   26 ar
    41   26   27 ar
    42   26   44 1
    43   27   28 ar
    44   27   45 1
    45   28   29 ar
    46   28   32 1
    47   29   30 ar
    48   29   31 1
    49   30   46 1
    50   32   47 1
    51   32   48 1
    52   33   49 1
    53   34   50 1
@<TRIPOS>MOLECULE
ZINC53204366
   33    35     0     0     0
SMALL
USER_CHARGES

@<TRIPOS>ATOM
      1 C1         -0.0158    1.3119    0.0093 C.ar      1 <0>         0.3634
      2 N1          1.0888    2.0360    0.0026 N.ar      1 <0>        -0.5925
      3 C2          2.2875    1.4625   -0.0119 C.ar      1 <0>         0.5080
      4 C3          2.3582    0.0588   -0.0202 C.ar      1 <0>        -0.1118
      5 C4          1.1547   -0.6659   -0.0126 C.ar      1 <0>         0.3181
      6 N2          0.0021   -0.0041    0.0020 N.ar      1 <0>        -0.5434
      7 N3          1.5110   -1.9908   -0.0227 N.pl3     1 <0>        -0.4677
      8 C5          2.8729   -2.0476   -0.0358 C.2       1 <0>         0.2618
      9 N4          3.3680   -0.8441   -0.0343 N.2       1 <0>        -0.4619
     10 C6          0.5956   -3.1347   -0.0195 C.3       1 <0>         0.3130
     11 H1         -0.2832   -2.9148    0.5866 H         1 <0>         0.1147
     12 C7          0.1775   -3.4928   -1.4629 C.3       1 <0>         0.0675
     13 H2          0.9267   -3.1463   -2.1747 H         1 <0>         0.1078
     14 C8          0.1056   -5.0362   -1.4608 C.3       1 <0>         0.0401
     15 H3          0.8193   -5.4528   -2.1716 H         1 <0>         0.0847
     16 C9          0.4888   -5.4280   -0.0165 C.3       1 <0>         0.0514
     17 H4         -0.4066   -5.5617    0.5906 H         1 <0>         0.0957
     18 O1          1.2661   -4.3138    0.4763 O.3       1 <0>        -0.3528
     19 C10         1.3272   -6.7078   -0.0164 C.3       1 <0>         0.0824
     20 O2          1.5723   -7.1166    1.3308 O.3       1 <0>        -0.5639
     21 O3         -1.2191   -5.4762   -1.7672 O.3       1 <0>        -0.5518
     22 N5         -1.1356   -2.9140   -1.7770 N.3       1 <0>        -0.8075
     23 N6          3.4393    2.2295   -0.0193 N.pl3     1 <0>        -0.8185
     24 H5         -0.9693    1.8187    0.0257 H         1 <0>         0.2048
     25 H6          3.4551   -2.9572   -0.0459 H         1 <0>         0.2214
     26 H7          0.7880   -7.4954   -0.5427 H         1 <0>         0.0654
     27 H8          2.2767   -6.5201   -0.5176 H         1 <0>         0.0607
     28 H9          2.0996   -7.9235    1.4072 H         1 <0>         0.3865
     29 H10        -1.3212   -6.4377   -1.7794 H         1 <0>         0.3905
     30 H11        -1.4160   -3.1435   -2.7187 H         1 <0>         0.3544
     31 H12        -1.8312   -3.2121   -1.1097 H         1 <0>         0.3505
     32 H13         3.3774    3.1975   -0.0138 H         1 <0>         0.4105
     33 H14         4.3085    1.7992   -0.0299 H         1 <0>         0.4185
@<TRIPOS>BOND
     1    1    6 ar
     2    1    2 ar
     3    1   24 1
     4    2    3 ar
     5    3    4 ar
     6    3   23 1
     7    4    9 1
     8    4    5 ar
     9    5    6 ar
    10    5    7 1
    11    7    8 1
    12    7   10 1
    13    8    9 2
    14    8   25 1
    15   10   11 1
    16   10   18 1
    17   10   12 1
    18   12   13 1
    19   12   14 1
    20   12   22 1
    21   14   15 1
    22   14   16 1
    23   14   21 1
    24   16   17 1
    25   16   18 1
    26   16   19 1
    27   19   20 1
    28   19   26 1
    29   19   27 1
    30   20   28 1
    31   21   29 1
    32   22   30 1
    33   22   31 1
    34   23   32 1
    35   23   33 1
@<TRIPOS>MOLECULE
ZINC04475322
   51    54     0     0     0
SMALL
USER_CHARGES

@<TRIPOS>ATOM
      1 C1         -0.0187    1.5258    0.0104 C.3       1 <0>        -0.1631
      2 C2          0.0021   -0.0041    0.0020 C.3       1 <0>         0.1538
      3 H1          0.5293   -0.3651    0.8851 H         1 <0>         0.0970
      4 C3          0.7182   -0.4975   -1.2568 C.3       1 <0>        -0.0915
      5 C4          0.8473   -1.9981   -1.2057 C.ar      1 <0>        -0.0833
      6 C5          1.9579   -2.5768   -0.6205 C.ar      1 <0>        -0.1153
      7 C6          2.0763   -3.9532   -0.5737 C.ar      1 <0>        -0.1179
      8 C7          1.0839   -4.7510   -1.1116 C.ar      1 <0>        -0.1236
      9 C8         -0.0272   -4.1724   -1.6960 C.ar      1 <0>        -0.1166
     10 C9         -0.1477   -2.7959   -1.7390 C.ar      1 <0>        -0.1114
     11 N1         -1.3723   -0.5112    0.0124 N.pl3     1 <0>        -0.6847
     12 C10        -2.0462   -0.6591    1.2121 C.ar      1 <0>         0.5114
     13 C11        -3.3630   -1.1495    1.2414 C.ar      1 <0>        -0.1076
     14 C12        -3.9954   -1.2776    2.4893 C.ar      1 <0>         0.3133
     15 N2         -3.3315   -0.9338    3.5883 N.ar      1 <0>        -0.5521
     16 C13        -2.0986   -0.4792    3.5127 C.ar      1 <0>         0.3641
     17 N3         -1.4615   -0.3459    2.3635 N.ar      1 <0>        -0.5871
     18 N4         -5.2495   -1.7694    2.2292 N.pl3     1 <0>        -0.4716
     19 C14        -5.3550   -1.9261    0.8792 C.2       1 <0>         0.2599
     20 N5         -4.2472   -1.5619    0.3015 N.2       1 <0>        -0.4591
     21 C15        -6.2852   -2.0711    3.2205 C.3       1 <0>         0.3143
     22 H2         -5.8341   -2.4623    4.1324 H         1 <0>         0.1224
     23 C16        -7.1166   -0.8068    3.5314 C.3       1 <0>         0.0799
     24 H3         -7.0713   -0.1054    2.6982 H         1 <0>         0.0849
     25 C17        -8.5557   -1.3392    3.7133 C.3       1 <0>         0.0472
     26 H4         -9.2218   -0.9010    2.9700 H         1 <0>         0.0868
     27 C18        -8.4234   -2.8621    3.4907 C.3       1 <0>         0.0504
     28 H5         -8.3019   -3.3758    4.4444 H         1 <0>         0.1000
     29 O1         -7.2349   -3.0173    2.6833 O.3       1 <0>        -0.3469
     30 C19        -9.6487   -3.4004    2.7493 C.3       1 <0>         0.0822
     31 O2         -9.5620   -4.8238    2.6564 O.3       1 <0>        -0.5634
     32 O3         -9.0288   -1.0625    5.0330 O.3       1 <0>        -0.5387
     33 O4         -6.6539   -0.1861    4.7325 O.3       1 <0>        -0.5251
     34 H6          1.0039    1.9031    0.0027 H         1 <0>         0.0681
     35 H7         -0.5459    1.8868   -0.8726 H         1 <0>         0.0555
     36 H8         -0.5289    1.8773    0.9072 H         1 <0>         0.0645
     37 H9          0.1430   -0.2121   -2.1375 H         1 <0>         0.0786
     38 H10         1.7103   -0.0491   -1.3098 H         1 <0>         0.0924
     39 H11         2.7333   -1.9534   -0.2002 H         1 <0>         0.1218
     40 H12         2.9444   -4.4053   -0.1171 H         1 <0>         0.1212
     41 H13         1.1767   -5.8264   -1.0757 H         1 <0>         0.1199
     42 H14        -0.8025   -4.7957   -2.1166 H         1 <0>         0.1203
     43 H15        -1.0175   -2.3439   -2.1923 H         1 <0>         0.1175
     44 H16        -1.8100   -0.7432   -0.8215 H         1 <0>         0.4144
     45 H17        -1.5876   -0.2084    4.4248 H         1 <0>         0.2035
     46 H18        -6.2290   -2.2977    0.3649 H         1 <0>         0.2215
     47 H19       -10.5523   -3.1263    3.2938 H         1 <0>         0.0670
     48 H20        -9.6843   -2.9724    1.7475 H         1 <0>         0.0609
     49 H21       -10.3074   -5.2341    2.1971 H         1 <0>         0.3867
     50 H22        -9.9281   -1.3753    5.2020 H         1 <0>         0.3872
     51 H23        -7.1412    0.6131    4.9751 H         1 <0>         0.3903
@<TRIPOS>BOND
     1    1    2 1
     2    1   34 1
     3    1   35 1
     4    1   36 1
     5    2    3 1
     6    2    4 1
     7    2   11 1
     8    4    5 1
     9    4   37 1
    10    4   38 1
    11    5   10 ar
    12    5    6 ar
    13    6    7 ar
    14    6   39 1
    15    7    8 ar
    16    7   40 1
    17    8    9 ar
    18    8   41 1
    19    9   10 ar
    20    9   42 1
    21   10   43 1
    22   11   12 1
    23   11   44 1
    24   12   17 ar
    25   12   13 ar
    26   13   20 1
    27   13   14 ar
    28   14   15 ar
    29   14   18 1
    30   15   16 ar
    31   16   17 ar
    32   16   45 1
    33   18   19 1
    34   18   21 1
    35   19   20 2
    36   19   46 1
    37   21   22 1
    38   21   29 1
    39   21   23 1
    40   23   24 1
    41   23   25 1
    42   23   33 1
    43   25   26 1
    44   25   27 1
    45   25   32 1
    46   27   28 1
    47   27   29 1
    48   27   30 1
    49   30   31 1
    50   30   47 1
    51   30   48 1
    52   31   49 1
    53   32   50 1
    54   33   51 1
@<TRIPOS>MOLECULE
ZINC19632713
   56    57     0     0     0
SMALL
USER_CHARGES

@<TRIPOS>ATOM
      1 C1          0.1285    1.4840    0.3387 C.3       1 <0>        -0.1177
      2 C2          0.0738   -0.0117    0.1625 C.2       1 <0>         0.2449
      3 C3         -1.1175   -0.6339    0.1355 C.2       1 <0>        -0.2617
      4 C4         -1.2202   -2.1217   -0.0461 C.3       1 <0>         0.0876
      5 H1         -1.9580   -2.5183    0.6514 H         1 <0>         0.1024
      6 C5          0.1054   -2.7814    0.2079 C.2       1 <0>        -0.2300
      7 C6          1.2476   -2.0731    0.2320 C.2       1 <0>         0.1891
      8 N1          1.2371   -0.7191    0.0265 N.pl3     1 <0>        -0.6297
      9 C7          2.5557   -2.7784    0.4824 C.3       1 <0>        -0.1321
     10 C8          0.1526   -4.1777    0.4268 C.2       1 <0>         0.5314
     11 O1         -0.2267   -4.6406    1.4863 O.2       1 <0>        -0.4925
     12 O2          0.6182   -4.9968   -0.5394 O.3       1 <0>        -0.3418
     13 C9          0.6374   -6.3961   -0.2500 C.3       1 <0>         0.0765
     14 C10        -0.6897   -7.0242   -0.6804 C.3       1 <0>        -0.1722
     15 C11         1.7864   -7.0589   -1.0125 C.3       1 <0>        -0.1490
     16 C12        -1.6600   -2.4202   -1.4563 C.ar      1 <0>        -0.0715
     17 C13        -0.8851   -2.0071   -2.5241 C.ar      1 <0>        -0.0487
     18 C14        -1.2884   -2.2809   -3.8174 C.ar      1 <0>        -0.1165
     19 C15        -2.4665   -2.9683   -4.0433 C.ar      1 <0>        -0.0567
     20 C16        -3.2407   -3.3821   -2.9757 C.ar      1 <0>        -0.0473
     21 C17        -2.8351   -3.1119   -1.6819 C.ar      1 <0>        -0.0374
     22 N2         -4.5023   -4.1176   -3.2175 N.pl3     1 <0>         0.0345
     23 O3         -4.8555   -4.3563   -4.3488 O.2       1 <0>        -0.1606
     24 O4         -5.1795   -4.4795   -2.2837 O.3       1 <0>        -0.1573
     25 C18        -2.2995    0.1285    0.2816 C.2       1 <0>         0.5219
     26 O5         -2.2314    1.3344    0.4299 O.2       1 <0>        -0.5212
     27 O6         -3.5031   -0.4813    0.2567 O.3       1 <0>        -0.3401
     28 C19        -4.6550    0.3503    0.4102 C.3       1 <0>         0.0712
     29 C20        -5.9176   -0.5122    0.3561 C.3       1 <0>         0.0615
     30 O7         -5.9382   -1.3974    1.4778 O.3       1 <0>        -0.3842
     31 C21        -7.0825   -2.2521    1.5227 C.3       1 <0>         0.0293
     32 H2          1.1677    1.8128    0.3319 H         1 <0>         0.0651
     33 H3         -0.4104    1.9658   -0.4770 H         1 <0>         0.1036
     34 H4         -0.3321    1.7550    1.2887 H         1 <0>         0.1063
     35 H5          2.0569   -0.2589   -0.2124 H         1 <0>         0.4249
     36 H6          2.9634   -3.1344   -0.4637 H         1 <0>         0.0977
     37 H7          3.2595   -2.0856    0.9437 H         1 <0>         0.0857
     38 H8          2.3901   -3.6253    1.1483 H         1 <0>         0.0860
     39 H9          0.7789   -6.5438    0.8207 H         1 <0>         0.0844
     40 H10        -1.5082   -6.5520   -0.1371 H         1 <0>         0.0614
     41 H11        -0.8312   -6.8765   -1.7510 H         1 <0>         0.0636
     42 H12        -0.6750   -8.0915   -0.4596 H         1 <0>         0.0763
     43 H13         2.7318   -6.6114   -0.7059 H         1 <0>         0.0639
     44 H14         1.8010   -8.1262   -0.7918 H         1 <0>         0.0792
     45 H15         1.6448   -6.9112   -2.0831 H         1 <0>         0.0673
     46 H16         0.0352   -1.4702   -2.3477 H         1 <0>         0.1325
     47 H17        -0.6834   -1.9576   -4.6516 H         1 <0>         0.1466
     48 H18        -2.7820   -3.1817   -5.0539 H         1 <0>         0.1523
     49 H19        -3.4382   -3.4385   -0.8476 H         1 <0>         0.1523
     50 H20        -4.6069    0.8641    1.3703 H         1 <0>         0.0779
     51 H21        -4.6824    1.0853   -0.3942 H         1 <0>         0.0819
     52 H22        -6.7978    0.1300    0.3840 H         1 <0>         0.0728
     53 H23        -5.9211   -1.0937   -0.5658 H         1 <0>         0.0594
     54 H24        -7.0233   -2.8926    2.4027 H         1 <0>         0.0884
     55 H25        -7.9869   -1.6459    1.5748 H         1 <0>         0.0411
     56 H26        -7.1102   -2.8697    0.6250 H         1 <0>         0.0475
@<TRIPOS>BOND
     1    1    2 1
     2    1   32 1
     3    1   33 1
     4    1   34 1
     5    2    8 1
     6    2    3 2
     7    3    4 1
     8    3   25 1
     9    4    5 1
    10    4    6 1
    11    4   16 1
    12    6    7 2
    13    6   10 1
    14    7    8 1
    15    7    9 1
    16    8   35 1
    17    9   36 1
    18    9   37 1
    19    9   38 1
    20   10   11 2
    21   10   12 1
    22   12   13 1
    23   13   14 1
    24   13   15 1
    25   13   39 1
    26   14   40 1
    27   14   41 1
    28   14   42 1
    29   15   43 1
    30   15   44 1
    31   15   45 1
    32   16   21 ar
    33   16   17 ar
    34   17   18 ar
    35   17   46 1
    36   18   19 ar
    37   18   47 1
    38   19   20 ar
    39   19   48 1
    40   20   21 ar
    41   20   22 1
    42   21   49 1
    43   22   23 2
    44   22   24 1
    45   25   26 2
    46   25   27 1
    47   27   28 1
    48   28   29 1
    49   28   50 1
    50   28   51 1
    51   29   30 1
    52   29   52 1
    53   29   53 1
    54   30   31 1
    55   31   54 1
    56   31   55 1
    57   31   56 1
@<TRIPOS>MOLECULE
ZINC19632718
   56    57     0     0     0
SMALL
USER_CHARGES

@<TRIPOS>ATOM
      1 C1          0.2169    1.4961    0.1240 C.3       1 <0>        -0.1176
      2 C2          0.1168   -0.0062    0.0594 C.2       1 <0>         0.2447
      3 C3         -1.0882   -0.5956    0.1458 C.2       1 <0>        -0.2622
      4 C4         -1.2347   -2.0899    0.0953 C.3       1 <0>         0.0892
      5 H1         -2.0745   -2.3466   -0.5505 H         1 <0>         0.0986
      6 C5          0.0148   -2.7292   -0.4406 C.2       1 <0>        -0.2308
      7 C6          1.1757   -2.0544   -0.5036 C.2       1 <0>         0.1881
      8 N1          1.2530   -0.7532   -0.0921 N.pl3     1 <0>        -0.6279
      9 C7          2.4064   -2.7390   -1.0400 C.3       1 <0>        -0.1359
     10 C8         -0.0312   -4.0699   -0.8880 C.2       1 <0>         0.5332
     11 O1         -0.4598   -4.3266   -1.9976 O.2       1 <0>        -0.4932
     12 O2          0.4003   -5.0645   -0.0845 O.3       1 <0>        -0.3414
     13 C9          0.3249   -6.3948   -0.6010 C.3       1 <0>         0.0753
     14 C10         1.6267   -6.7333   -1.3302 C.3       1 <0>        -0.1721
     15 C11         0.1154   -7.3785    0.5519 C.3       1 <0>        -0.1494
     16 C12        -1.5003   -2.6097    1.4847 C.ar      1 <0>        -0.0734
     17 C13        -0.5800   -2.3898    2.4927 C.ar      1 <0>        -0.0490
     18 C14        -0.8236   -2.8665    3.7669 C.ar      1 <0>        -0.1177
     19 C15        -1.9878   -3.5629    4.0337 C.ar      1 <0>        -0.0565
     20 C16        -2.9083   -3.7819    3.0262 C.ar      1 <0>        -0.0425
     21 C17        -2.6666   -3.3013    1.7525 C.ar      1 <0>        -0.0292
     22 N2         -4.1545   -4.5279    3.3116 N.pl3     1 <0>         0.0374
     23 O3         -4.3672   -4.9456    4.4260 O.2       1 <0>        -0.1658
     24 O4         -4.9597   -4.7195    2.4303 O.3       1 <0>        -0.1548
     25 C18        -2.2430    0.2083    0.2878 C.2       1 <0>         0.5219
     26 O5         -2.1393    1.4200    0.3306 O.2       1 <0>        -0.5214
     27 O6         -3.4599   -0.3683    0.3759 O.3       1 <0>        -0.3403
     28 C19        -4.5825    0.5044    0.5179 C.3       1 <0>         0.0714
     29 C20        -5.8657   -0.3248    0.6012 C.3       1 <0>         0.0608
     30 O7         -5.8467   -1.1133    1.7928 O.3       1 <0>        -0.3859
     31 C21        -7.0064   -1.9297    1.9680 C.3       1 <0>         0.0333
     32 H2          1.2612    1.7949    0.0337 H         1 <0>         0.0650
     33 H3         -0.3581    1.9340   -0.6920 H         1 <0>         0.1064
     34 H4         -0.1801    1.8461    1.0769 H         1 <0>         0.1035
     35 H5          2.1188   -0.3590    0.0973 H         1 <0>         0.4243
     36 H6          2.4825   -2.5613   -2.1127 H         1 <0>         0.0935
     37 H7          3.2902   -2.3402   -0.5420 H         1 <0>         0.0866
     38 H8          2.3366   -3.8106   -0.8533 H         1 <0>         0.0914
     39 H9         -0.5109   -6.4674   -1.2970 H         1 <0>         0.0846
     40 H10         1.7759   -6.0324   -2.1516 H         1 <0>         0.0607
     41 H11         2.4624   -6.6606   -0.6342 H         1 <0>         0.0665
     42 H12         1.5691   -7.7479   -1.7242 H         1 <0>         0.0766
     43 H13        -0.8120   -7.1373    1.0714 H         1 <0>         0.0623
     44 H14         0.0579   -8.3932    0.1579 H         1 <0>         0.0797
     45 H15         0.9512   -7.3058    1.2479 H         1 <0>         0.0677
     46 H16         0.3295   -1.8459    2.2843 H         1 <0>         0.1306
     47 H17        -0.1043   -2.6954    4.5542 H         1 <0>         0.1453
     48 H18        -2.1779   -3.9360    5.0292 H         1 <0>         0.1512
     49 H19        -3.3876   -3.4693    0.9662 H         1 <0>         0.1497
     50 H20        -4.4714    1.0943    1.4277 H         1 <0>         0.0753
     51 H21        -4.6358    1.1708   -0.3430 H         1 <0>         0.0836
     52 H22        -6.7282    0.3414    0.6200 H         1 <0>         0.0724
     53 H23        -5.9318   -0.9802   -0.2672 H         1 <0>         0.0626
     54 H24        -6.9150   -2.4967    2.8944 H         1 <0>         0.0850
     55 H25        -7.8926   -1.2968    2.0152 H         1 <0>         0.0405
     56 H26        -7.0962   -2.6185    1.1279 H         1 <0>         0.0481
@<TRIPOS>BOND
     1    1    2 1
     2    1   32 1
     3    1   33 1
     4    1   34 1
     5    2    8 1
     6    2    3 2
     7    3    4 1
     8    3   25 1
     9    4    5 1
    10    4    6 1
    11    4   16 1
    12    6    7 2
    13    6   10 1
    14    7    8 1
    15    7    9 1
    16    8   35 1
    17    9   36 1
    18    9   37 1
    19    9   38 1
    20   10   11 2
    21   10   12 1
    22   12   13 1
    23   13   14 1
    24   13   15 1
    25   13   39 1
    26   14   40 1
    27   14   41 1
    28   14   42 1
    29   15   43 1
    30   15   44 1
    31   15   45 1
    32   16   21 ar
    33   16   17 ar
    34   17   18 ar
    35   17   46 1
    36   18   19 ar
    37   18   47 1
    38   19   20 ar
    39   19   48 1
    40   20   21 ar
    41   20   22 1
    42   21   49 1
    43   22   23 2
    44   22   24 1
    45   25   26 2
    46   25   27 1
    47   27   28 1
    48   28   29 1
    49   28   50 1
    50   28   51 1
    51   29   30 1
    52   29   52 1
    53   29   53 1
    54   30   31 1
    55   31   54 1
    56   31   55 1
    57   31   56 1
@<TRIPOS>MOLECULE
ZINC17539659
   50    51     0     0     0
SMALL
USER_CHARGES

@<TRIPOS>ATOM
      1 C1         -0.9338    1.3855   -0.5035 C.3       1 <0>        -0.1498
      2 C2         -0.7468   -0.1315   -0.4332 C.3       1 <0>         0.0662
      3 O1          0.1172   -0.5544   -1.4900 O.3       1 <0>        -0.3257
      4 C3          0.3862   -1.8731   -1.5700 C.2       1 <0>         0.4854
      5 O2         -0.1466   -2.7165   -0.6867 O.2       1 <0>        -0.6297
      6 C4          1.2195   -2.3529   -2.5742 C.2       1 <0>        -0.3731
      7 C5          1.6238   -3.6782   -2.6033 C.2       1 <0>         0.3018
      8 N1          2.4134   -4.1484   -3.5491 N.2       1 <0>        -0.6461
      9 C6          2.9036   -3.4477   -4.5528 C.2       1 <0>         0.2824
     10 C7          2.6246   -2.0998   -4.7145 C.2       1 <0>        -0.3745
     11 C8          3.1497   -1.3753   -5.7786 C.2       1 <0>         0.4780
     12 O3          2.8640   -0.0803   -5.9084 O.3       1 <0>        -0.6183
     13 O4          3.9480   -1.9831   -6.6792 O.3       1 <0>        -0.3342
     14 C9          4.4521   -1.1780   -7.7468 C.3       1 <0>         0.0603
     15 C10         5.3314   -2.0345   -8.6602 C.3       1 <0>        -0.1494
     16 C11         1.7179   -1.4475   -3.6863 C.3       1 <0>         0.1161
     17 H1          2.2627   -0.6194   -3.2328 H         1 <0>         0.0409
     18 C12         0.5203   -0.8780   -4.4022 C.2       1 <0>        -0.0824
     19 C13         0.3352    0.4340   -4.4441 C.2       1 <0>        -0.1299
     20 C14        -0.8395    0.9925   -5.1463 C.ar      1 <0>        -0.0153
     21 C15        -1.7584    0.1413   -5.7611 C.ar      1 <0>        -0.1273
     22 C16        -2.8527    0.6690   -6.4150 C.ar      1 <0>        -0.1172
     23 C17        -3.0397    2.0389   -6.4622 C.ar      1 <0>        -0.1442
     24 C18        -2.1321    2.8883   -5.8551 C.ar      1 <0>        -0.1195
     25 C19        -1.0372    2.3730   -5.1923 C.ar      1 <0>        -0.1225
     26 C20         3.7955   -4.1339   -5.5551 C.3       1 <0>        -0.1038
     27 C21         1.1466   -4.6110   -1.5202 C.3       1 <0>        -0.1131
     28 H2          0.0341    1.8760   -0.3998 H         1 <0>         0.0617
     29 H3         -1.3758    1.6530   -1.4632 H         1 <0>         0.0641
     30 H4         -1.5928    1.7080    0.3026 H         1 <0>         0.0690
     31 H5         -0.3048   -0.3990    0.5265 H         1 <0>         0.0574
     32 H6         -1.7146   -0.6220   -0.5369 H         1 <0>         0.0576
     33 H7          3.6190   -0.7723   -8.3207 H         1 <0>         0.0585
     34 H8          5.0435   -0.3594   -7.3366 H         1 <0>         0.0586
     35 H9          5.7159   -1.4205   -9.4745 H         1 <0>         0.0696
     36 H10         6.1646   -2.4402   -8.0863 H         1 <0>         0.0622
     37 H11         4.7400   -2.8531   -9.0704 H         1 <0>         0.0620
     38 H12        -0.1871   -1.5388   -4.8810 H         1 <0>         0.0899
     39 H13         1.0426    1.0947   -3.9652 H         1 <0>         0.1105
     40 H14        -1.6131   -0.9283   -5.7255 H         1 <0>         0.1197
     41 H15        -3.5647    0.0112   -6.8913 H         1 <0>         0.1150
     42 H16        -3.8978    2.4470   -6.9756 H         1 <0>         0.1131
     43 H17        -2.2834    3.9569   -5.8961 H         1 <0>         0.1149
     44 H18        -0.3321    3.0369   -4.7143 H         1 <0>         0.1186
     45 H19         3.9106   -5.1826   -5.2811 H         1 <0>         0.0627
     46 H20         3.3484   -4.0644   -6.5468 H         1 <0>         0.0772
     47 H21         4.7727   -3.6509   -5.5625 H         1 <0>         0.0776
     48 H22         0.1592   -4.9933   -1.7790 H         1 <0>         0.0714
     49 H23         1.8444   -5.4427   -1.4234 H         1 <0>         0.0493
     50 H24         1.0909   -4.0715   -0.5747 H         1 <0>         0.1043
@<TRIPOS>BOND
     1    1    2 1
     2    1   28 1
     3    1   29 1
     4    1   30 1
     5    2    3 1
     6    2   31 1
     7    2   32 1
     8    3    4 1
     9    4    5 2
    10    4    6 1
    11    6   16 1
    12    6    7 2
    13    7    8 1
    14    7   27 1
    15    8    9 2
    16    9   10 1
    17    9   26 1
    18   10   11 2
    19   10   16 1
    20   11   12 1
    21   11   13 1
    22   13   14 1
    23   14   15 1
    24   14   33 1
    25   14   34 1
    26   15   35 1
    27   15   36 1
    28   15   37 1
    29   16   17 1
    30   16   18 1
    31   18   19 2
    32   18   38 1
    33   19   20 1
    34   19   39 1
    35   20   25 ar
    36   20   21 ar
    37   21   22 ar
    38   21   40 1
    39   22   23 ar
    40   22   41 1
    41   23   24 ar
    42   23   42 1
    43   24   25 ar
    44   24   43 1
    45   25   44 1
    46   26   45 1
    47   26   46 1
    48   26   47 1
    49   27   48 1
    50   27   49 1
    51   27   50 1
@<TRIPOS>MOLECULE
ZINC00601265
   64    66     0     0     0
SMALL
USER_CHARGES

@<TRIPOS>ATOM
      1 C1         -0.0215    0.6123    0.1122 C.3       1 <0>        -0.1028
      2 C2         -0.3328   -0.8583    0.2189 C.2       1 <0>         0.3018
      3 C3         -1.6378   -1.2584    0.1811 C.2       1 <0>        -0.3963
      4 C4         -1.9198   -2.7457    0.2903 C.3       1 <0>         0.1349
      5 H1         -2.5640   -2.9077    1.1544 H         1 <0>         0.0448
      6 C5         -0.7020   -3.6417    0.4318 C.2       1 <0>        -0.3929
      7 C6         -0.8244   -5.0097    0.5393 C.2       1 <0>         0.4764
      8 O1         -2.0446   -5.5700    0.6539 O.3       1 <0>        -0.6396
      9 O2          0.2760   -5.7875    0.5297 O.3       1 <0>        -0.3314
     10 C7          0.0749   -7.1976    0.6450 C.3       1 <0>         0.0366
     11 C8          0.5471   -3.0185    0.4479 C.2       1 <0>         0.3009
     12 N1          0.6696   -1.7151    0.3403 N.2       1 <0>        -0.6384
     13 C9          1.7873   -3.8634    0.5863 C.3       1 <0>        -0.1107
     14 C10        -2.6737   -3.1738   -0.9424 C.ar      1 <0>        -0.0312
     15 C11        -2.1014   -3.0188   -2.1913 C.ar      1 <0>        -0.0531
     16 C12        -2.7929   -3.4114   -3.3218 C.ar      1 <0>        -0.1220
     17 C13        -4.0567   -3.9594   -3.2037 C.ar      1 <0>        -0.0746
     18 C14        -4.6284   -4.1152   -1.9550 C.ar      1 <0>        -0.0609
     19 C15        -3.9350   -3.7264   -0.8239 C.ar      1 <0>        -0.0265
     20 N2         -5.9817   -4.7014   -1.8286 N.pl3     1 <0>         0.0436
     21 O3         -6.5868   -5.0441   -2.8175 O.2       1 <0>        -0.1681
     22 O4         -6.4818   -4.8377   -0.7363 O.3       1 <0>        -0.1847
     23 C16        -2.6820   -0.3267    0.0465 C.2       1 <0>         0.5291
     24 O5         -2.4304    0.8619   -0.0389 O.2       1 <0>        -0.5459
     25 O6         -3.9642   -0.7498    0.0119 O.3       1 <0>        -0.3748
     26 C17        -4.9743    0.2516   -0.1266 C.3       1 <0>         0.0360
     27 C18        -6.3522   -0.4132   -0.1463 C.3       1 <0>        -0.0015
     28 N3         -6.5959   -1.0731    1.1433 N.4       1 <0>        -0.3855
     29 C19        -7.8507   -1.8339    1.0746 C.3       1 <0>        -0.0535
     30 C20        -6.6954   -0.0589    2.2013 C.3       1 <0>         0.0378
     31 C21        -6.8226   -0.7399    3.5396 C.ar      1 <0>        -0.1561
     32 C22        -8.0724   -1.0566    4.0380 C.ar      1 <0>        -0.0972
     33 C23        -8.1890   -1.6813    5.2657 C.ar      1 <0>        -0.1170
     34 C24        -7.0557   -1.9897    5.9947 C.ar      1 <0>        -0.0868
     35 C25        -5.8058   -1.6739    5.4958 C.ar      1 <0>        -0.1114
     36 C26        -5.6890   -1.0530    4.2663 C.ar      1 <0>        -0.0880
     37 H2          1.0578    0.7592    0.1541 H         1 <0>         0.0608
     38 H3         -0.4041    0.9971   -0.8331 H         1 <0>         0.0790
     39 H4         -0.4928    1.1444    0.9385 H         1 <0>         0.0783
     40 H5          1.0393   -7.7051    0.6239 H         1 <0>         0.0906
     41 H6         -0.4306   -7.4168    1.5855 H         1 <0>         0.0542
     42 H7         -0.5375   -7.5464   -0.1865 H         1 <0>         0.0522
     43 H8          1.8838   -4.5125   -0.2840 H         1 <0>         0.0828
     44 H9          2.6618   -3.2164    0.6558 H         1 <0>         0.0686
     45 H10         1.7134   -4.4724    1.4873 H         1 <0>         0.0808
     46 H11        -1.1142   -2.5907   -2.2836 H         1 <0>         0.1321
     47 H12        -2.3461   -3.2897   -4.2976 H         1 <0>         0.1399
     48 H13        -4.5973   -4.2655   -4.0871 H         1 <0>         0.1441
     49 H14        -4.3802   -3.8516    0.1521 H         1 <0>         0.1359
     50 H15        -4.9169    0.9441    0.7131 H         1 <0>         0.0840
     51 H16        -4.8204    0.7964   -1.0581 H         1 <0>         0.1046
     52 H17        -7.1181    0.3432   -0.3179 H         1 <0>         0.1451
     53 H18        -6.3871   -1.1534   -0.9456 H         1 <0>         0.1335
     54 H19        -8.6655   -1.1662    0.7945 H         1 <0>         0.1201
     55 H20        -7.7562   -2.6241    0.3298 H         1 <0>         0.1277
     56 H21        -8.0615   -2.2757    2.0485 H         1 <0>         0.1261
     57 H22        -5.8004    0.5631    2.1937 H         1 <0>         0.1352
     58 H23        -7.5724    0.5642    2.0260 H         1 <0>         0.1352
     59 H24        -8.9578   -0.8157    3.4685 H         1 <0>         0.1301
     60 H25        -9.1656   -1.9281    5.6554 H         1 <0>         0.1335
     61 H26        -7.1469   -2.4772    6.9541 H         1 <0>         0.1332
     62 H27        -4.9204   -1.9145    6.0655 H         1 <0>         0.1352
     63 H28        -4.7123   -0.8096    3.8748 H         1 <0>         0.1327
     64 H29        -5.8331   -1.7005    1.3495 H         1 <0>         0.4337
@<TRIPOS>BOND
     1    1    2 1
     2    1   37 1
     3    1   38 1
     4    1   39 1
     5    2   12 1
     6    2    3 2
     7    3    4 1
     8    3   23 1
     9    4    5 1
    10    4    6 1
    11    4   14 1
    12    6    7 2
    13    6   11 1
    14    7    8 1
    15    7    9 1
    16    9   10 1
    17   10   40 1
    18   10   41 1
    19   10   42 1
    20   11   12 2
    21   11   13 1
    22   13   43 1
    23   13   44 1
    24   13   45 1
    25   14   19 ar
    26   14   15 ar
    27   15   16 ar
    28   15   46 1
    29   16   17 ar
    30   16   47 1
    31   17   18 ar
    32   17   48 1
    33   18   19 ar
    34   18   20 1
    35   19   49 1
    36   20   21 2
    37   20   22 1
    38   23   24 2
    39   23   25 1
    40   25   26 1
    41   26   27 1
    42   26   50 1
    43   26   51 1
    44   27   28 1
    45   27   52 1
    46   27   53 1
    47   28   29 1
    48   28   30 1
    49   28   64 1
    50   29   54 1
    51   29   55 1
    52   29   56 1
    53   30   31 1
    54   30   57 1
    55   30   58 1
    56   31   36 ar
    57   31   32 ar
    58   32   33 ar
    59   32   59 1
    60   33   34 ar
    61   33   60 1
    62   34   35 ar
    63   34   61 1
    64   35   36 ar
    65   35   62 1
    66   36   63 1
@<TRIPOS>MOLECULE
ZINC00601265
   63    65     0     0     0
SMALL
USER_CHARGES

@<TRIPOS>ATOM
      1 C1          0.3477    0.3184   -0.5725 C.3       1 <0>        -0.0952
      2 C2          0.1335   -1.1442   -0.2795 C.2       1 <0>         0.2774
      3 C3         -1.1446   -1.6156   -0.1863 C.2       1 <0>        -0.3695
      4 C4         -1.3284   -3.0930    0.1092 C.3       1 <0>         0.1300
      5 H1         -1.9098   -3.1871    1.0264 H         1 <0>         0.0509
      6 C5         -0.0520   -3.8994    0.2716 C.2       1 <0>        -0.3955
      7 C6         -0.0842   -5.2500    0.5414 C.2       1 <0>         0.4702
      8 O1         -1.2599   -5.8592    0.7916 O.3       1 <0>        -0.6399
      9 O2          1.0600   -5.9618    0.5551 O.3       1 <0>        -0.3356
     10 C7          0.9523   -7.3575    0.8421 C.3       1 <0>         0.0382
     11 C8          1.1555   -3.2122    0.1352 C.2       1 <0>         0.2937
     12 N1          1.1917   -1.9257   -0.1273 N.2       1 <0>        -0.6436
     13 C9          2.4510   -3.9671    0.2873 C.3       1 <0>        -0.1041
     14 C10        -2.1258   -3.7024   -1.0150 C.ar      1 <0>        -0.0275
     15 C11        -1.6384   -3.6641   -2.3082 C.ar      1 <0>        -0.0603
     16 C12        -2.3697   -4.2230   -3.3393 C.ar      1 <0>        -0.1314
     17 C13        -3.5886   -4.8207   -3.0773 C.ar      1 <0>        -0.0813
     18 C14        -4.0755   -4.8597   -1.7844 C.ar      1 <0>        -0.0577
     19 C15        -3.3419   -4.3045   -0.7524 C.ar      1 <0>        -0.0011
     20 N2         -5.3807   -5.4991   -1.5041 N.pl3     1 <0>         0.0447
     21 O3         -6.0208   -5.9873   -2.4061 O.2       1 <0>        -0.1905
     22 O4         -5.8066   -5.5333   -0.3731 O.3       1 <0>        -0.1619
     23 C16        -2.2498   -0.7637   -0.3572 C.2       1 <0>         0.5224
     24 O5         -2.0766    0.4185   -0.5932 O.2       1 <0>        -0.5614
     25 O6         -3.5037   -1.2563   -0.2597 O.3       1 <0>        -0.3367
     26 C17        -4.5793   -0.3339   -0.4448 C.3       1 <0>         0.0766
     27 C18        -5.9129   -1.0696   -0.2988 C.3       1 <0>         0.0591
     28 N3         -6.0415   -1.5829    1.0716 N.3       1 <0>        -0.5218
     29 C19        -7.0931   -2.6053    1.1543 C.3       1 <0>         0.0213
     30 C20        -6.2931   -0.4908    2.0214 C.3       1 <0>         0.0901
     31 C21        -6.1754   -1.0131    3.4300 C.ar      1 <0>        -0.0729
     32 C22        -7.2871   -1.5253    4.0724 C.ar      1 <0>        -0.1145
     33 C23        -7.1792   -2.0044    5.3646 C.ar      1 <0>        -0.1243
     34 C24        -5.9594   -1.9717    6.0142 C.ar      1 <0>        -0.1221
     35 C25        -4.8475   -1.4604    5.3715 C.ar      1 <0>        -0.1196
     36 C26        -4.9545   -0.9852    4.0778 C.ar      1 <0>        -0.0918
     37 H2          1.4166    0.5270   -0.6182 H         1 <0>         0.0535
     38 H3         -0.1125    0.5687   -1.5284 H         1 <0>         0.0754
     39 H4         -0.1059    0.9174    0.2171 H         1 <0>         0.0758
     40 H5          0.3195   -7.8346    0.0937 H         1 <0>         0.0497
     41 H6          1.9436   -7.8102    0.8217 H         1 <0>         0.0850
     42 H7          0.5116   -7.4924    1.8299 H         1 <0>         0.0518
     43 H8          2.5271   -4.7200   -0.4972 H         1 <0>         0.0784
     44 H9          3.2875   -3.2730    0.2072 H         1 <0>         0.0632
     45 H10         2.4752   -4.4544    1.2621 H         1 <0>         0.0765
     46 H11        -0.6862   -3.1972   -2.5128 H         1 <0>         0.1274
     47 H12        -1.9893   -4.1925   -4.3496 H         1 <0>         0.1333
     48 H13        -4.1604   -5.2567   -3.8831 H         1 <0>         0.1382
     49 H14        -3.7206   -4.3382    0.2585 H         1 <0>         0.1450
     50 H15        -4.5151    0.4542    0.3054 H         1 <0>         0.0587
     51 H16        -4.5139    0.1056   -1.4401 H         1 <0>         0.0592
     52 H17        -6.7321   -0.3816   -0.5074 H         1 <0>         0.0507
     53 H18        -5.9482   -1.9009   -1.0029 H         1 <0>         0.0787
     54 H19        -6.8349   -3.4450    0.5091 H         1 <0>         0.0773
     55 H20        -7.1825   -2.9521    2.1837 H         1 <0>         0.0740
     56 H21        -8.0421   -2.1773    0.8314 H         1 <0>         0.0179
     57 H22        -5.5616    0.3020    1.8655 H         1 <0>         0.0819
     58 H23        -7.2965   -0.0956    1.8630 H         1 <0>         0.0391
     59 H24        -8.2401   -1.5509    3.5649 H         1 <0>         0.1162
     60 H25        -8.0479   -2.4039    5.8668 H         1 <0>         0.1180
     61 H26        -5.8752   -2.3454    7.0240 H         1 <0>         0.1178
     62 H27        -3.8946   -1.4345    5.8792 H         1 <0>         0.1204
     63 H28        -4.0850   -0.5892    3.5743 H         1 <0>         0.1223
@<TRIPOS>BOND
     1    1    2 1
     2    1   37 1
     3    1   38 1
     4    1   39 1
     5    2   12 1
     6    2    3 2
     7    3    4 1
     8    3   23 1
     9    4    5 1
    10    4    6 1
    11    4   14 1
    12    6    7 2
    13    6   11 1
    14    7    8 1
    15    7    9 1
    16    9   10 1
    17   10   40 1
    18   10   41 1
    19   10   42 1
    20   11   12 2
    21   11   13 1
    22   13   43 1
    23   13   44 1
    24   13   45 1
    25   14   19 ar
    26   14   15 ar
    27   15   16 ar
    28   15   46 1
    29   16   17 ar
    30   16   47 1
    31   17   18 ar
    32   17   48 1
    33   18   19 ar
    34   18   20 1
    35   19   49 1
    36   20   21 2
    37   20   22 1
    38   23   24 2
    39   23   25 1
    40   25   26 1
    41   26   27 1
    42   26   50 1
    43   26   51 1
    44   27   28 1
    45   27   52 1
    46   27   53 1
    47   28   29 1
    48   28   30 1
    49   29   54 1
    50   29   55 1
    51   29   56 1
    52   30   31 1
    53   30   57 1
    54   30   58 1
    55   31   36 ar
    56   31   32 ar
    57   32   33 ar
    58   32   59 1
    59   33   34 ar
    60   33   60 1
    61   34   35 ar
    62   34   61 1
    63   35   36 ar
    64   35   62 1
    65   36   63 1
@<TRIPOS>MOLECULE
ZINC00601265
   63    65     0     0     0
SMALL
USER_CHARGES

@<TRIPOS>ATOM
      1 C1         -0.1447    1.4930    0.1304 C.3       1 <0>        -0.0959
      2 C2         -0.0591   -0.0099    0.0595 C.2       1 <0>         0.2818
      3 C3         -1.2163   -0.7321   -0.0018 C.2       1 <0>        -0.3765
      4 C4         -1.0979   -2.2435   -0.0729 C.3       1 <0>         0.1154
      5 H1         -1.6327   -2.6674    0.7770 H         1 <0>         0.0503
      6 C5          0.3158   -2.7977   -0.0682 C.2       1 <0>        -0.3978
      7 C6          0.5572   -4.1527   -0.1294 C.2       1 <0>         0.4742
      8 O1          1.8205   -4.6076   -0.2441 O.3       1 <0>        -0.6458
      9 O2         -0.4701   -5.0232   -0.0744 O.3       1 <0>        -0.3361
     10 C7         -0.1467   -6.4134   -0.1432 C.3       1 <0>         0.0434
     11 C8          1.3603   -1.8740    0.0004 C.2       1 <0>         0.3161
     12 N1          1.1357   -0.5809    0.0534 N.2       1 <0>        -0.6451
     13 C9          2.7823   -2.3730    0.0080 C.3       1 <0>        -0.0919
     14 C10        -1.7783   -2.7103   -1.3340 C.ar      1 <0>        -0.0335
     15 C11        -1.3310   -2.2679   -2.5651 C.ar      1 <0>        -0.0540
     16 C12        -1.9550   -2.6960   -3.7217 C.ar      1 <0>        -0.1278
     17 C13        -3.0261   -3.5670   -3.6476 C.ar      1 <0>        -0.0789
     18 C14        -3.4727   -4.0100   -2.4168 C.ar      1 <0>        -0.0571
     19 C15        -2.8458   -3.5851   -1.2601 C.ar      1 <0>        -0.0180
     20 N2         -4.6198   -4.9421   -2.3374 N.pl3     1 <0>         0.0451
     21 O3         -5.1661   -5.3159   -3.3491 O.2       1 <0>        -0.1871
     22 O4         -5.0104   -5.3296   -1.2609 O.3       1 <0>        -0.1641
     23 C16        -2.4715   -0.0988    0.0013 C.2       1 <0>         0.5223
     24 O5         -2.5407    1.1158    0.0595 O.2       1 <0>        -0.5622
     25 O6         -3.6007   -0.8374   -0.0601 O.3       1 <0>        -0.3389
     26 C17        -4.8411   -0.1280   -0.0529 C.3       1 <0>         0.0759
     27 C18        -5.9993   -1.1249   -0.1277 C.3       1 <0>         0.0599
     28 N3         -6.0156   -1.9487    1.0885 N.3       1 <0>        -0.5221
     29 C19        -6.3302   -1.1356    2.2708 C.3       1 <0>         0.0183
     30 C20        -6.9574   -3.0680    0.9536 C.3       1 <0>         0.0949
     31 C21        -6.7714   -4.0224    2.1049 C.ar      1 <0>        -0.0741
     32 C22        -5.8690   -5.0643    2.0001 C.ar      1 <0>        -0.0860
     33 C23        -5.6984   -5.9399    3.0561 C.ar      1 <0>        -0.1208
     34 C24        -6.4299   -5.7732    4.2172 C.ar      1 <0>        -0.1230
     35 C25        -7.3317   -4.7308    4.3223 C.ar      1 <0>        -0.1286
     36 C26        -7.4991   -3.8527    3.2679 C.ar      1 <0>        -0.1172
     37 H2          0.8605    1.9128    0.1687 H         1 <0>         0.0540
     38 H3         -0.6623    1.8695   -0.7519 H         1 <0>         0.0755
     39 H4         -0.6942    1.7838    1.0257 H         1 <0>         0.0760
     40 H5          0.5050   -6.6765    0.6899 H         1 <0>         0.0524
     41 H6         -1.0622   -7.0025   -0.0885 H         1 <0>         0.0837
     42 H7          0.3636   -6.6217   -1.0836 H         1 <0>         0.0491
     43 H8          2.9907   -2.8906   -0.9284 H         1 <0>         0.0816
     44 H9          3.4631   -1.5287    0.1158 H         1 <0>         0.0493
     45 H10         2.9215   -3.0608    0.8421 H         1 <0>         0.0790
     46 H11        -0.4943   -1.5875   -2.6231 H         1 <0>         0.1294
     47 H12        -1.6061   -2.3498   -4.6834 H         1 <0>         0.1350
     48 H13        -3.5141   -3.9010   -4.5513 H         1 <0>         0.1397
     49 H14        -3.1923   -3.9342   -0.2986 H         1 <0>         0.1456
     50 H15        -4.9215    0.4541    0.8652 H         1 <0>         0.0605
     51 H16        -4.8819    0.5414   -0.9122 H         1 <0>         0.0590
     52 H17        -6.9409   -0.5823   -0.2117 H         1 <0>         0.0491
     53 H18        -5.8706   -1.7666   -0.9994 H         1 <0>         0.0778
     54 H19        -7.3112   -0.6772    2.1460 H         1 <0>         0.0209
     55 H20        -6.3358   -1.7701    3.1571 H         1 <0>         0.0737
     56 H21        -5.5771   -0.3562    2.3867 H         1 <0>         0.0689
     57 H22        -7.9784   -2.6865    0.9592 H         1 <0>         0.0369
     58 H23        -6.7696   -3.5897    0.0152 H         1 <0>         0.0861
     59 H24        -5.2975   -5.1945    1.0930 H         1 <0>         0.1362
     60 H25        -4.9939   -6.7543    2.9740 H         1 <0>         0.1204
     61 H26        -6.2972   -6.4577    5.0420 H         1 <0>         0.1161
     62 H27        -7.9035   -4.6008    5.2293 H         1 <0>         0.1156
     63 H28        -8.2009   -3.0361    3.3514 H         1 <0>         0.1134
@<TRIPOS>BOND
     1    1    2 1
     2    1   37 1
     3    1   38 1
     4    1   39 1
     5    2   12 1
     6    2    3 2
     7    3    4 1
     8    3   23 1
     9    4    5 1
    10    4    6 1
    11    4   14 1
    12    6    7 2
    13    6   11 1
    14    7    8 1
    15    7    9 1
    16    9   10 1
    17   10   40 1
    18   10   41 1
    19   10   42 1
    20   11   12 2
    21   11   13 1
    22   13   43 1
    23   13   44 1
    24   13   45 1
    25   14   19 ar
    26   14   15 ar
    27   15   16 ar
    28   15   46 1
    29   16   17 ar
    30   16   47 1
    31   17   18 ar
    32   17   48 1
    33   18   19 ar
    34   18   20 1
    35   19   49 1
    36   20   21 2
    37   20   22 1
    38   23   24 2
    39   23   25 1
    40   25   26 1
    41   26   27 1
    42   26   50 1
    43   26   51 1
    44   27   28 1
    45   27   52 1
    46   27   53 1
    47   28   29 1
    48   28   30 1
    49   29   54 1
    50   29   55 1
    51   29   56 1
    52   30   31 1
    53   30   57 1
    54   30   58 1
    55   31   36 ar
    56   31   32 ar
    57   32   33 ar
    58   32   59 1
    59   33   34 ar
    60   33   60 1
    61   34   35 ar
    62   34   61 1
    63   35   36 ar
    64   35   62 1
    65   36   63 1
@<TRIPOS>MOLECULE
ZINC00601265
   63    65     0     0     0
SMALL
USER_CHARGES

@<TRIPOS>ATOM
      1 C1          2.1844    2.5720   -0.5351 C.3       1 <0>        -0.0963
      2 C2          1.8111    1.1121   -0.5586 C.2       1 <0>         0.2822
      3 C3          0.5003    0.7714   -0.7317 C.2       1 <0>        -0.3777
      4 C4          0.1555   -0.7065   -0.7514 C.3       1 <0>         0.1288
      5 H1         -0.3264   -0.9311   -1.7030 H         1 <0>         0.0459
      6 C5          1.3231   -1.6611   -0.5740 C.2       1 <0>        -0.3946
      7 C6          1.1417   -3.0267   -0.5739 C.2       1 <0>         0.4728
      8 O1         -0.1032   -3.5411   -0.6154 O.3       1 <0>        -0.6448
      9 O2          2.2091   -3.8482   -0.5325 O.3       1 <0>        -0.3142
     10 C7          1.9543   -5.2495   -0.6494 C.3       1 <0>         0.0740
     11 C8          3.2618   -6.0226   -0.4659 C.3       1 <0>         0.0568
     12 N1          4.1676   -5.7250   -1.5834 N.3       1 <0>        -0.5256
     13 C9          3.7300   -6.4030   -2.8108 C.3       1 <0>         0.0173
     14 C10         5.5522   -6.0840   -1.2487 C.3       1 <0>         0.0938
     15 C11         6.4806   -5.5452   -2.3064 C.ar      1 <0>        -0.0753
     16 C12         6.7875   -6.3141   -3.4134 C.ar      1 <0>        -0.1161
     17 C13         7.6391   -5.8198   -4.3837 C.ar      1 <0>        -0.1247
     18 C14         8.1834   -4.5565   -4.2471 C.ar      1 <0>        -0.1224
     19 C15         7.8757   -3.7872   -3.1406 C.ar      1 <0>        -0.1199
     20 C16         7.0208   -4.2798   -2.1725 C.ar      1 <0>        -0.0931
     21 C17         2.5884   -1.0942   -0.4114 C.2       1 <0>         0.2970
     22 N2          2.7674    0.2071   -0.4161 N.2       1 <0>        -0.6442
     23 C18         3.7804   -1.9985   -0.2315 C.3       1 <0>        -0.1018
     24 C19        -0.8373   -0.9732    0.3505 C.ar      1 <0>        -0.0218
     25 C20        -0.5016   -0.7021    1.6640 C.ar      1 <0>        -0.0597
     26 C21        -1.4122   -0.9467    2.6746 C.ar      1 <0>        -0.1294
     27 C22        -2.6589   -1.4620    2.3720 C.ar      1 <0>        -0.0809
     28 C23        -2.9949   -1.7322    1.0588 C.ar      1 <0>        -0.0554
     29 C24        -2.0855   -1.4835    0.0474 C.ar      1 <0>        -0.0069
     30 N3         -4.3294   -2.2845    0.7349 N.pl3     1 <0>         0.0445
     31 O3         -5.1256   -2.4992    1.6190 O.2       1 <0>        -0.1855
     32 O4         -4.6233   -2.5208   -0.4138 O.3       1 <0>        -0.1687
     33 C25        -0.4937    1.7537   -0.8854 C.2       1 <0>         0.5216
     34 O5         -0.1922    2.9335   -0.8656 O.2       1 <0>        -0.5579
     35 O6         -1.7831    1.3889   -1.0551 O.3       1 <0>        -0.3600
     36 C26        -2.7402    2.4394   -1.2050 C.3       1 <0>         0.0413
     37 H2          3.2609    2.6695   -0.3945 H         1 <0>         0.0545
     38 H3          1.8978    3.0355   -1.4791 H         1 <0>         0.0763
     39 H4          1.6644    3.0668    0.2852 H         1 <0>         0.0753
     40 H5          1.2414   -5.5543    0.1167 H         1 <0>         0.0643
     41 H6          1.5414   -5.4626   -1.6354 H         1 <0>         0.0590
     42 H7          3.7313   -5.7251    0.4717 H         1 <0>         0.0834
     43 H8          3.0515   -7.0919   -0.4436 H         1 <0>         0.0518
     44 H9          2.7493   -6.0278   -3.1033 H         1 <0>         0.0702
     45 H10         4.4464   -6.2080   -3.6088 H         1 <0>         0.0728
     46 H11         3.6695   -7.4764   -2.6311 H         1 <0>         0.0227
     47 H12         5.8152   -5.6551   -0.2817 H         1 <0>         0.0845
     48 H13         5.6451   -7.1690   -1.2022 H         1 <0>         0.0392
     49 H14         6.3623   -7.3011   -3.5201 H         1 <0>         0.1159
     50 H15         7.8795   -6.4208   -5.2482 H         1 <0>         0.1178
     51 H16         8.8493   -4.1706   -5.0048 H         1 <0>         0.1181
     52 H17         8.3012   -2.8003   -3.0338 H         1 <0>         0.1216
     53 H18         6.7774   -3.6773   -1.3098 H         1 <0>         0.1257
     54 H19         3.9161   -2.6034   -1.1280 H         1 <0>         0.0892
     55 H20         4.6721   -1.3950   -0.0620 H         1 <0>         0.0588
     56 H21         3.6152   -2.6513    0.6256 H         1 <0>         0.0734
     57 H22         0.4722   -0.2995    1.9004 H         1 <0>         0.1272
     58 H23        -1.1497   -0.7355    3.7007 H         1 <0>         0.1337
     59 H24        -3.3702   -1.6538    3.1617 H         1 <0>         0.1390
     60 H25        -2.3494   -1.6912   -0.9791 H         1 <0>         0.1407
     61 H26        -3.7338    2.0101   -1.3331 H         1 <0>         0.0861
     62 H27        -2.7289    3.0708   -0.3165 H         1 <0>         0.0486
     63 H28        -2.4878    3.0387   -2.0798 H         1 <0>         0.0509
@<TRIPOS>BOND
     1    1    2 1
     2    1   37 1
     3    1   38 1
     4    1   39 1
     5    2   22 1
     6    2    3 2
     7    3    4 1
     8    3   33 1
     9    4    5 1
    10    4    6 1
    11    4   24 1
    12    6    7 2
    13    6   21 1
    14    7    8 1
    15    7    9 1
    16    9   10 1
    17   10   11 1
    18   10   40 1
    19   10   41 1
    20   11   12 1
    21   11   42 1
    22   11   43 1
    23   12   13 1
    24   12   14 1
    25   13   44 1
    26   13   45 1
    27   13   46 1
    28   14   15 1
    29   14   47 1
    30   14   48 1
    31   15   20 ar
    32   15   16 ar
    33   16   17 ar
    34   16   49 1
    35   17   18 ar
    36   17   50 1
    37   18   19 ar
    38   18   51 1
    39   19   20 ar
    40   19   52 1
    41   20   53 1
    42   21   22 2
    43   21   23 1
    44   23   54 1
    45   23   55 1
    46   23   56 1
    47   24   29 ar
    48   24   25 ar
    49   25   26 ar
    50   25   57 1
    51   26   27 ar
    52   26   58 1
    53   27   28 ar
    54   27   59 1
    55   28   29 ar
    56   28   30 1
    57   29   60 1
    58   30   31 2
    59   30   32 1
    60   33   34 2
    61   33   35 1
    62   35   36 1
    63   36   61 1
    64   36   62 1
    65   36   63 1
@<TRIPOS>MOLECULE
ZINC19796087
   65    67     0     0     0
SMALL
USER_CHARGES

@<TRIPOS>ATOM
      1 C1          0.7782    1.5823    1.6623 C.3       1 <0>        -0.1212
      2 C2          0.7333    0.1247    1.2822 C.2       1 <0>         0.2410
      3 C3         -0.4478   -0.4515    0.9991 C.2       1 <0>        -0.2540
      4 C4         -0.5393   -1.8991    0.6077 C.3       1 <0>         0.0879
      5 H1         -1.3770   -2.3601    1.1311 H         1 <0>         0.1033
      6 C5          0.7263   -2.6270    0.9620 C.2       1 <0>        -0.2441
      7 C6          1.8602   -1.9635    1.2466 C.2       1 <0>         0.2018
      8 N1          1.8957   -0.5946    1.2241 N.pl3     1 <0>        -0.6286
      9 C7          3.1084   -2.7355    1.5887 C.3       1 <0>        -0.1352
     10 C8          0.7246   -4.0407    0.9973 C.2       1 <0>         0.5449
     11 O1          0.1953   -4.6255    1.9239 O.2       1 <0>        -0.4703
     12 O2          1.3099   -4.7412    0.0034 O.3       1 <0>        -0.3657
     13 C9          1.3697   -6.1605    0.1581 C.3       1 <0>         0.0268
     14 C10         2.1674   -6.7665   -0.9984 C.3       1 <0>        -0.0026
     15 N2          3.5533   -6.2825   -0.9440 N.4       1 <0>        -0.3868
     16 C11         4.2074   -6.8053    0.2630 C.3       1 <0>        -0.0595
     17 C12         4.2803   -6.7442   -2.1340 C.3       1 <0>         0.0430
     18 C13         5.6576   -6.1328   -2.1499 C.ar      1 <0>        -0.1619
     19 C14         5.8461   -4.8675   -2.6738 C.ar      1 <0>        -0.0964
     20 C15         7.1095   -4.3067   -2.6884 C.ar      1 <0>        -0.1131
     21 C16         8.1843   -5.0109   -2.1786 C.ar      1 <0>        -0.0834
     22 C17         7.9956   -6.2758   -1.6538 C.ar      1 <0>        -0.1132
     23 C18         6.7315   -6.8349   -1.6353 C.ar      1 <0>        -0.0931
     24 C19        -0.7680   -1.9978   -0.8785 C.ar      1 <0>        -0.0751
     25 C20         0.1118   -1.3903   -1.7552 C.ar      1 <0>        -0.0538
     26 C21        -0.0980   -1.4808   -3.1183 C.ar      1 <0>        -0.1162
     27 C22        -1.1873   -2.1792   -3.6052 C.ar      1 <0>        -0.0554
     28 C23        -2.0663   -2.7872   -2.7289 C.ar      1 <0>        -0.0434
     29 C24        -1.8541   -2.7003   -1.3655 C.ar      1 <0>        -0.0412
     30 N3         -3.2328   -3.5345   -3.2502 N.pl3     1 <0>         0.0293
     31 O3         -3.3658   -3.6934   -4.4413 O.2       1 <0>        -0.1536
     32 O4         -4.0526   -3.9860   -2.4849 O.3       1 <0>        -0.1516
     33 C25        -1.6297    0.3216    1.0717 C.2       1 <0>         0.5149
     34 O5         -1.5706    1.4952    1.3877 O.2       1 <0>        -0.5108
     35 O6         -2.8231   -0.2423    0.7905 O.3       1 <0>        -0.3516
     36 C26        -3.9755    0.5975    0.8839 C.3       1 <0>         0.0353
     37 H2          1.8105    1.8770    1.8509 H         1 <0>         0.0676
     38 H3          0.3719    2.1827    0.8483 H         1 <0>         0.1065
     39 H4          0.1846    1.7415    2.5625 H         1 <0>         0.1091
     40 H5          2.7471   -0.1328    1.1708 H         1 <0>         0.4275
     41 H6          3.7035   -2.8821    0.6873 H         1 <0>         0.0911
     42 H7          3.6910   -2.1779    2.3220 H         1 <0>         0.0956
     43 H8          2.8336   -3.7050    2.0043 H         1 <0>         0.0811
     44 H9          1.8576   -6.4028    1.1022 H         1 <0>         0.0947
     45 H10         0.3592   -6.5692    0.1560 H         1 <0>         0.1179
     46 H11         2.1585   -7.8533   -0.9158 H         1 <0>         0.1538
     47 H12         1.7161   -6.4704   -1.9454 H         1 <0>         0.1435
     48 H13         3.6679   -6.4627    1.1460 H         1 <0>         0.1210
     49 H14         4.2039   -7.8949    0.2351 H         1 <0>         0.1279
     50 H15         5.2358   -6.4462    0.3034 H         1 <0>         0.1275
     51 H16         4.3653   -7.8306   -2.1090 H         1 <0>         0.1383
     52 H17         3.7386   -6.4427   -3.0305 H         1 <0>         0.1383
     53 H18         5.0064   -4.3174   -3.0721 H         1 <0>         0.1300
     54 H19         7.2569   -3.3185   -3.0983 H         1 <0>         0.1357
     55 H20         9.1714   -4.5730   -2.1906 H         1 <0>         0.1360
     56 H21         8.8353   -6.8261   -1.2558 H         1 <0>         0.1366
     57 H22         6.5834   -7.8216   -1.2220 H         1 <0>         0.1320
     58 H23         0.9627   -0.8448   -1.3748 H         1 <0>         0.1320
     59 H24         0.5889   -1.0057   -3.8031 H         1 <0>         0.1474
     60 H25        -1.3516   -2.2493   -4.6704 H         1 <0>         0.1544
     61 H26        -2.5389   -3.1786   -0.6808 H         1 <0>         0.1527
     62 H27        -4.8662    0.0214    0.6331 H         1 <0>         0.1038
     63 H28        -4.0647    0.9802    1.9006 H         1 <0>         0.0637
     64 H29        -3.8747    1.4314    0.1893 H         1 <0>         0.0611
     65 H30         3.5565   -5.2738   -0.9182 H         1 <0>         0.4270
@<TRIPOS>BOND
     1    1    2 1
     2    1   37 1
     3    1   38 1
     4    1   39 1
     5    2    8 1
     6    2    3 2
     7    3    4 1
     8    3   33 1
     9    4    5 1
    10    4    6 1
    11    4   24 1
    12    6    7 2
    13    6   10 1
    14    7    8 1
    15    7    9 1
    16    8   40 1
    17    9   41 1
    18    9   42 1
    19    9   43 1
    20   10   11 2
    21   10   12 1
    22   12   13 1
    23   13   14 1
    24   13   44 1
    25   13   45 1
    26   14   15 1
    27   14   46 1
    28   14   47 1
    29   15   16 1
    30   15   17 1
    31   15   65 1
    32   16   48 1
    33   16   49 1
    34   16   50 1
    35   17   18 1
    36   17   51 1
    37   17   52 1
    38   18   23 ar
    39   18   19 ar
    40   19   20 ar
    41   19   53 1
    42   20   21 ar
    43   20   54 1
    44   21   22 ar
    45   21   55 1
    46   22   23 ar
    47   22   56 1
    48   23   57 1
    49   24   29 ar
    50   24   25 ar
    51   25   26 ar
    52   25   58 1
    53   26   27 ar
    54   26   59 1
    55   27   28 ar
    56   27   60 1
    57   28   29 ar
    58   28   30 1
    59   29   61 1
    60   30   31 2
    61   30   32 1
    62   33   34 2
    63   33   35 1
    64   35   36 1
    65   36   62 1
    66   36   63 1
    67   36   64 1
@<TRIPOS>MOLECULE
ZINC19796087
   63    65     0     0     0
SMALL
USER_CHARGES

@<TRIPOS>ATOM
      1 C1          0.2573    1.4152   -0.0519 C.3       1 <0>        -0.0967
      2 C2         -0.2176    0.0503   -0.4791 C.2       1 <0>         0.2779
      3 C3         -1.5528   -0.1459   -0.6868 C.2       1 <0>        -0.3722
      4 C4         -2.0005   -1.5309   -1.1169 C.3       1 <0>         0.1293
      5 H1         -2.5192   -1.4401   -2.0713 H         1 <0>         0.0469
      6 C5         -0.8987   -2.5643   -1.2722 C.2       1 <0>        -0.3956
      7 C6         -1.1751   -3.8576   -1.6580 C.2       1 <0>         0.4704
      8 O1         -2.4249   -4.1970   -2.0308 O.3       1 <0>        -0.6403
      9 O2         -0.1958   -4.7833   -1.6627 O.3       1 <0>        -0.3354
     10 C7         -0.5536   -6.1042   -2.0741 C.3       1 <0>         0.0383
     11 C8          0.4067   -2.1462   -1.0074 C.2       1 <0>         0.2947
     12 N1          0.6761   -0.9128   -0.6445 N.2       1 <0>        -0.6433
     13 C9          1.5364   -3.1338   -1.1470 C.3       1 <0>        -0.1042
     14 C10        -2.9833   -2.0459   -0.0972 C.ar      1 <0>        -0.0269
     15 C11        -2.6681   -2.0061    1.2484 C.ar      1 <0>        -0.0551
     16 C12        -3.5695   -2.4784    2.1836 C.ar      1 <0>        -0.1253
     17 C13        -4.7867   -2.9903    1.7736 C.ar      1 <0>        -0.0781
     18 C14        -5.1021   -3.0293    0.4285 C.ar      1 <0>        -0.0522
     19 C15        -4.2022   -2.5529   -0.5067 C.ar      1 <0>        -0.0028
     20 N2         -6.4050   -3.5778   -0.0105 N.pl3     1 <0>         0.0445
     21 O3         -7.2078   -3.9583    0.8094 O.2       1 <0>        -0.1831
     22 O4         -6.6662   -3.6454   -1.1890 O.3       1 <0>        -0.1704
     23 C16        -2.4790    0.8965   -0.5082 C.2       1 <0>         0.5253
     24 O5         -2.0869    2.0281   -0.2864 O.2       1 <0>        -0.5595
     25 O6         -3.8036    0.6432   -0.5826 O.3       1 <0>        -0.3439
     26 C17        -4.6838    1.7670   -0.5165 C.3       1 <0>         0.0756
     27 C18        -6.1340    1.2794   -0.5129 C.3       1 <0>         0.0550
     28 N3         -6.4989    0.8385    0.8401 N.3       1 <0>        -0.5271
     29 C19        -6.5712    1.9785    1.7637 C.3       1 <0>         0.0190
     30 C20        -7.7632    0.0906    0.8269 C.3       1 <0>         0.0962
     31 C21        -8.0622   -0.4152    2.2147 C.ar      1 <0>        -0.0800
     32 C22        -7.4894   -1.5919    2.6597 C.ar      1 <0>        -0.0918
     33 C23        -7.7636   -2.0558    3.9327 C.ar      1 <0>        -0.1178
     34 C24        -8.6102   -1.3428    4.7608 C.ar      1 <0>        -0.1208
     35 C25        -9.1823   -0.1656    4.3160 C.ar      1 <0>        -0.1273
     36 C26        -8.9047    0.3006    3.0446 C.ar      1 <0>        -0.1152
     37 H2          1.3410    1.4028    0.0648 H         1 <0>         0.0543
     38 H3         -0.0183    2.1493   -0.8090 H         1 <0>         0.0801
     39 H4         -0.2073    1.6808    0.8977 H         1 <0>         0.0718
     40 H5         -0.9348   -6.0760   -3.0949 H         1 <0>         0.0520
     41 H6          0.3248   -6.7483   -2.0319 H         1 <0>         0.0850
     42 H7         -1.3235   -6.4957   -1.4093 H         1 <0>         0.0499
     43 H8          1.5221   -3.5628   -2.1489 H         1 <0>         0.0772
     44 H9          2.4862   -2.6248   -0.9832 H         1 <0>         0.0634
     45 H10         1.4178   -3.9280   -0.4100 H         1 <0>         0.0782
     46 H11        -1.7174   -1.6062    1.5687 H         1 <0>         0.1253
     47 H12        -3.3230   -2.4479    3.2346 H         1 <0>         0.1313
     48 H13        -5.4907   -3.3600    2.5043 H         1 <0>         0.1365
     49 H14        -4.4502   -2.5799   -1.5575 H         1 <0>         0.1417
     50 H15        -4.4872    2.3293    0.3963 H         1 <0>         0.0653
     51 H16        -4.5186    2.4092   -1.3816 H         1 <0>         0.0596
     52 H17        -6.7916    2.0928   -0.8196 H         1 <0>         0.0512
     53 H18        -6.2389    0.4459   -1.2073 H         1 <0>         0.0865
     54 H19        -7.3233    2.6844    1.4115 H         1 <0>         0.0227
     55 H20        -6.8431    1.6239    2.7579 H         1 <0>         0.0724
     56 H21        -5.6008    2.4730    1.8072 H         1 <0>         0.0694
     57 H22        -8.5696    0.7459    0.4975 H         1 <0>         0.0405
     58 H23        -7.6788   -0.7538    0.1428 H         1 <0>         0.0767
     59 H24        -6.8280   -2.1490    2.0128 H         1 <0>         0.1305
     60 H25        -7.3167   -2.9756    4.2802 H         1 <0>         0.1204
     61 H26        -8.8250   -1.7056    5.7551 H         1 <0>         0.1179
     62 H27        -9.8440    0.3913    4.9629 H         1 <0>         0.1173
     63 H28        -9.3487    1.2223    2.6985 H         1 <0>         0.1146
@<TRIPOS>BOND
     1    1    2 1
     2    1   37 1
     3    1   38 1
     4    1   39 1
     5    2   12 1
     6    2    3 2
     7    3    4 1
     8    3   23 1
     9    4    5 1
    10    4    6 1
    11    4   14 1
    12    6    7 2
    13    6   11 1
    14    7    8 1
    15    7    9 1
    16    9   10 1
    17   10   40 1
    18   10   41 1
    19   10   42 1
    20   11   12 2
    21   11   13 1
    22   13   43 1
    23   13   44 1
    24   13   45 1
    25   14   19 ar
    26   14   15 ar
    27   15   16 ar
    28   15   46 1
    29   16   17 ar
    30   16   47 1
    31   17   18 ar
    32   17   48 1
    33   18   19 ar
    34   18   20 1
    35   19   49 1
    36   20   21 2
    37   20   22 1
    38   23   24 2
    39   23   25 1
    40   25   26 1
    41   26   27 1
    42   26   50 1
    43   26   51 1
    44   27   28 1
    45   27   52 1
    46   27   53 1
    47   28   29 1
    48   28   30 1
    49   29   54 1
    50   29   55 1
    51   29   56 1
    52   30   31 1
    53   30   57 1
    54   30   58 1
    55   31   36 ar
    56   31   32 ar
    57   32   33 ar
    58   32   59 1
    59   33   34 ar
    60   33   60 1
    61   34   35 ar
    62   34   61 1
    63   35   36 ar
    64   35   62 1
    65   36   63 1
@<TRIPOS>MOLECULE
ZINC19796087
   63    65     0     0     0
SMALL
USER_CHARGES

@<TRIPOS>ATOM
      1 C1          1.3947   -0.2351    1.5837 C.3       1 <0>        -0.0963
      2 C2          1.2348   -1.7274    1.7190 C.2       1 <0>         0.2813
      3 C3         -0.0098   -2.2708    1.5772 C.2       1 <0>        -0.3767
      4 C4         -0.1389   -3.7765    1.7183 C.3       1 <0>         0.1156
      5 H1         -0.5632   -4.1700    0.7946 H         1 <0>         0.0509
      6 C5          1.1491   -4.5272    2.0064 C.2       1 <0>        -0.3974
      7 C6          1.1651   -5.8967    2.1559 C.2       1 <0>         0.4735
      8 O1          2.3097   -6.5247    2.4900 O.3       1 <0>        -0.6459
      9 O2          0.0362   -6.6082    1.9680 O.3       1 <0>        -0.3360
     10 C7          0.1256   -8.0241    2.1395 C.3       1 <0>         0.0433
     11 C8          2.3165   -3.7691    2.1128 C.2       1 <0>         0.3164
     12 N1          2.3075   -2.4638    1.9658 N.2       1 <0>        -0.6451
     13 C9          3.6215   -4.4667    2.3979 C.3       1 <0>        -0.0918
     14 C10        -1.1068   -4.0632    2.8373 C.ar      1 <0>        -0.0333
     15 C11        -0.8840   -3.5364    4.0960 C.ar      1 <0>        -0.0545
     16 C12        -1.7717   -3.7994    5.1222 C.ar      1 <0>        -0.1270
     17 C13        -2.8828   -4.5887    4.8899 C.ar      1 <0>        -0.0788
     18 C14        -3.1060   -5.1146    3.6314 C.ar      1 <0>        -0.0570
     19 C15        -2.2203   -4.8480    2.6038 C.ar      1 <0>        -0.0205
     20 N2         -4.2952   -5.9601    3.3828 N.pl3     1 <0>         0.0438
     21 O3         -5.1137   -6.1242    4.2574 O.2       1 <0>        -0.1858
     22 O4         -4.4480   -6.4866    2.3053 O.3       1 <0>        -0.1636
     23 C16        -1.1306   -1.4651    1.3105 C.2       1 <0>         0.5231
     24 O5         -1.0153   -0.2531    1.2774 O.2       1 <0>        -0.5621
     25 O6         -2.3353   -2.0352    1.0911 O.3       1 <0>        -0.3397
     26 C17        -3.4202   -1.1592    0.7785 C.3       1 <0>         0.0787
     27 C18        -4.6950   -1.9797    0.5726 C.3       1 <0>         0.0587
     28 N3         -4.5394   -2.8381   -0.6093 N.3       1 <0>        -0.5241
     29 C19        -4.6425   -2.0536   -1.8470 C.3       1 <0>         0.0209
     30 C20        -5.5183   -3.9333   -0.5972 C.3       1 <0>         0.0954
     31 C21        -5.1018   -4.9903   -1.5873 C.ar      1 <0>        -0.0743
     32 C22        -5.6112   -4.9727   -2.8723 C.ar      1 <0>        -0.1177
     33 C23        -5.2292   -5.9422   -3.7806 C.ar      1 <0>        -0.1283
     34 C24        -4.3375   -6.9291   -3.4040 C.ar      1 <0>        -0.1228
     35 C25        -3.8274   -6.9462   -2.1193 C.ar      1 <0>        -0.1188
     36 C26        -4.2061   -5.9742   -1.2123 C.ar      1 <0>        -0.0816
     37 H2          2.4428    0.0318    1.7188 H         1 <0>         0.0542
     38 H3          1.0651    0.0773    0.5928 H         1 <0>         0.0740
     39 H4          0.7917    0.2652    2.3416 H         1 <0>         0.0776
     40 H5          0.4465   -8.2472    3.1570 H         1 <0>         0.0487
     41 H6         -0.8506   -8.4742    1.9595 H         1 <0>         0.0842
     42 H7          0.8492   -8.4307    1.4329 H         1 <0>         0.0524
     43 H8          3.7980   -5.2308    1.6409 H         1 <0>         0.0815
     44 H9          4.4339   -3.7403    2.3773 H         1 <0>         0.0491
     45 H10         3.5765   -4.9336    3.3818 H         1 <0>         0.0795
     46 H11        -0.0161   -2.9198    4.2775 H         1 <0>         0.1299
     47 H12        -1.5973   -3.3885    6.1057 H         1 <0>         0.1354
     48 H13        -3.5760   -4.7948    5.6920 H         1 <0>         0.1399
     49 H14        -2.3967   -5.2558    1.6194 H         1 <0>         0.1443
     50 H15        -3.5684   -0.4573    1.5991 H         1 <0>         0.0589
     51 H16        -3.1912   -0.6085   -0.1339 H         1 <0>         0.0588
     52 H17        -4.8738   -2.5999    1.4510 H         1 <0>         0.0775
     53 H18        -5.5400   -1.3073    0.4245 H         1 <0>         0.0517
     54 H19        -3.8118   -1.3500   -1.9015 H         1 <0>         0.0679
     55 H20        -4.6081   -2.7237   -2.7059 H         1 <0>         0.0720
     56 H21        -5.5843   -1.5048   -1.8519 H         1 <0>         0.0222
     57 H22        -5.5641   -4.3686    0.4011 H         1 <0>         0.0830
     58 H23        -6.5000   -3.5463   -0.8703 H         1 <0>         0.0388
     59 H24        -6.3078   -4.2017   -3.1665 H         1 <0>         0.1132
     60 H25        -5.6277   -5.9289   -4.7843 H         1 <0>         0.1156
     61 H26        -4.0396   -7.6870   -4.1134 H         1 <0>         0.1163
     62 H27        -3.1310   -7.7175   -1.8250 H         1 <0>         0.1210
     63 H28        -3.8048   -5.9854   -0.2097 H         1 <0>         0.1299
@<TRIPOS>BOND
     1    1    2 1
     2    1   37 1
     3    1   38 1
     4    1   39 1
     5    2   12 1
     6    2    3 2
     7    3    4 1
     8    3   23 1
     9    4    5 1
    10    4    6 1
    11    4   14 1
    12    6    7 2
    13    6   11 1
    14    7    8 1
    15    7    9 1
    16    9   10 1
    17   10   40 1
    18   10   41 1
    19   10   42 1
    20   11   12 2
    21   11   13 1
    22   13   43 1
    23   13   44 1
    24   13   45 1
    25   14   19 ar
    26   14   15 ar
    27   15   16 ar
    28   15   46 1
    29   16   17 ar
    30   16   47 1
    31   17   18 ar
    32   17   48 1
    33   18   19 ar
    34   18   20 1
    35   19   49 1
    36   20   21 2
    37   20   22 1
    38   23   24 2
    39   23   25 1
    40   25   26 1
    41   26   27 1
    42   26   50 1
    43   26   51 1
    44   27   28 1
    45   27   52 1
    46   27   53 1
    47   28   29 1
    48   28   30 1
    49   29   54 1
    50   29   55 1
    51   29   56 1
    52   30   31 1
    53   30   57 1
    54   30   58 1
    55   31   36 ar
    56   31   32 ar
    57   32   33 ar
    58   32   59 1
    59   33   34 ar
    60   33   60 1
    61   34   35 ar
    62   34   61 1
    63   35   36 ar
    64   35   62 1
    65   36   63 1
@<TRIPOS>MOLECULE
ZINC19796087
   63    65     0     0     0
SMALL
USER_CHARGES

@<TRIPOS>ATOM
      1 C1          1.9250    2.2404   -0.3129 C.3       1 <0>        -0.0962
      2 C2          1.5956    0.7700   -0.3363 C.2       1 <0>         0.2823
      3 C3          0.2875    0.3908   -0.4338 C.2       1 <0>        -0.3776
      4 C4         -0.0127   -1.0968   -0.4556 C.3       1 <0>         0.1287
      5 H1         -0.6768   -1.3224    0.3787 H         1 <0>         0.0479
      6 C5          1.1921   -2.0166   -0.3653 C.2       1 <0>        -0.3943
      7 C6          1.0526   -3.3872   -0.3756 C.2       1 <0>         0.4729
      8 O1         -0.1764   -3.9396   -0.3555 O.3       1 <0>        -0.6452
      9 O2          2.1452   -4.1754   -0.4057 O.3       1 <0>        -0.3140
     10 C7          1.9270   -5.5825   -0.5258 C.3       1 <0>         0.0738
     11 C8          3.2661   -6.3163   -0.4304 C.3       1 <0>         0.0567
     12 N1          4.0962   -5.9737   -1.5929 N.3       1 <0>        -0.5254
     13 C9          3.6078   -6.6452   -2.8047 C.3       1 <0>         0.0178
     14 C10         5.5078   -6.2958   -1.3451 C.3       1 <0>         0.0937
     15 C11         6.3568   -5.7125   -2.4451 C.ar      1 <0>        -0.0752
     16 C12         6.6211   -6.4541   -3.5814 C.ar      1 <0>        -0.1161
     17 C13         7.3999   -5.9190   -4.5904 C.ar      1 <0>        -0.1247
     18 C14         7.9139   -4.6420   -4.4634 C.ar      1 <0>        -0.1225
     19 C15         7.6488   -3.9001   -3.3275 C.ar      1 <0>        -0.1199
     20 C16         6.8665   -4.4336   -2.3204 C.ar      1 <0>        -0.0931
     21 C17         2.4472   -1.4127   -0.2718 C.2       1 <0>         0.2969
     22 N2          2.5859   -0.1065   -0.2671 N.2       1 <0>        -0.6443
     23 C18         3.6750   -2.2817   -0.1798 C.3       1 <0>        -0.1018
     24 C19        -0.7450   -1.4107   -1.7348 C.ar      1 <0>        -0.0273
     25 C20        -0.1448   -1.1589   -2.9546 C.ar      1 <0>        -0.0575
     26 C21        -0.8164   -1.4467   -4.1278 C.ar      1 <0>        -0.1295
     27 C22        -2.0883   -1.9869   -4.0815 C.ar      1 <0>        -0.0800
     28 C23        -2.6879   -2.2394   -2.8621 C.ar      1 <0>        -0.0565
     29 C24        -2.0144   -1.9555   -1.6886 C.ar      1 <0>        -0.0107
     30 N3         -4.0498   -2.8172   -2.8127 N.pl3     1 <0>         0.0440
     31 O3         -4.6376   -3.0683   -3.8389 O.2       1 <0>        -0.1849
     32 O4         -4.5743   -3.0382   -1.7460 O.3       1 <0>        -0.1675
     33 C25        -0.7435    1.3435   -0.5108 C.2       1 <0>         0.5215
     34 O5         -0.4773    2.5318   -0.4910 O.2       1 <0>        -0.5581
     35 O6         -2.0292    0.9409   -0.6066 O.3       1 <0>        -0.3599
     36 C26        -3.0252    1.9629   -0.6810 C.3       1 <0>         0.0413
     37 H2          3.0047    2.3696   -0.2371 H         1 <0>         0.0545
     38 H3          1.5666    2.7077   -1.2301 H         1 <0>         0.0756
     39 H4          1.4421    2.7072    0.5455 H         1 <0>         0.0759
     40 H5          1.2707   -5.9182    0.2771 H         1 <0>         0.0656
     41 H6          1.4627   -5.7974   -1.4883 H         1 <0>         0.0572
     42 H7          3.7797   -6.0177    0.4835 H         1 <0>         0.0841
     43 H8          3.0906   -7.3920   -0.4136 H         1 <0>         0.0519
     44 H9          2.5954   -6.3066   -3.0248 H         1 <0>         0.0693
     45 H10         4.2619   -6.4037   -3.6426 H         1 <0>         0.0727
     46 H11         3.6038   -7.7236   -2.6460 H         1 <0>         0.0228
     47 H12         5.8140   -5.8745   -0.3876 H         1 <0>         0.0848
     48 H13         5.6351   -7.3782   -1.3232 H         1 <0>         0.0392
     49 H14         6.2196   -7.4517   -3.6806 H         1 <0>         0.1158
     50 H15         7.6070   -6.4987   -5.4778 H         1 <0>         0.1178
     51 H16         8.5228   -4.2242   -5.2514 H         1 <0>         0.1180
     52 H17         8.0506   -2.9025   -3.2282 H         1 <0>         0.1216
     53 H18         6.6563   -3.8525   -1.4347 H         1 <0>         0.1258
     54 H19         3.7730   -2.8699   -1.0922 H         1 <0>         0.0884
     55 H20         4.5567   -1.6529   -0.0563 H         1 <0>         0.0588
     56 H21         3.5832   -2.9508    0.6758 H         1 <0>         0.0743
     57 H22         0.8487   -0.7369   -2.9907 H         1 <0>         0.1285
     58 H23        -0.3479   -1.2494   -5.0806 H         1 <0>         0.1344
     59 H24        -2.6134   -2.2112   -4.9983 H         1 <0>         0.1396
     60 H25        -2.4815   -2.1563   -0.7357 H         1 <0>         0.1428
     61 H26        -4.0114    1.5045   -0.7545 H         1 <0>         0.0861
     62 H27        -2.9782    2.5820    0.2150 H         1 <0>         0.0509
     63 H28        -2.8458    2.5819   -1.5601 H         1 <0>         0.0485
@<TRIPOS>BOND
     1    1    2 1
     2    1   37 1
     3    1   38 1
     4    1   39 1
     5    2   22 1
     6    2    3 2
     7    3    4 1
     8    3   33 1
     9    4    5 1
    10    4    6 1
    11    4   24 1
    12    6    7 2
    13    6   21 1
    14    7    8 1
    15    7    9 1
    16    9   10 1
    17   10   11 1
    18   10   40 1
    19   10   41 1
    20   11   12 1
    21   11   42 1
    22   11   43 1
    23   12   13 1
    24   12   14 1
    25   13   44 1
    26   13   45 1
    27   13   46 1
    28   14   15 1
    29   14   47 1
    30   14   48 1
    31   15   20 ar
    32   15   16 ar
    33   16   17 ar
    34   16   49 1
    35   17   18 ar
    36   17   50 1
    37   18   19 ar
    38   18   51 1
    39   19   20 ar
    40   19   52 1
    41   20   53 1
    42   21   22 2
    43   21   23 1
    44   23   54 1
    45   23   55 1
    46   23   56 1
    47   24   29 ar
    48   24   25 ar
    49   25   26 ar
    50   25   57 1
    51   26   27 ar
    52   26   58 1
    53   27   28 ar
    54   27   59 1
    55   28   29 ar
    56   28   30 1
    57   29   60 1
    58   30   31 2
    59   30   32 1
    60   33   34 2
    61   33   35 1
    62   35   36 1
    63   36   61 1
    64   36   62 1
    65   36   63 1
@<TRIPOS>MOLECULE
ZINC03860825
   53    57     0     0     0
SMALL
USER_CHARGES

@<TRIPOS>ATOM
      1 C1         -0.0173    1.4248    0.0099 C.3       1 <0>         0.0327
      2 O1          0.0021   -0.0041    0.0020 O.3       1 <0>        -0.3479
      3 C2          0.5984   -0.5997   -1.0427 C.2       1 <0>         0.4737
      4 O2          1.0877    0.0699   -1.9214 O.2       1 <0>        -0.5039
      5 C3          0.6575   -2.1036   -1.1196 C.3       1 <0>        -0.0650
      6 H1          1.1947   -2.4917   -0.2542 H         1 <0>         0.1260
      7 C4         -0.7643   -2.6714   -1.1364 C.3       1 <0>         0.1104
      8 H2         -1.2823   -2.3789   -0.2230 H         1 <0>         0.0803
      9 C5         -0.7098   -4.1973   -1.2238 C.3       1 <0>        -0.1531
     10 C6          0.0283   -4.6160   -2.4980 C.3       1 <0>        -0.1090
     11 C7          1.4478   -4.0496   -2.4652 C.3       1 <0>        -0.1066
     12 H3          1.9678   -4.4265   -1.5844 H         1 <0>         0.0984
     13 C8          1.3811   -2.5214   -2.3995 C.3       1 <0>        -0.0762
     14 H4          0.8340   -2.1460   -3.2643 H         1 <0>         0.1112
     15 C9          2.8021   -1.9525   -2.4146 C.3       1 <0>        -0.1520
     16 C10         3.5142   -2.4494   -3.6743 C.3       1 <0>         0.1158
     17 H5          2.9655   -2.1183   -4.5560 H         1 <0>         0.1480
     18 C11         4.9207   -1.9091   -3.7260 C.2       1 <0>         0.0226
     19 C12         5.9775   -2.6629   -4.1115 C.2       1 <0>        -0.1599
     20 C13         7.1508   -1.8219   -4.0411 C.ar      1 <0>        -0.1001
     21 C14         8.5026   -2.0504   -4.3178 C.ar      1 <0>        -0.0652
     22 C15         9.3608   -0.9941   -4.1376 C.ar      1 <0>        -0.1357
     23 C16         8.9212    0.2451   -3.7015 C.ar      1 <0>        -0.0818
     24 C17         7.5903    0.4991   -3.4190 C.ar      1 <0>        -0.1277
     25 C18         6.6952   -0.5542   -3.5938 C.ar      1 <0>         0.1109
     26 N1          5.3444   -0.6471   -3.4127 N.pl3     1 <0>        -0.5612
     27 H6          4.7717    0.0739   -3.1078 H         1 <0>         0.4234
     28 C19         5.8580   -4.1083   -4.5249 C.3       1 <0>        -0.0677
     29 C20         4.3745   -4.4075   -4.7852 C.3       1 <0>        -0.0061
     30 N2          3.5745   -3.9171   -3.6582 N.4       1 <0>        -0.3774
     31 C21         2.2119   -4.4657   -3.7230 C.3       1 <0>         0.0006
     32 O3         -1.4686   -2.1563   -2.2680 O.3       1 <0>        -0.5638
     33 H7          1.0053    1.8021    0.0021 H         1 <0>         0.0628
     34 H8         -0.5445    1.7859   -0.8732 H         1 <0>         0.0656
     35 H9         -0.5275    1.7763    0.9067 H         1 <0>         0.1087
     36 H10        -0.1842   -4.5917   -0.3542 H         1 <0>         0.0829
     37 H11        -1.7242   -4.5957   -1.2448 H         1 <0>         0.0871
     38 H12         0.0713   -5.7038   -2.5532 H         1 <0>         0.0818
     39 H13        -0.4991   -4.2269   -3.3690 H         1 <0>         0.0847
     40 H14         2.7600   -0.8634   -2.4237 H         1 <0>         0.1318
     41 H15         3.3419   -2.2929   -1.5309 H         1 <0>         0.0903
     42 H16         8.8550   -3.0132   -4.6571 H         1 <0>         0.1348
     43 H17        10.4120   -1.1338   -4.3420 H         1 <0>         0.1279
     44 H18         9.6417    1.0401   -3.5774 H         1 <0>         0.1311
     45 H19         7.2605    1.4697   -3.0791 H         1 <0>         0.1352
     46 H20         6.4334   -4.2800   -5.4346 H         1 <0>         0.1209
     47 H21         6.2289   -4.7515   -3.7269 H         1 <0>         0.0998
     48 H22         4.0584   -3.9085   -5.7013 H         1 <0>         0.1319
     49 H23         4.2337   -5.4833   -4.8902 H         1 <0>         0.1399
     50 H24         2.2638   -5.5532   -3.7749 H         1 <0>         0.1399
     51 H25         1.6991   -4.0815   -4.6048 H         1 <0>         0.1347
     52 H26        -2.3787   -2.4743   -2.3430 H         1 <0>         0.3915
     53 H27         4.0031   -4.2176   -2.7956 H         1 <0>         0.4231
@<TRIPOS>BOND
     1    1    2 1
     2    1   33 1
     3    1   34 1
     4    1   35 1
     5    2    3 1
     6    3    4 2
     7    3    5 1
     8    5    6 1
     9    5   13 1
    10    5    7 1
    11    7    8 1
    12    7    9 1
    13    7   32 1
    14    9   10 1
    15    9   36 1
    16    9   37 1
    17   10   11 1
    18   10   38 1
    19   10   39 1
    20   11   12 1
    21   11   31 1
    22   11   13 1
    23   13   14 1
    24   13   15 1
    25   15   16 1
    26   15   40 1
    27   15   41 1
    28   16   17 1
    29   16   30 1
    30   16   18 1
    31   18   26 1
    32   18   19 2
    33   19   20 1
    34   19   28 1
    35   20   25 ar
    36   20   21 ar
    37   21   22 ar
    38   21   42 1
    39   22   23 ar
    40   22   43 1
    41   23   24 ar
    42   23   44 1
    43   24   25 ar
    44   24   45 1
    45   25   26 1
    46   26   27 1
    47   28   29 1
    48   28   46 1
    49   28   47 1
    50   29   30 1
    51   29   48 1
    52   29   49 1
    53   30   31 1
    54   30   53 1
    55   31   50 1
    56   31   51 1
    57   32   52 1
@<TRIPOS>MOLECULE
ZINC36387185
   39    42     0     0     0
SMALL
USER_CHARGES

@<TRIPOS>ATOM
      1 C1         -0.0187    1.5258    0.0104 C.3       1 <0>        -0.1461
      2 C2          0.0021   -0.0041    0.0020 C.3       1 <0>        -0.1102
      3 C3          0.7182   -0.4975   -1.2568 C.3       1 <0>         0.0538
      4 H1          0.2641   -0.0635   -2.1476 H         1 <0>         0.1109
      5 C4          0.6832   -2.0350   -1.3288 C.3       1 <0>         0.1003
      6 N1          2.1056   -2.4144   -1.3000 N.am      1 <0>        -0.5740
      7 C5          2.8677   -1.2616   -1.2221 C.2       1 <0>         0.4193
      8 N2          2.1459   -0.1690   -1.1968 N.2       1 <0>        -0.5184
      9 C6          4.3293   -1.4157   -1.1825 C.2       1 <0>        -0.0276
     10 C7          4.8739   -2.6884   -1.2241 C.2       1 <0>         0.3040
     11 N3          6.2014   -2.5588   -1.1756 N.2       1 <0>        -0.4463
     12 C8          6.5228   -1.2824   -1.1061 C.2       1 <0>         0.3049
     13 N4          5.3840   -0.5329   -1.1078 N.pl3     1 <0>        -0.5141
     14 H2          5.3274    0.4345   -1.0651 H         1 <0>         0.4369
     15 C9          7.8992   -0.7485   -1.0373 C.ar      1 <0>         0.0080
     16 C10         8.1138    0.6287   -0.9602 C.ar      1 <0>        -0.0813
     17 C11         9.4017    1.1215   -0.8962 C.ar      1 <0>        -0.0198
     18 C12        10.4805    0.2530   -0.9088 C.ar      1 <0>        -0.0739
     19 C13        10.2755   -1.1135   -0.9850 C.ar      1 <0>        -0.0214
     20 C14         8.9906   -1.6200   -1.0434 C.ar      1 <0>         0.0062
     21 Cl1         8.7343   -3.3348   -1.1311 Cl        1 <0>         0.0098
     22 Cl2        11.6343   -2.1938   -1.0002 Cl        1 <0>        -0.0204
     23 Cl3         9.6698    2.8339   -0.8003 Cl        1 <0>        -0.0337
     24 N5          4.0239   -3.7848   -1.3026 N.am      1 <0>        -0.5139
     25 C15         2.6915   -3.6254   -1.3367 C.2       1 <0>         0.7254
     26 O1          1.9864   -4.6137   -1.4047 O.2       1 <0>        -0.5425
     27 C16         4.5904   -5.1351   -1.3476 C.3       1 <0>         0.0919
     28 H3          1.0039    1.9031    0.0027 H         1 <0>         0.0629
     29 H4         -0.5459    1.8868   -0.8726 H         1 <0>         0.0548
     30 H5         -0.5289    1.8773    0.9072 H         1 <0>         0.0550
     31 H6          0.5293   -0.3651    0.8851 H         1 <0>         0.0643
     32 H7         -1.0205   -0.3814    0.0098 H         1 <0>         0.0760
     33 H8          0.1586   -2.4475   -0.4670 H         1 <0>         0.0979
     34 H9          0.2168   -2.3650   -2.2571 H         1 <0>         0.0972
     35 H10         7.2738    1.3075   -0.9510 H         1 <0>         0.1485
     36 H11        11.4860    0.6439   -0.8592 H         1 <0>         0.1608
     37 H12         4.6981   -5.5179   -0.3328 H         1 <0>         0.0717
     38 H13         3.9271   -5.7887   -1.9141 H         1 <0>         0.0923
     39 H14         5.5676   -5.1032   -1.8295 H         1 <0>         0.0907
@<TRIPOS>BOND
     1    1    2 1
     2    1   28 1
     3    1   29 1
     4    1   30 1
     5    2    3 1
     6    2   31 1
     7    2   32 1
     8    3    4 1
     9    3    8 1
    10    3    5 1
    11    5    6 1
    12    5   33 1
    13    5   34 1
    14    6   25 am
    15    6    7 1
    16    7    8 2
    17    7    9 1
    18    9   13 1
    19    9   10 2
    20   10   11 1
    21   10   24 1
    22   11   12 2
    23   12   13 1
    24   12   15 1
    25   13   14 1
    26   15   20 ar
    27   15   16 ar
    28   16   17 ar
    29   16   35 1
    30   17   18 ar
    31   17   23 1
    32   18   19 ar
    33   18   36 1
    34   19   20 ar
    35   19   22 1
    36   20   21 1
    37   24   25 am
    38   24   27 1
    39   25   26 2
    40   27   37 1
    41   27   38 1
    42   27   39 1
@<TRIPOS>MOLECULE
ZINC06919103
   41    43     0     0     0
SMALL
USER_CHARGES
4-isopropoxy-N-[4-(2-pyridyl)thiazol-2-yl]benzamide
@<TRIPOS>ATOM
      1 C1          9.2180   12.0630   -1.3080 C.3       1 <0>        -0.1840
      2 C2          8.6609   11.8036    0.0932 C.3       1 <0>         0.0743
      3 C3          8.7330   13.0908    0.9170 C.3       1 <0>        -0.1518
      4 O1          7.3005   11.3774   -0.0065 O.3       1 <0>        -0.3089
      5 C4          7.0835   10.0560   -0.2269 C.ar      1 <0>         0.1726
      6 C5          8.1589    9.2057   -0.4561 C.ar      1 <0>        -0.2214
      7 C6          7.9430    7.8644   -0.6801 C.ar      1 <0>        -0.0064
      8 C7          6.6403    7.3582   -0.6767 C.ar      1 <0>        -0.1796
      9 C8          5.5614    8.2175   -0.4516 C.ar      1 <0>        -0.0393
     10 C9          5.7863    9.5565   -0.2222 C.ar      1 <0>        -0.1600
     11 C10         6.4043    5.9215   -0.9163 C.2       1 <0>         0.5705
     12 O2          7.3438    5.1762   -1.1170 O.2       1 <0>        -0.5009
     13 N1          5.1473    5.4353   -0.9126 N.am      1 <0>        -0.6208
     14 C11         4.9252    4.0834   -1.1380 C.2       1 <0>         0.3242
     15 N2          3.7854    3.4194   -1.1746 N.2       1 <0>        -0.5315
     16 C12         3.7560    2.1147   -1.4054 C.2       1 <0>         0.1050
     17 C13         4.9308    1.4427   -1.6046 C.2       1 <0>        -0.1928
     18 S1          6.1073    2.7809   -1.4557 S.3       1 <0>         0.1159
     19 C14         2.4642    1.3902   -1.4413 C.ar      1 <0>         0.1912
     20 C15         1.2742    2.0867   -1.2318 C.ar      1 <0>        -0.1383
     21 C16         0.0762    1.3965   -1.2692 C.ar      1 <0>        -0.0780
     22 C17         0.1054    0.0301   -1.5148 C.ar      1 <0>        -0.1718
     23 C18         1.3204   -0.5974   -1.7133 C.ar      1 <0>         0.1032
     24 N3          2.4484    0.0833   -1.6730 N.ar      1 <0>        -0.4772
     25 H1          9.1662   11.1375   -1.9003 H         1 <0>         0.0649
     26 H2         10.2651   12.3911   -1.2313 H         1 <0>         0.0773
     27 H3          8.6232   12.8469   -1.7997 H         1 <0>         0.0718
     28 H4          9.1973   10.9817    0.5899 H         1 <0>         0.0777
     29 H5          8.3325   12.9043    1.9244 H         1 <0>         0.0673
     30 H6          8.1382   13.8746    0.4252 H         1 <0>         0.0706
     31 H7          9.7801   13.4189    0.9937 H         1 <0>         0.0816
     32 H8          9.1653    9.5977   -0.4589 H         1 <0>         0.1416
     33 H9          8.7791    7.2043   -0.8578 H         1 <0>         0.1429
     34 H10         4.5529    7.8311   -0.4529 H         1 <0>         0.1345
     35 H11         4.9535   10.2203   -0.0433 H         1 <0>         0.1419
     36 H12         4.2973    6.1095   -0.7310 H         1 <0>         0.4512
     37 H13         5.1006    0.3941   -1.7994 H         1 <0>         0.2052
     38 H14         1.2880    3.1500   -1.0433 H         1 <0>         0.1432
     39 H15        -0.8615    1.9097   -1.1154 H         1 <0>         0.1369
     40 H16        -0.8130   -0.5370   -1.5499 H         1 <0>         0.1369
     41 H17         1.3461   -1.6600   -1.9045 H         1 <0>         0.1603
@<TRIPOS>BOND
     1    1    2 1
     2    1   25 1
     3    1   26 1
     4    1   27 1
     5    2    3 1
     6    2    4 1
     7    2   28 1
     8    3   29 1
     9    3   30 1
    10    3   31 1
    11    4    5 1
    12    5   10 ar
    13    5    6 ar
    14    6    7 ar
    15    6   32 1
    16    7    8 ar
    17    7   33 1
    18    8    9 ar
    19    8   11 1
    20    9   10 ar
    21    9   34 1
    22   10   35 1
    23   11   12 2
    24   11   13 am
    25   13   14 1
    26   13   36 1
    27   14   18 1
    28   14   15 2
    29   15   16 1
    30   16   17 2
    31   16   19 1
    32   17   18 1
    33   17   37 1
    34   19   24 ar
    35   19   20 ar
    36   20   21 ar
    37   20   38 1
    38   21   22 ar
    39   21   39 1
    40   22   23 ar
    41   22   40 1
    42   23   24 ar
    43   23   41 1
@<TRIPOS>MOLECULE
ZINC06347223
   33    35     0     0     0
SMALL
USER_CHARGES

@<TRIPOS>ATOM
      1 C1         -0.0167    1.3789    0.0096 C.ar      1 <0>        -0.0775
      2 C2          1.1942    2.0586    0.0017 C.ar      1 <0>        -0.1695
      3 C3          2.3748    1.3407   -0.0134 C.ar      1 <0>         0.1041
      4 N1          2.3655    0.0227   -0.0204 N.ar      1 <0>        -0.4765
      5 C4          1.2301   -0.6649   -0.0133 C.ar      1 <0>         0.1884
      6 C5          0.0021   -0.0041    0.0020 C.ar      1 <0>        -0.1378
      7 C6          1.2677   -2.1460   -0.0216 C.2       1 <0>         0.1042
      8 C7          2.4656   -2.8066   -0.0314 C.2       1 <0>        -0.1828
      9 S1          1.9071   -4.5052   -0.0379 S.3       1 <0>         0.1306
     10 C8          0.1527   -4.1636   -0.0269 C.2       1 <0>         0.3052
     11 N2          0.1413   -2.8441   -0.0141 N.2       1 <0>        -0.5208
     12 N3         -0.9149   -5.0511   -0.0267 N.am      1 <0>        -0.6015
     13 C9         -0.6870   -6.3795   -0.0351 C.2       1 <0>         0.5620
     14 O1          0.4534   -6.8004   -0.0430 O.2       1 <0>        -0.4783
     15 C10        -1.8235   -7.3243   -0.0349 C.ar      1 <0>        -0.0850
     16 C11        -3.1343   -6.8442   -0.0317 C.ar      1 <0>        -0.0826
     17 C12        -4.1906   -7.7316   -0.0314 C.ar      1 <0>        -0.0582
     18 C13        -3.9530   -9.0947   -0.0338 C.ar      1 <0>        -0.0195
     19 C14        -2.6562   -9.5772   -0.0366 C.ar      1 <0>        -0.0579
     20 C15        -1.5909   -8.7008   -0.0436 C.ar      1 <0>        -0.0496
     21 N4         -5.0912  -10.0409   -0.0331 N.pl3     1 <0>         0.0256
     22 O2         -6.2254   -9.6222   -0.0303 O.2       1 <0>        -0.1456
     23 O3         -4.8867  -11.2325   -0.0352 O.3       1 <0>        -0.1444
     24 H1         -0.9523    1.9182    0.0259 H         1 <0>         0.1378
     25 H2          1.2130    3.1384    0.0070 H         1 <0>         0.1379
     26 H3          3.3180    1.8667   -0.0200 H         1 <0>         0.1614
     27 H4         -0.9212   -0.5643    0.0082 H         1 <0>         0.1430
     28 H5          3.4707   -2.4115   -0.0344 H         1 <0>         0.2087
     29 H6         -1.8249   -4.7152   -0.0205 H         1 <0>         0.4271
     30 H7         -3.3211   -5.7805   -0.0291 H         1 <0>         0.1529
     31 H8         -5.2052   -7.3615   -0.0289 H         1 <0>         0.1656
     32 H9         -2.4777  -10.6423   -0.0381 H         1 <0>         0.1669
     33 H10        -0.5792   -9.0787   -0.0506 H         1 <0>         0.1664
@<TRIPOS>BOND
     1    1    6 ar
     2    1    2 ar
     3    1   24 1
     4    2    3 ar
     5    2   25 1
     6    3    4 ar
     7    3   26 1
     8    4    5 ar
     9    5    6 ar
    10    5    7 1
    11    6   27 1
    12    7   11 1
    13    7    8 2
    14    8    9 1
    15    8   28 1
    16    9   10 1
    17   10   11 2
    18   10   12 1
    19   12   13 am
    20   12   29 1
    21   13   14 2
    22   13   15 1
    23   15   20 ar
    24   15   16 ar
    25   16   17 ar
    26   16   30 1
    27   17   18 ar
    28   17   31 1
    29   18   19 ar
    30   18   21 1
    31   19   20 ar
    32   19   32 1
    33   20   33 1
    34   21   22 2
    35   21   23 1
@<TRIPOS>MOLECULE
ZINC27092697
   39    42     0     0     0
SMALL
USER_CHARGES

@<TRIPOS>ATOM
      1 C1         -0.0187    1.5258    0.0104 C.3       1 <0>        -0.1459
      2 C2          0.0021   -0.0041    0.0020 C.3       1 <0>        -0.1101
      3 C3          0.7182   -0.4975   -1.2568 C.3       1 <0>         0.0540
      4 H1          0.2641   -0.0635   -2.1476 H         1 <0>         0.1098
      5 C4          0.6832   -2.0350   -1.3288 C.3       1 <0>         0.1003
      6 N1          2.1056   -2.4144   -1.3000 N.am      1 <0>        -0.5744
      7 C5          2.8677   -1.2615   -1.2221 C.2       1 <0>         0.4219
      8 N2          2.1459   -0.1690   -1.1968 N.2       1 <0>        -0.5227
      9 C6          4.3294   -1.4157   -1.1821 C.2       1 <0>        -0.0419
     10 C7          4.8739   -2.6883   -1.2235 C.2       1 <0>         0.3051
     11 N3          6.2014   -2.5587   -1.1748 N.2       1 <0>        -0.4750
     12 C8          6.5227   -1.2825   -1.1054 C.2       1 <0>         0.3232
     13 N4          5.3839   -0.5331   -1.1073 N.pl3     1 <0>        -0.5201
     14 H2          5.3273    0.4343   -1.0641 H         1 <0>         0.4358
     15 C9          7.8993   -0.7483   -1.0359 C.ar      1 <0>        -0.0319
     16 C10         8.1139    0.6287   -0.9589 C.ar      1 <0>        -0.1008
     17 C11         9.4011    1.1206   -0.8939 C.ar      1 <0>        -0.1163
     18 C12        10.4782    0.2522   -0.9052 C.ar      1 <0>        -0.0992
     19 C13        10.2725   -1.1139   -0.9814 C.ar      1 <0>        -0.1183
     20 C14         8.9902   -1.6192   -1.0411 C.ar      1 <0>        -0.0670
     21 N5          4.0240   -3.7848   -1.3020 N.am      1 <0>        -0.5148
     22 C15         2.6916   -3.6253   -1.3363 C.2       1 <0>         0.7251
     23 O1          1.9865   -4.6137   -1.4044 O.2       1 <0>        -0.5447
     24 C16         4.5905   -5.1351   -1.3467 C.3       1 <0>         0.0920
     25 H3          1.0039    1.9031    0.0027 H         1 <0>         0.0628
     26 H4         -0.5459    1.8868   -0.8726 H         1 <0>         0.0547
     27 H5         -0.5289    1.8773    0.9072 H         1 <0>         0.0547
     28 H6          0.5293   -0.3651    0.8851 H         1 <0>         0.0640
     29 H7         -1.0205   -0.3814    0.0098 H         1 <0>         0.0755
     30 H8          0.1586   -2.4475   -0.4670 H         1 <0>         0.0974
     31 H9          0.2168   -2.3650   -2.2571 H         1 <0>         0.0966
     32 H10         7.2740    1.3077   -0.9507 H         1 <0>         0.1219
     33 H11         9.5685    2.1859   -0.8343 H         1 <0>         0.1314
     34 H12        11.4840    0.6424   -0.8548 H         1 <0>         0.1293
     35 H13        11.1175   -1.7864   -0.9898 H         1 <0>         0.1330
     36 H14         8.8308   -2.6860   -1.0960 H         1 <0>         0.1407
     37 H15         4.6979   -5.5178   -0.3318 H         1 <0>         0.0711
     38 H16         3.9272   -5.7887   -1.9132 H         1 <0>         0.0918
     39 H17         5.5677   -5.1033   -1.8284 H         1 <0>         0.0912
@<TRIPOS>BOND
     1    1    2 1
     2    1   25 1
     3    1   26 1
     4    1   27 1
     5    2    3 1
     6    2   28 1
     7    2   29 1
     8    3    4 1
     9    3    8 1
    10    3    5 1
    11    5    6 1
    12    5   30 1
    13    5   31 1
    14    6   22 am
    15    6    7 1
    16    7    8 2
    17    7    9 1
    18    9   13 1
    19    9   10 2
    20   10   11 1
    21   10   21 1
    22   11   12 2
    23   12   13 1
    24   12   15 1
    25   13   14 1
    26   15   20 ar
    27   15   16 ar
    28   16   17 ar
    29   16   32 1
    30   17   18 ar
    31   17   33 1
    32   18   19 ar
    33   18   34 1
    34   19   20 ar
    35   19   35 1
    36   20   36 1
    37   21   22 am
    38   21   24 1
    39   22   23 2
    40   24   37 1
    41   24   38 1
    42   24   39 1
@<TRIPOS>MOLECULE
ZINC27092697
   39    42     0     0     0
SMALL
USER_CHARGES

@<TRIPOS>ATOM
      1 C1         -0.0187    1.5258    0.0104 C.3       1 <0>        -0.1470
      2 C2          0.0021   -0.0041    0.0020 C.3       1 <0>        -0.1088
      3 C3          0.7421   -0.5109    1.2415 C.3       1 <0>         0.0484
      4 H1          1.7338   -0.0627    1.3026 H         1 <0>         0.1111
      5 C4          0.8455   -2.0470    1.2169 C.3       1 <0>         0.0995
      6 N1          0.1151   -2.4602    2.4271 N.am      1 <0>        -0.5777
      7 C5         -0.3496   -1.3275    3.0685 C.2       1 <0>         0.4223
      8 N2         -0.0286   -0.2191    2.4545 N.2       1 <0>        -0.4916
      9 C6         -1.1171   -1.5183    4.3185 C.2       1 <0>         0.0068
     10 C7         -1.3277   -2.8089    4.7761 C.2       1 <0>         0.2660
     11 N3         -2.0499   -2.6997    5.9257 N.pl3     1 <0>        -0.5511
     12 H2         -2.3559   -3.4313    6.4842 H         1 <0>         0.4289
     13 C8         -2.2646   -1.3626    6.1468 C.2       1 <0>         0.2675
     14 N4         -1.7036   -0.6722    5.1822 N.2       1 <0>        -0.3971
     15 C9         -3.0091   -0.7911    7.2894 C.ar      1 <0>        -0.0172
     16 C10        -3.5578   -1.6315    8.2592 C.ar      1 <0>        -0.1094
     17 C11        -4.2513   -1.0919    9.3228 C.ar      1 <0>        -0.1154
     18 C12        -4.4037    0.2791    9.4290 C.ar      1 <0>        -0.1058
     19 C13        -3.8622    1.1178    8.4711 C.ar      1 <0>        -0.1149
     20 C14        -3.1611    0.5913    7.4058 C.ar      1 <0>        -0.0729
     21 N5         -0.8222   -3.8748    4.0628 N.am      1 <0>        -0.5215
     22 C15        -0.1279   -3.6848    2.9296 C.2       1 <0>         0.7313
     23 O1          0.2980   -4.6561    2.3348 O.2       1 <0>        -0.5417
     24 C16        -1.0464   -5.2382    4.5499 C.3       1 <0>         0.0781
     25 H3          1.0039    1.9031    0.0027 H         1 <0>         0.0543
     26 H4         -0.5459    1.8868   -0.8726 H         1 <0>         0.0540
     27 H5         -0.5289    1.8773    0.9072 H         1 <0>         0.0664
     28 H6         -1.0205   -0.3814    0.0098 H         1 <0>         0.0641
     29 H7          0.5123   -0.3556   -0.8948 H         1 <0>         0.0742
     30 H8          0.3675   -2.4496    0.3239 H         1 <0>         0.0969
     31 H9          1.8875   -2.3624    1.2711 H         1 <0>         0.0961
     32 H10        -3.4400   -2.7019    8.1770 H         1 <0>         0.1179
     33 H11        -4.6764   -1.7412   10.0739 H         1 <0>         0.1292
     34 H12        -4.9481    0.6965   10.2632 H         1 <0>         0.1279
     35 H13        -3.9848    2.1871    8.5598 H         1 <0>         0.1322
     36 H14        -2.7348    1.2472    6.6613 H         1 <0>         0.1410
     37 H15        -1.9735   -5.6267    4.1283 H         1 <0>         0.0770
     38 H16        -0.2147   -5.8739    4.2461 H         1 <0>         0.1030
     39 H17        -1.1179   -5.2284    5.6375 H         1 <0>         0.0780
@<TRIPOS>BOND
     1    1    2 1
     2    1   25 1
     3    1   26 1
     4    1   27 1
     5    2    3 1
     6    2   28 1
     7    2   29 1
     8    3    4 1
     9    3    8 1
    10    3    5 1
    11    5    6 1
    12    5   30 1
    13    5   31 1
    14    6   22 am
    15    6    7 1
    16    7    8 2
    17    7    9 1
    18    9   14 1
    19    9   10 2
    20   10   11 1
    21   10   21 1
    22   11   12 1
    23   11   13 1
    24   13   14 2
    25   13   15 1
    26   15   20 ar
    27   15   16 ar
    28   16   17 ar
    29   16   32 1
    30   17   18 ar
    31   17   33 1
    32   18   19 ar
    33   18   34 1
    34   19   20 ar
    35   19   35 1
    36   20   36 1
    37   21   22 am
    38   21   24 1
    39   22   23 2
    40   24   37 1
    41   24   38 1
    42   24   39 1
@<TRIPOS>MOLECULE
ZINC12476360
   34    36     0     0     0
SMALL
USER_CHARGES

@<TRIPOS>ATOM
      1 C1         -0.0167    1.3789    0.0096 C.ar      1 <0>        -0.0779
      2 C2          1.1942    2.0586    0.0017 C.ar      1 <0>        -0.1712
      3 C3          2.3748    1.3407   -0.0134 C.ar      1 <0>         0.1033
      4 N1          2.3655    0.0226   -0.0208 N.ar      1 <0>        -0.4769
      5 C4          1.2301   -0.6649   -0.0137 C.ar      1 <0>         0.1904
      6 C5          0.0021   -0.0041    0.0020 C.ar      1 <0>        -0.1382
      7 C6          1.2677   -2.1460   -0.0230 C.2       1 <0>         0.1042
      8 C7          2.4656   -2.8066   -0.0337 C.2       1 <0>        -0.1902
      9 S1          1.9069   -4.5052   -0.0411 S.3       1 <0>         0.1203
     10 C8          0.1525   -4.1634   -0.0293 C.2       1 <0>         0.3136
     11 N2          0.1413   -2.8441   -0.0155 N.2       1 <0>        -0.5285
     12 N3         -0.9160   -5.0515   -0.0288 N.am      1 <0>        -0.6087
     13 C9         -0.6882   -6.3799   -0.0377 C.2       1 <0>         0.5211
     14 O1          0.4495   -6.7999   -0.0462 O.2       1 <0>        -0.4927
     15 C10        -1.8471   -7.3431   -0.0372 C.3       1 <0>        -0.1040
     16 C11        -2.6697   -7.1795    1.2576 C.3       1 <0>        -0.1202
     17 C12        -3.1023   -8.6225    1.6176 C.3       1 <0>        -0.1238
     18 C13        -1.8539   -9.4579    1.2400 C.3       1 <0>        -0.1260
     19 C14        -1.3284   -8.7918   -0.0484 C.3       1 <0>        -0.1205
     20 H1         -0.9523    1.9182    0.0259 H         1 <0>         0.1372
     21 H2          1.2130    3.1384    0.0070 H         1 <0>         0.1373
     22 H3          3.3180    1.8667   -0.0196 H         1 <0>         0.1607
     23 H4         -0.9212   -0.5643    0.0082 H         1 <0>         0.1430
     24 H5          3.4707   -2.4115   -0.0372 H         1 <0>         0.2062
     25 H6         -1.8259   -4.7155   -0.0221 H         1 <0>         0.4274
     26 H7         -2.4796   -7.1663   -0.9071 H         1 <0>         0.1106
     27 H8         -2.0527   -6.7572    2.0507 H         1 <0>         0.0726
     28 H9         -3.5433   -6.5529    1.0779 H         1 <0>         0.0791
     29 H10        -3.3160   -8.7072    2.6831 H         1 <0>         0.0726
     30 H11        -3.9646   -8.9267    1.0242 H         1 <0>         0.0731
     31 H12        -1.1052   -9.4035    2.0303 H         1 <0>         0.0684
     32 H13        -2.1322  -10.4941    1.0476 H         1 <0>         0.0714
     33 H14        -1.7099   -9.3183   -0.9232 H         1 <0>         0.0747
     34 H15        -0.2385   -8.7981   -0.0542 H         1 <0>         0.0918
@<TRIPOS>BOND
     1    1    6 ar
     2    1    2 ar
     3    1   20 1
     4    2    3 ar
     5    2   21 1
     6    3    4 ar
     7    3   22 1
     8    4    5 ar
     9    5    6 ar
    10    5    7 1
    11    6   23 1
    12    7   11 1
    13    7    8 2
    14    8    9 1
    15    8   24 1
    16    9   10 1
    17   10   11 2
    18   10   12 1
    19   12   13 am
    20   12   25 1
    21   13   14 2
    22   13   15 1
    23   15   19 1
    24   15   16 1
    25   15   26 1
    26   16   17 1
    27   16   27 1
    28   16   28 1
    29   17   18 1
    30   17   29 1
    31   17   30 1
    32   18   19 1
    33   18   31 1
    34   18   32 1
    35   19   33 1
    36   19   34 1
@<TRIPOS>MOLECULE
ZINC06347226
   31    33     0     0     0
SMALL
USER_CHARGES
3-chloro-N-[4-(2-pyridyl)thiazol-2-yl]benzamide
@<TRIPOS>ATOM
      1 C1         -0.0168    1.3844    0.0097 C.ar      1 <0>        -0.0777
      2 C2          0.0021   -0.0041    0.0020 C.ar      1 <0>        -0.1707
      3 C3          1.2151   -0.6658   -0.0131 C.ar      1 <0>         0.1035
      4 N1          2.3509    0.0030   -0.0208 N.ar      1 <0>        -0.4767
      5 C4          2.3767    1.3300   -0.0139 C.ar      1 <0>         0.1900
      6 C5          1.1893    2.0614    0.0018 C.ar      1 <0>        -0.1380
      7 C6          3.6771    2.0400   -0.0235 C.2       1 <0>         0.1043
      8 C7          4.8492    1.3346   -0.0343 C.2       1 <0>        -0.1873
      9 S1          6.0390    2.6694   -0.0449 S.3       1 <0>         0.1270
     10 C8          4.8640    4.0161   -0.0247 C.2       1 <0>         0.3118
     11 N2          3.7165    3.3646   -0.0163 N.2       1 <0>        -0.5251
     12 N3          5.0969    5.3848   -0.0197 N.am      1 <0>        -0.6051
     13 C9          6.3605    5.8534   -0.0303 C.2       1 <0>         0.5671
     14 O1          7.2963    5.0777   -0.0442 O.2       1 <0>        -0.4875
     15 C10         6.6084    7.3105   -0.0249 C.ar      1 <0>        -0.1237
     16 C11         7.9162    7.7991   -0.0358 C.ar      1 <0>        -0.0460
     17 C12         8.1414    9.1600   -0.0312 C.ar      1 <0>        -0.1099
     18 C13         7.0746   10.0411   -0.0163 C.ar      1 <0>        -0.0748
     19 C14         5.7750    9.5638   -0.0059 C.ar      1 <0>        -0.0425
     20 C15         5.5361    8.2037   -0.0148 C.ar      1 <0>        -0.0758
     21 Cl1         4.4432   10.6773    0.0117 Cl        1 <0>        -0.0535
     22 H1         -0.9524    1.9237    0.0171 H         1 <0>         0.1373
     23 H2         -0.9228   -0.5617    0.0082 H         1 <0>         0.1373
     24 H3          1.2327   -1.7456   -0.0191 H         1 <0>         0.1609
     25 H4          1.2113    3.1412    0.0070 H         1 <0>         0.1432
     26 H5          5.0112    0.2668   -0.0371 H         1 <0>         0.2074
     27 H6          4.3501    6.0038   -0.0086 H         1 <0>         0.4263
     28 H7          8.7501    7.1129   -0.0482 H         1 <0>         0.1488
     29 H8          9.1527    9.5387   -0.0397 H         1 <0>         0.1468
     30 H9          7.2565   11.1056   -0.0131 H         1 <0>         0.1440
     31 H10         4.5220    7.8321   -0.0104 H         1 <0>         0.1385
@<TRIPOS>BOND
     1    1    6 ar
     2    1    2 ar
     3    1   22 1
     4    2    3 ar
     5    2   23 1
     6    3    4 ar
     7    3   24 1
     8    4    5 ar
     9    5    6 ar
    10    5    7 1
    11    6   25 1
    12    7   11 1
    13    7    8 2
    14    8    9 1
    15    8   26 1
    16    9   10 1
    17   10   11 2
    18   10   12 1
    19   12   13 am
    20   12   27 1
    21   13   14 2
    22   13   15 1
    23   15   20 ar
    24   15   16 ar
    25   16   17 ar
    26   16   28 1
    27   17   18 ar
    28   17   29 1
    29   18   19 ar
    30   18   30 1
    31   19   20 ar
    32   19   21 1
    33   20   31 1
@<TRIPOS>MOLECULE
ZINC06346108
   31    33     0     0     0
SMALL
USER_CHARGES
N-[4-(2-pyridyl)thiazol-2-yl]benzamide
@<TRIPOS>ATOM
      1 C1         -0.0167    1.3794    0.0096 C.ar      1 <0>        -0.0834
      2 C2          1.1683    2.0936    0.0021 C.ar      1 <0>        -0.1248
      3 C3          2.3774    1.4296   -0.0130 C.ar      1 <0>        -0.0829
      4 C4          2.4035    0.0338   -0.0213 C.ar      1 <0>        -0.1383
      5 C5          1.2042   -0.6806   -0.0136 C.ar      1 <0>        -0.0505
      6 C6          0.0021   -0.0041    0.0020 C.ar      1 <0>        -0.1254
      7 C7          3.6952   -0.6843   -0.0385 C.2       1 <0>         0.5647
      8 O1          3.7148   -1.8997   -0.0460 O.2       1 <0>        -0.4923
      9 N1          4.8513    0.0084   -0.0458 N.am      1 <0>        -0.6058
     10 C8          6.0646   -0.6662   -0.0620 C.2       1 <0>         0.3139
     11 N2          7.2908   -0.1785   -0.0713 N.2       1 <0>        -0.5273
     12 C9          8.3487   -0.9765   -0.0867 C.2       1 <0>         0.1042
     13 C10         8.1657   -2.3322   -0.0930 C.2       1 <0>        -0.1892
     14 S1          6.3802   -2.4255   -0.0679 S.3       1 <0>         0.1253
     15 C11         9.7161   -0.4060   -0.0964 C.ar      1 <0>         0.1905
     16 C12         9.8884    0.9779   -0.0898 C.ar      1 <0>        -0.1382
     17 C13        11.1711    1.4953   -0.0986 C.ar      1 <0>        -0.0778
     18 C14        12.2424    0.6120   -0.1137 C.ar      1 <0>        -0.1711
     19 C15        11.9997   -0.7484   -0.1194 C.ar      1 <0>         0.1035
     20 N3         10.7675   -1.2162   -0.1058 N.ar      1 <0>        -0.4768
     21 H1         -0.9606    1.9042    0.0169 H         1 <0>         0.1322
     22 H2          1.1467    3.1734    0.0078 H         1 <0>         0.1341
     23 H3          3.3017    1.9882   -0.0193 H         1 <0>         0.1278
     24 H4          1.2175   -1.7605   -0.0202 H         1 <0>         0.1409
     25 H5         -0.9265   -0.5555    0.0080 H         1 <0>         0.1355
     26 H6          4.8356    0.9783   -0.0398 H         1 <0>         0.4260
     27 H7          8.8973   -3.1265   -0.1046 H         1 <0>         0.2068
     28 H8          9.0324    1.6363   -0.0784 H         1 <0>         0.1431
     29 H9         11.3358    2.5626   -0.0942 H         1 <0>         0.1372
     30 H10        13.2560    0.9847   -0.1211 H         1 <0>         0.1372
     31 H11        12.8310   -1.4377   -0.1312 H         1 <0>         0.1608
@<TRIPOS>BOND
     1    1    6 ar
     2    1    2 ar
     3    1   21 1
     4    2    3 ar
     5    2   22 1
     6    3    4 ar
     7    3   23 1
     8    4    5 ar
     9    4    7 1
    10    5    6 ar
    11    5   24 1
    12    6   25 1
    13    7    8 2
    14    7    9 am
    15    9   10 1
    16    9   26 1
    17   10   14 1
    18   10   11 2
    19   11   12 1
    20   12   13 2
    21   12   15 1
    22   13   14 1
    23   13   27 1
    24   15   20 ar
    25   15   16 ar
    26   16   17 ar
    27   16   28 1
    28   17   18 ar
    29   17   29 1
    30   18   19 ar
    31   18   30 1
    32   19   20 ar
    33   19   31 1
@<TRIPOS>MOLECULE
ZINC21525625
   49    51     0     0     0
SMALL
USER_CHARGES
N-[4,6-bis(p-tolyl)pyrimidin-2-yl]butanamide
@<TRIPOS>ATOM
      1 C1          2.3933   -2.9945   -0.0369 C.3       1 <0>        -0.1550
      2 C2          1.0581   -2.2476   -0.0201 C.3       1 <0>        -0.1114
      3 C3          1.3172   -0.7397   -0.0145 C.3       1 <0>        -0.1363
      4 C4          0.0021   -0.0041    0.0020 C.2       1 <0>         0.5094
      5 O1         -1.0397   -0.6246    0.0086 O.2       1 <0>        -0.4691
      6 N1         -0.0162    1.3436    0.0094 N.am      1 <0>        -0.6574
      7 C5         -1.2289    2.0219    0.0189 C.ar      1 <0>         0.5536
      8 N2         -2.3545    1.3266    0.0150 N.ar      1 <0>        -0.5069
      9 C6         -3.5365    1.9402    0.0285 C.ar      1 <0>         0.2541
     10 C7         -3.5759    3.3348    0.0362 C.ar      1 <0>        -0.2514
     11 C8         -2.3669    4.0310    0.0347 C.ar      1 <0>         0.2568
     12 N3         -1.2254    3.3449    0.0260 N.ar      1 <0>        -0.5535
     13 C9         -2.3531    5.5141    0.0432 C.ar      1 <0>        -0.0684
     14 C10        -3.5520    6.2248    0.0465 C.ar      1 <0>        -0.0842
     15 C11        -3.5330    7.6047    0.0588 C.ar      1 <0>        -0.1263
     16 C12        -2.3271    8.2825    0.0581 C.ar      1 <0>        -0.0642
     17 C13        -1.1342    7.5823    0.0496 C.ar      1 <0>        -0.1287
     18 C14        -1.1410    6.2023    0.0422 C.ar      1 <0>        -0.0653
     19 C15        -2.3130    9.7894    0.0662 C.3       1 <0>        -0.1227
     20 C16        -4.7930    1.1523    0.0297 C.ar      1 <0>        -0.0716
     21 C17        -6.0261    1.8019    0.0445 C.ar      1 <0>        -0.0847
     22 C18        -7.1921    1.0636    0.0412 C.ar      1 <0>        -0.1299
     23 C19        -7.1386   -0.3186    0.0330 C.ar      1 <0>        -0.0639
     24 C20        -5.9176   -0.9688    0.0236 C.ar      1 <0>        -0.1304
     25 C21        -4.7452   -0.2407    0.0220 C.ar      1 <0>        -0.0589
     26 C22        -8.4153   -1.1193    0.0348 C.3       1 <0>        -0.1219
     27 H1          2.2070   -4.0786   -0.0409 H         1 <0>         0.0600
     28 H2          2.9750   -2.7257    0.8572 H         1 <0>         0.0558
     29 H3          2.9578   -2.7161   -0.9390 H         1 <0>         0.0558
     30 H4          0.4764   -2.5164   -0.9142 H         1 <0>         0.0711
     31 H5          0.4935   -2.5260    0.8820 H         1 <0>         0.0711
     32 H6          1.8989   -0.4710    0.8796 H         1 <0>         0.0988
     33 H7          1.8818   -0.4613   -0.9166 H         1 <0>         0.0988
     34 H8          0.9289    1.9065    0.0079 H         1 <0>         0.4496
     35 H9         -4.5184    3.8620    0.0435 H         1 <0>         0.1495
     36 H10        -4.4940    5.6967    0.0429 H         1 <0>         0.1284
     37 H11        -4.4614    8.1565    0.0651 H         1 <0>         0.1290
     38 H12        -0.1956    8.1166    0.0491 H         1 <0>         0.1279
     39 H13        -0.2090    5.6566    0.0352 H         1 <0>         0.1359
     40 H14        -1.2725   10.1463    0.0644 H         1 <0>         0.0681
     41 H15        -2.8248   10.1560    0.9682 H         1 <0>         0.0738
     42 H16        -2.8313   10.1657   -0.8281 H         1 <0>         0.0738
     43 H17        -6.0690    2.8810    0.0551 H         1 <0>         0.1271
     44 H18        -8.1481    1.5659    0.0489 H         1 <0>         0.1280
     45 H19        -5.8817   -2.0481    0.0173 H         1 <0>         0.1271
     46 H20        -3.7925   -0.7493    0.0150 H         1 <0>         0.1443
     47 H21        -8.1749   -2.1927    0.0274 H         1 <0>         0.0678
     48 H22        -9.0059   -0.8697   -0.8590 H         1 <0>         0.0732
     49 H23        -8.9969   -0.8800    0.9373 H         1 <0>         0.0732
@<TRIPOS>BOND
     1    1    2 1
     2    1   27 1
     3    1   28 1
     4    1   29 1
     5    2    3 1
     6    2   30 1
     7    2   31 1
     8    3    4 1
     9    3   32 1
    10    3   33 1
    11    4    5 2
    12    4    6 am
    13    6    7 1
    14    6   34 1
    15    7   12 ar
    16    7    8 ar
    17    8    9 ar
    18    9   10 ar
    19    9   20 1
    20   10   11 ar
    21   10   35 1
    22   11   12 ar
    23   11   13 1
    24   13   18 ar
    25   13   14 ar
    26   14   15 ar
    27   14   36 1
    28   15   16 ar
    29   15   37 1
    30   16   17 ar
    31   16   19 1
    32   17   18 ar
    33   17   38 1
    34   18   39 1
    35   19   40 1
    36   19   41 1
    37   19   42 1
    38   20   25 ar
    39   20   21 ar
    40   21   22 ar
    41   21   43 1
    42   22   23 ar
    43   22   44 1
    44   23   24 ar
    45   23   26 1
    46   24   25 ar
    47   24   45 1
    48   25   46 1
    49   26   47 1
    50   26   48 1
    51   26   49 1
@<TRIPOS>MOLECULE
ZINC02889426
   31    33     0     0     0
SMALL
USER_CHARGES

@<TRIPOS>ATOM
      1 C1         -0.0167    1.3790    0.0096 C.ar      1 <0>        -0.0985
      2 C2          1.1686    2.0920    0.0021 C.ar      1 <0>        -0.1260
      3 C3          2.3774    1.4261   -0.0130 C.ar      1 <0>        -0.0754
      4 C4          2.4023    0.0328   -0.0207 C.ar      1 <0>        -0.0310
      5 C5          1.2051   -0.6804   -0.0131 C.ar      1 <0>        -0.0715
      6 C6          0.0021   -0.0041    0.0020 C.ar      1 <0>        -0.1279
      7 C7          3.6986   -0.6887   -0.0375 C.2       1 <0>         0.3212
      8 N1          3.7439   -2.0095   -0.0502 N.2       1 <0>        -0.5524
      9 C8          4.9336   -2.5821   -0.0652 C.2       1 <0>         0.2536
     10 S1          5.9775   -1.2656   -0.0614 S.3       1 <0>         0.3819
     11 N2          4.8416   -0.0331   -0.0458 N.2       1 <0>        -0.4967
     12 N3          5.2442   -3.9335   -0.0799 N.am      1 <0>        -0.6034
     13 C9          6.5326   -4.3287   -0.0941 C.2       1 <0>         0.5653
     14 O1          7.4225   -3.5006   -0.0941 O.2       1 <0>        -0.4854
     15 C10         6.8635   -5.7685   -0.1098 C.ar      1 <0>        -0.1356
     16 C11         5.8434   -6.7221   -0.1157 C.ar      1 <0>        -0.0682
     17 C12         6.1585   -8.0644   -0.1308 C.ar      1 <0>        -0.1153
     18 C13         7.4837   -8.4676   -0.1401 C.ar      1 <0>        -0.0019
     19 C14         8.4999   -7.5263   -0.1343 C.ar      1 <0>        -0.1158
     20 C15         8.1974   -6.1811   -0.1246 C.ar      1 <0>        -0.0349
     21 Cl1         7.8725  -10.1594   -0.1586 Cl        1 <0>        -0.0505
     22 H1         -0.9603    1.9042    0.0260 H         1 <0>         0.1271
     23 H2          1.1482    3.1718    0.0078 H         1 <0>         0.1299
     24 H3          3.3023    1.9837   -0.0192 H         1 <0>         0.1342
     25 H4          1.2186   -1.7603   -0.0194 H         1 <0>         0.1350
     26 H5         -0.9264   -0.5557    0.0079 H         1 <0>         0.1292
     27 H6          4.5341   -4.5943   -0.0799 H         1 <0>         0.4272
     28 H7          4.8099   -6.4090   -0.1081 H         1 <0>         0.1384
     29 H8          5.3705   -8.8029   -0.1351 H         1 <0>         0.1466
     30 H9          9.5313   -7.8467   -0.1413 H         1 <0>         0.1480
     31 H10         8.9906   -5.4481   -0.1246 H         1 <0>         0.1528
@<TRIPOS>BOND
     1    1    6 ar
     2    1    2 ar
     3    1   22 1
     4    2    3 ar
     5    2   23 1
     6    3    4 ar
     7    3   24 1
     8    4    5 ar
     9    4    7 1
    10    5    6 ar
    11    5   25 1
    12    6   26 1
    13    7   11 2
    14    7    8 1
    15    8    9 2
    16    9   10 1
    17    9   12 1
    18   10   11 1
    19   12   13 am
    20   12   27 1
    21   13   14 2
    22   13   15 1
    23   15   20 ar
    24   15   16 ar
    25   16   17 ar
    26   16   28 1
    27   17   18 ar
    28   17   29 1
    29   18   19 ar
    30   18   21 1
    31   19   20 ar
    32   19   30 1
    33   20   31 1
@<TRIPOS>MOLECULE
ZINC02889428
   31    33     0     0     0
SMALL
USER_CHARGES
N-(3-phenyl-1,2,4-thiadiazol-5-yl)benzamide
@<TRIPOS>ATOM
      1 C1          0.0021   -0.0041    0.0020 C.ar      1 <0>        -0.0982
      2 C2         -0.0167    1.3790    0.0096 C.ar      1 <0>        -0.1284
      3 C3          1.1675    2.0878    0.0021 C.ar      1 <0>        -0.0705
      4 C4          2.3836    1.4075   -0.0132 C.ar      1 <0>        -0.0340
      5 C5          2.3965    0.0141   -0.0208 C.ar      1 <0>        -0.0752
      6 C6          1.2063   -0.6845   -0.0132 C.ar      1 <0>        -0.1263
      7 C7          3.6599    2.1640   -0.0214 C.2       1 <0>         0.3257
      8 N1          3.6517    3.4832   -0.0142 N.2       1 <0>        -0.5554
      9 C8          4.8088    4.1255   -0.0219 C.2       1 <0>         0.3099
     10 S1          5.9410    2.8112   -0.0399 S.3       1 <0>         0.2878
     11 N2          4.8132    1.5235   -0.0304 N.2       1 <0>        -0.4695
     12 N3          5.0522    5.4906   -0.0176 N.am      1 <0>        -0.6025
     13 C9          6.3196    5.9491   -0.0272 C.2       1 <0>         0.5648
     14 O1          7.2491    5.1660   -0.0397 O.2       1 <0>        -0.4859
     15 C10         6.5791    7.4041   -0.0226 C.ar      1 <0>        -0.1401
     16 C11         5.5137    8.3062   -0.0141 C.ar      1 <0>        -0.0818
     17 C12         5.7630    9.6630   -0.0030 C.ar      1 <0>        -0.1244
     18 C13         7.0653   10.1303   -0.0134 C.ar      1 <0>        -0.0810
     19 C14         8.1257    9.2417   -0.0281 C.ar      1 <0>        -0.1250
     20 C15         7.8906    7.8824   -0.0325 C.ar      1 <0>        -0.0487
     21 H1         -0.9270   -0.5547    0.0083 H         1 <0>         0.1270
     22 H2         -0.9598    1.9053    0.0170 H         1 <0>         0.1292
     23 H3          1.1517    3.1677    0.0078 H         1 <0>         0.1355
     24 H4          3.3362   -0.5182   -0.0323 H         1 <0>         0.1340
     25 H5          1.2151   -1.7645   -0.0194 H         1 <0>         0.1299
     26 H6          4.3104    6.1155   -0.0077 H         1 <0>         0.4284
     27 H7          4.4968    7.9427   -0.0108 H         1 <0>         0.1282
     28 H8          4.9398   10.3620    0.0088 H         1 <0>         0.1351
     29 H9          7.2549   11.1935   -0.0096 H         1 <0>         0.1331
     30 H10         9.1399    9.6130   -0.0358 H         1 <0>         0.1364
     31 H11         8.7192    7.1898   -0.0440 H         1 <0>         0.1419
@<TRIPOS>BOND
     1    1    6 ar
     2    1    2 ar
     3    1   21 1
     4    2    3 ar
     5    2   22 1
     6    3    4 ar
     7    3   23 1
     8    4    5 ar
     9    4    7 1
    10    5    6 ar
    11    5   24 1
    12    6   25 1
    13    7   11 2
    14    7    8 1
    15    8    9 2
    16    9   10 1
    17    9   12 1
    18   10   11 1
    19   12   13 am
    20   12   26 1
    21   13   14 2
    22   13   15 1
    23   15   20 ar
    24   15   16 ar
    25   16   17 ar
    26   16   27 1
    27   17   18 ar
    28   17   28 1
    29   18   19 ar
    30   18   29 1
    31   19   20 ar
    32   19   30 1
    33   20   31 1
@<TRIPOS>MOLECULE
ZINC06919863
   35    37     0     0     0
SMALL
USER_CHARGES
4-methoxy-N-[4-(2-pyridyl)thiazol-2-yl]benzamide
@<TRIPOS>ATOM
      1 C1          6.1542   12.2305    0.0100 C.3       1 <0>         0.0189
      2 O1          7.3005   11.3774   -0.0065 O.3       1 <0>        -0.3094
      3 C2          7.0729   10.0395   -0.0119 C.ar      1 <0>         0.1652
      4 C3          8.1444    9.1542   -0.0279 C.ar      1 <0>        -0.1589
      5 C4          7.9177    7.7960   -0.0334 C.ar      1 <0>        -0.0094
      6 C5          6.6081    7.3081   -0.0230 C.ar      1 <0>        -0.1773
      7 C6          5.5336    8.2016   -0.0127 C.ar      1 <0>        -0.0381
      8 C7          5.7689    9.5583   -0.0010 C.ar      1 <0>        -0.2164
      9 C8          6.3606    5.8534   -0.0288 C.2       1 <0>         0.5702
     10 O2          7.2966    5.0775   -0.0427 O.2       1 <0>        -0.4993
     11 N1          5.0969    5.3849   -0.0187 N.am      1 <0>        -0.6210
     12 C9          4.8640    4.0162   -0.0242 C.2       1 <0>         0.3234
     13 N2          3.7165    3.3646   -0.0163 N.2       1 <0>        -0.5317
     14 C10         3.6771    2.0400   -0.0235 C.2       1 <0>         0.1047
     15 C11         4.8492    1.3346   -0.0342 C.2       1 <0>        -0.1925
     16 S1          6.0390    2.6693   -0.0438 S.3       1 <0>         0.1174
     17 C12         2.3767    1.3300   -0.0139 C.ar      1 <0>         0.1913
     18 C13         1.1893    2.0614    0.0018 C.ar      1 <0>        -0.1386
     19 C14        -0.0168    1.3844    0.0097 C.ar      1 <0>        -0.0781
     20 C15         0.0021   -0.0041    0.0020 C.ar      1 <0>        -0.1719
     21 C16         1.2151   -0.6658   -0.0131 C.ar      1 <0>         0.1034
     22 N3          2.3509    0.0030   -0.0208 N.ar      1 <0>        -0.4771
     23 H1          6.4793   13.2814    0.0128 H         1 <0>         0.1073
     24 H2          5.5596   12.0282    0.9131 H         1 <0>         0.0615
     25 H3          5.5414   12.0386   -0.8831 H         1 <0>         0.0614
     26 H4          9.1561    9.5321   -0.0363 H         1 <0>         0.1436
     27 H5          8.7507    7.1088   -0.0455 H         1 <0>         0.1481
     28 H6          4.5200    7.8285   -0.0095 H         1 <0>         0.1307
     29 H7          4.9391   10.2495    0.0117 H         1 <0>         0.1395
     30 H8          4.2501    6.0869   -0.0061 H         1 <0>         0.4505
     31 H9          5.0111    0.2668   -0.0374 H         1 <0>         0.2053
     32 H10         1.2113    3.1412    0.0074 H         1 <0>         0.1430
     33 H11        -0.9524    1.9237    0.0171 H         1 <0>         0.1368
     34 H12        -0.9228   -0.5617    0.0082 H         1 <0>         0.1369
     35 H13         1.2327   -1.7456   -0.0191 H         1 <0>         0.1605
@<TRIPOS>BOND
     1    1    2 1
     2    1   23 1
     3    1   24 1
     4    1   25 1
     5    2    3 1
     6    3    8 ar
     7    3    4 ar
     8    4    5 ar
     9    4   26 1
    10    5    6 ar
    11    5   27 1
    12    6    7 ar
    13    6    9 1
    14    7    8 ar
    15    7   28 1
    16    8   29 1
    17    9   10 2
    18    9   11 am
    19   11   12 1
    20   11   30 1
    21   12   16 1
    22   12   13 2
    23   13   14 1
    24   14   15 2
    25   14   17 1
    26   15   16 1
    27   15   31 1
    28   17   22 ar
    29   17   18 ar
    30   18   19 ar
    31   18   32 1
    32   19   20 ar
    33   19   33 1
    34   20   21 ar
    35   20   34 1
    36   21   22 ar
    37   21   35 1
@<TRIPOS>MOLECULE
ZINC03872013
   28    31     0     0     0
SMALL
USER_CHARGES

@<TRIPOS>ATOM
      1 C1         -0.0162    1.3433    0.0094 C.2       1 <0>        -0.2195
      2 C2          1.3252    1.7744   -0.0011 C.2       1 <0>        -0.1351
      3 C3          2.0962    0.6548   -0.0144 C.2       1 <0>         0.0399
      4 O1          1.2797   -0.4166   -0.0124 O.3       1 <0>        -0.1525
      5 C4          0.0021   -0.0041    0.0020 C.2       1 <0>        -0.0023
      6 C5          3.5737    0.6193   -0.0292 C.2       1 <0>         0.3445
      7 N1          4.3226   -0.4905   -0.0476 N.2       1 <0>        -0.5018
      8 C6          5.5962   -0.1641   -0.0567 C.2       1 <0>         0.3614
      9 C7          6.8502   -0.9263   -0.0770 C.ar      1 <0>        -0.1117
     10 C8          6.8690   -2.3192   -0.0918 C.ar      1 <0>        -0.0298
     11 C9          8.0788   -2.9807   -0.1111 C.ar      1 <0>        -0.0604
     12 C10         9.2722   -2.2687   -0.1153 C.ar      1 <0>        -0.0566
     13 C11         9.2751   -0.9026   -0.1006 C.ar      1 <0>        -0.1000
     14 C12         8.0651   -0.2038   -0.0819 C.ar      1 <0>         0.1923
     15 N2          8.0311    1.1508   -0.0678 N.2       1 <0>        -0.5514
     16 C13         6.9051    1.8155   -0.0498 C.2       1 <0>         0.6594
     17 N3          5.6826    1.2027   -0.0438 N.pl3     1 <0>        -0.3685
     18 N4          4.3637    1.6764   -0.0320 N.2       1 <0>        -0.2877
     19 N5          6.9524    3.1898   -0.0360 N.pl3     1 <0>        -0.8086
     20 Cl1         8.1113   -4.7163   -0.1296 Cl        1 <0>        -0.0542
     21 H1         -0.8931    1.9736    0.0252 H         1 <0>         0.1603
     22 H2          1.6736    2.7966    0.0008 H         1 <0>         0.1603
     23 H3         -0.8667   -0.6456    0.0074 H         1 <0>         0.2151
     24 H4          5.9438   -2.8764   -0.0879 H         1 <0>         0.1517
     25 H5         10.2107   -2.8029   -0.1301 H         1 <0>         0.1482
     26 H6         10.2110   -0.3636   -0.1038 H         1 <0>         0.1535
     27 H7          7.8086    3.6457   -0.0396 H         1 <0>         0.4305
     28 H8          6.1295    3.7032   -0.0225 H         1 <0>         0.4230
@<TRIPOS>BOND
     1    1    5 2
     2    1    2 1
     3    1   21 1
     4    2    3 2
     5    2   22 1
     6    3    4 1
     7    3    6 1
     8    4    5 1
     9    5   23 1
    10    6   18 2
    11    6    7 1
    12    7    8 2
    13    8   17 1
    14    8    9 1
    15    9   14 ar
    16    9   10 ar
    17   10   11 ar
    18   10   24 1
    19   11   12 ar
    20   11   20 1
    21   12   13 ar
    22   12   25 1
    23   13   14 ar
    24   13   26 1
    25   14   15 1
    26   15   16 2
    27   16   17 1
    28   16   19 1
    29   17   18 1
    30   19   27 1
    31   19   28 1
@<TRIPOS>MOLECULE
ZINC27092703
   39    42     0     0     0
SMALL
USER_CHARGES

@<TRIPOS>ATOM
      1 C1         -0.0187    1.5258    0.0104 C.3       1 <0>        -0.1459
      2 C2          0.0021   -0.0041    0.0020 C.3       1 <0>        -0.1101
      3 C3          0.7182   -0.4975   -1.2568 C.3       1 <0>         0.0540
      4 H1          1.7086   -0.0484   -1.3318 H         1 <0>         0.1098
      5 C4          0.8223   -2.0335   -1.2502 C.3       1 <0>         0.1003
      6 N1          0.0695   -2.4357   -2.4500 N.am      1 <0>        -0.5745
      7 C5         -0.4089   -1.2958   -3.0727 C.2       1 <0>         0.4219
      8 N2         -0.0753   -0.1923   -2.4514 N.2       1 <0>        -0.5227
      9 C6         -1.1959   -1.4735   -4.3020 C.2       1 <0>        -0.0420
     10 C7         -1.4219   -2.7542   -4.7779 C.2       1 <0>         0.3052
     11 N3         -2.1514   -2.6462   -5.8902 N.2       1 <0>        -0.4750
     12 C8         -2.3968   -1.3758   -6.1411 C.2       1 <0>         0.3231
     13 N4         -1.8184   -0.6084   -5.1741 N.pl3     1 <0>        -0.5200
     14 H2         -1.8408    0.3593   -5.1124 H         1 <0>         0.4358
     15 C9         -3.1751   -0.8642   -7.2890 C.ar      1 <0>        -0.0319
     16 C10        -3.3627    0.5093   -7.4524 C.ar      1 <0>        -0.1008
     17 C11        -4.0897    0.9801   -8.5261 C.ar      1 <0>        -0.1163
     18 C12        -4.6327    0.0942   -9.4398 C.ar      1 <0>        -0.0992
     19 C13        -4.4504   -1.2685   -9.2837 C.ar      1 <0>        -0.1183
     20 C14        -3.7206   -1.7522   -8.2176 C.ar      1 <0>        -0.0670
     21 N5         -0.8991   -3.8363   -4.0804 N.am      1 <0>        -0.5148
     22 C15        -0.1820   -3.6553   -2.9602 C.2       1 <0>         0.7251
     23 O1          0.2566   -4.6317   -2.3831 O.2       1 <0>        -0.5447
     24 C16        -1.1332   -5.1951   -4.5756 C.3       1 <0>         0.0920
     25 H3          1.0039    1.9031    0.0027 H         1 <0>         0.0546
     26 H4         -0.5459    1.8868   -0.8726 H         1 <0>         0.0628
     27 H5         -0.5289    1.8773    0.9072 H         1 <0>         0.0547
     28 H6          0.5293   -0.3651    0.8851 H         1 <0>         0.0755
     29 H7         -1.0205   -0.3814    0.0098 H         1 <0>         0.0640
     30 H8          1.8632   -2.3478   -1.3272 H         1 <0>         0.0966
     31 H9          0.3616   -2.4454   -0.3523 H         1 <0>         0.0974
     32 H10        -2.9400    1.2018   -6.7395 H         1 <0>         0.1219
     33 H11        -4.2357    2.0426   -8.6537 H         1 <0>         0.1314
     34 H12        -5.2016    0.4679  -10.2782 H         1 <0>         0.1293
     35 H13        -4.8768   -1.9547  -10.0004 H         1 <0>         0.1330
     36 H14        -3.5753   -2.8158   -8.0993 H         1 <0>         0.1407
     37 H15        -0.3307   -5.4766   -5.2573 H         1 <0>         0.0711
     38 H16        -1.1563   -5.8891   -3.7353 H         1 <0>         0.0918
     39 H17        -2.0867   -5.2305   -5.1025 H         1 <0>         0.0912
@<TRIPOS>BOND
     1    1    2 1
     2    1   25 1
     3    1   26 1
     4    1   27 1
     5    2    3 1
     6    2   28 1
     7    2   29 1
     8    3    4 1
     9    3    8 1
    10    3    5 1
    11    5    6 1
    12    5   30 1
    13    5   31 1
    14    6   22 am
    15    6    7 1
    16    7    8 2
    17    7    9 1
    18    9   13 1
    19    9   10 2
    20   10   11 1
    21   10   21 1
    22   11   12 2
    23   12   13 1
    24   12   15 1
    25   13   14 1
    26   15   20 ar
    27   15   16 ar
    28   16   17 ar
    29   16   32 1
    30   17   18 ar
    31   17   33 1
    32   18   19 ar
    33   18   34 1
    34   19   20 ar
    35   19   35 1
    36   20   36 1
    37   21   22 am
    38   21   24 1
    39   22   23 2
    40   24   37 1
    41   24   38 1
    42   24   39 1
@<TRIPOS>MOLECULE
ZINC03977757
   46    48     0     0     0
SMALL
USER_CHARGES

@<TRIPOS>ATOM
      1 C1         -0.0187    1.5258    0.0104 C.3       1 <0>        -0.1472
      2 C2          0.0021   -0.0041    0.0020 C.3       1 <0>        -0.1381
      3 C3          0.7182   -0.4975   -1.2568 C.3       1 <0>         0.1189
      4 N1          0.7381   -1.9623   -1.2648 N.am      1 <0>        -0.5078
      5 C4         -0.2978   -2.6649   -1.8590 C.2       1 <0>         0.3255
      6 C5         -0.2556   -4.0535   -1.8540 C.2       1 <0>        -0.1555
      7 C6          0.8381   -4.7062   -1.2456 C.2       1 <0>         0.5940
      8 O1          0.8979   -5.9226   -1.2287 O.2       1 <0>        -0.5124
      9 N2          1.8167   -3.9668   -0.6832 N.am      1 <0>        -0.5486
     10 C7          1.7657   -2.6237   -0.6997 C.2       1 <0>         0.7072
     11 O2          2.6683   -1.9900   -0.1875 O.2       1 <0>        -0.5292
     12 C8          2.9547   -4.6379   -0.0500 C.3       1 <0>         0.1138
     13 C9          4.0598   -4.8545   -1.0857 C.3       1 <0>        -0.1378
     14 C10         5.2482   -5.5554   -0.4244 C.3       1 <0>        -0.1473
     15 N3         -1.3974   -4.4770   -2.5042 N.pl3     1 <0>        -0.5132
     16 C11        -2.0744   -3.3715   -2.8713 C.2       1 <0>         0.3078
     17 N4         -1.4199   -2.3052   -2.4875 N.2       1 <0>        -0.4912
     18 H1         -1.6621   -5.3960   -2.6660 H         1 <0>         0.4346
     19 C12        -3.3868   -3.3639   -3.6120 C.3       1 <0>        -0.0167
     20 C13        -4.2245   -4.5971   -3.2154 C.3       1 <0>        -0.1246
     21 C14        -4.9262   -5.0185   -4.5304 C.3       1 <0>        -0.1243
     22 C15        -3.8330   -4.7644   -5.5978 C.3       1 <0>        -0.1288
     23 C16        -3.1379   -3.4703   -5.1267 C.3       1 <0>        -0.1169
     24 H2          1.0039    1.9031    0.0027 H         1 <0>         0.0589
     25 H3         -0.5459    1.8868   -0.8726 H         1 <0>         0.0589
     26 H4         -0.5289    1.8773    0.9072 H         1 <0>         0.0608
     27 H5          0.5293   -0.3651    0.8851 H         1 <0>         0.0678
     28 H6         -1.0205   -0.3814    0.0098 H         1 <0>         0.0678
     29 H7          0.1910   -0.1364   -2.1398 H         1 <0>         0.0985
     30 H8          1.7408   -0.1202   -1.2645 H         1 <0>         0.1003
     31 H9          3.3348   -4.0193    0.7630 H         1 <0>         0.1032
     32 H10         2.6339   -5.6014    0.3460 H         1 <0>         0.1014
     33 H11         3.6796   -5.4731   -1.8987 H         1 <0>         0.0670
     34 H12         4.3806   -3.8910   -1.4817 H         1 <0>         0.0693
     35 H13         6.0355   -5.7097   -1.1623 H         1 <0>         0.0615
     36 H14         5.6284   -4.9368    0.3886 H         1 <0>         0.0599
     37 H15         4.9274   -6.5189   -0.0284 H         1 <0>         0.0589
     38 H16        -3.9368   -2.4501   -3.3872 H         1 <0>         0.1178
     39 H17        -3.5783   -5.3972   -2.8545 H         1 <0>         0.0623
     40 H18        -4.9618   -4.3300   -2.4582 H         1 <0>         0.0823
     41 H19        -5.2000   -6.0732   -4.5013 H         1 <0>         0.0738
     42 H20        -5.8012   -4.3962   -4.7179 H         1 <0>         0.0762
     43 H21        -3.1235   -5.5916   -5.6216 H         1 <0>         0.0665
     44 H22        -4.2844   -4.6194   -6.5792 H         1 <0>         0.0743
     45 H23        -3.5678   -2.6085   -5.6372 H         1 <0>         0.0823
     46 H24        -2.0678   -3.5274   -5.3261 H         1 <0>         0.0684
@<TRIPOS>BOND
     1    1    2 1
     2    1   24 1
     3    1   25 1
     4    1   26 1
     5    2    3 1
     6    2   27 1
     7    2   28 1
     8    3   29 1
     9    3   30 1
    10    3    4 1
    11    4    5 1
    12    4   10 am
    13    5   17 1
    14    5    6 2
    15    6    7 1
    16    6   15 1
    17    7    9 am
    18    7    8 2
    19    9   10 am
    20    9   12 1
    21   10   11 2
    22   12   13 1
    23   12   31 1
    24   12   32 1
    25   13   14 1
    26   13   33 1
    27   13   34 1
    28   14   35 1
    29   14   36 1
    30   14   37 1
    31   15   18 1
    32   15   16 1
    33   16   19 1
    34   16   17 2
    35   19   23 1
    36   19   20 1
    37   19   38 1
    38   20   21 1
    39   20   39 1
    40   20   40 1
    41   21   22 1
    42   21   41 1
    43   21   42 1
    44   22   23 1
    45   22   43 1
    46   22   44 1
    47   23   45 1
    48   23   46 1
@<TRIPOS>MOLECULE
ZINC03620786
   56    60     0     0     0
SMALL
USER_CHARGES

@<TRIPOS>ATOM
      1 C1          1.0737   -0.2869   -0.6772 C.ar      1 <0>        -0.0578
      2 C2          2.1723    0.5483   -0.7226 C.ar      1 <0>        -0.1800
      3 C3          2.1166    1.8018   -0.1274 C.ar      1 <0>         0.2044
      4 C4          0.9560    2.2152    0.5134 C.ar      1 <0>        -0.1792
      5 C5         -0.1425    1.3799    0.5588 C.ar      1 <0>        -0.0955
      6 C6         -0.0868    0.1265   -0.0364 C.ar      1 <0>         0.1108
      7 N1         -1.2013   -0.7208    0.0097 N.pl3     1 <0>        -0.6320
      8 C7         -1.0257   -2.0919    0.1100 C.ar      1 <0>         0.6245
      9 N2          0.1969   -2.5687    0.2805 N.ar      1 <0>        -0.5996
     10 C8          0.4043   -3.8777    0.3809 C.ar      1 <0>         0.3416
     11 C9         -0.6922   -4.7524    0.3038 C.ar      1 <0>        -0.1506
     12 C10        -1.9726   -4.2016    0.1216 C.ar      1 <0>         0.5432
     13 N3         -2.0900   -2.8812    0.0372 N.ar      1 <0>        -0.6192
     14 N4         -3.0874   -5.0170    0.0390 N.pl3     1 <0>        -0.6876
     15 C11        -4.4145   -4.4262   -0.1511 C.3       1 <0>         0.1518
     16 C12        -4.9921   -4.0221    1.2069 C.3       1 <0>        -0.1275
     17 C13        -6.3780   -3.4052    1.0084 C.3       1 <0>        -0.1158
     18 C14        -7.3018   -4.4289    0.3455 C.3       1 <0>        -0.1231
     19 C15        -6.7242   -4.8330   -1.0124 C.3       1 <0>        -0.1145
     20 C16        -5.3383   -5.4500   -0.8140 C.3       1 <0>        -0.1288
     21 N5         -0.2084   -6.0121    0.4337 N.2       1 <0>        -0.4549
     22 C17         1.0833   -5.9668    0.5818 C.2       1 <0>         0.2364
     23 N6          1.5099   -4.6710    0.5561 N.pl3     1 <0>        -0.5828
     24 H1          2.4266   -4.3666    0.6449 H         1 <0>         0.4289
     25 N7          3.2302    2.6482   -0.1730 N.pl3     1 <0>        -0.6352
     26 C18         3.1595    4.0220    0.3496 C.3       1 <0>         0.0872
     27 C19         4.3420    4.2390    1.3006 C.3       1 <0>         0.0451
     28 O1          5.5539    3.8743    0.6357 O.3       1 <0>        -0.3797
     29 C20         5.6236    2.4967    0.2598 C.3       1 <0>         0.0456
     30 C21         4.5083    2.1887   -0.7394 C.3       1 <0>         0.0880
     31 H2          1.1155   -1.2600   -1.1439 H         1 <0>         0.1316
     32 H3          3.0750    0.2266   -1.2207 H         1 <0>         0.1219
     33 H4          0.9128    3.1899    0.9766 H         1 <0>         0.1248
     34 H5         -1.0451    1.7014    1.0572 H         1 <0>         0.1242
     35 H6         -2.0960   -0.3480   -0.0287 H         1 <0>         0.4223
     36 H7         -2.9903   -5.9797    0.1068 H         1 <0>         0.4177
     37 H8         -4.3323   -3.5452   -0.7876 H         1 <0>         0.0936
     38 H9         -5.0743   -4.9031    1.8434 H         1 <0>         0.0612
     39 H10        -4.3339   -3.2928    1.6792 H         1 <0>         0.0679
     40 H11        -6.7895   -3.1173    1.9759 H         1 <0>         0.0639
     41 H12        -6.2958   -2.5242    0.3719 H         1 <0>         0.0650
     42 H13        -7.3840   -5.3099    0.9821 H         1 <0>         0.0623
     43 H14        -8.2892   -3.9894    0.2042 H         1 <0>         0.0640
     44 H15        -7.3824   -5.5623   -1.4847 H         1 <0>         0.0674
     45 H16        -6.6420   -3.9520   -1.6490 H         1 <0>         0.0656
     46 H17        -4.9268   -5.7378   -1.7814 H         1 <0>         0.0689
     47 H18        -5.4205   -6.3309   -0.1774 H         1 <0>         0.0682
     48 H19         1.7234   -6.8277    0.7069 H         1 <0>         0.2226
     49 H20         3.2168    4.7320   -0.4754 H         1 <0>         0.0700
     50 H21         2.2233    4.1613    0.8902 H         1 <0>         0.0926
     51 H22         4.3878    5.2885    1.5911 H         1 <0>         0.1045
     52 H23         4.2135    3.6199    2.1885 H         1 <0>         0.0555
     53 H24         6.5913    2.2929   -0.1986 H         1 <0>         0.1046
     54 H25         5.4997    1.8714    1.1439 H         1 <0>         0.0549
     55 H26         4.4648    1.1145   -0.9197 H         1 <0>         0.0916
     56 H27         4.7037    2.7110   -1.6760 H         1 <0>         0.0693
@<TRIPOS>BOND
     1    1    6 ar
     2    1    2 ar
     3    1   31 1
     4    2    3 ar
     5    2   32 1
     6    3    4 ar
     7    3   25 1
     8    4    5 ar
     9    4   33 1
    10    5    6 ar
    11    5   34 1
    12    6    7 1
    13    7    8 1
    14    7   35 1
    15    8   13 ar
    16    8    9 ar
    17    9   10 ar
    18   10   23 1
    19   10   11 ar
    20   11   12 ar
    21   11   21 1
    22   12   13 ar
    23   12   14 1
    24   14   15 1
    25   14   36 1
    26   15   20 1
    27   15   16 1
    28   15   37 1
    29   16   17 1
    30   16   38 1
    31   16   39 1
    32   17   18 1
    33   17   40 1
    34   17   41 1
    35   18   19 1
    36   18   42 1
    37   18   43 1
    38   19   20 1
    39   19   44 1
    40   19   45 1
    41   20   46 1
    42   20   47 1
    43   21   22 2
    44   22   23 1
    45   22   48 1
    46   23   24 1
    47   25   30 1
    48   25   26 1
    49   26   27 1
    50   26   49 1
    51   26   50 1
    52   27   28 1
    53   27   51 1
    54   27   52 1
    55   28   29 1
    56   29   30 1
    57   29   53 1
    58   29   54 1
    59   30   55 1
    60   30   56 1
@<TRIPOS>MOLECULE
ZINC03995845
   48    51     0     0     0
SMALL
USER_CHARGES
5-[2-chloro-6-[(3-iodophenyl)methylamino]purin-9-yl]-3,4-dihydroxy-N-methyl-tetrahydrofuran-2-carboxamide
@<TRIPOS>ATOM
      1 C1         -3.5156   -0.8102    1.9233 C.3       1 <0>         0.0861
      2 N1         -2.6417    0.1999    1.3215 N.am      1 <0>        -0.7300
      3 C2         -1.5096    0.5727    1.9507 C.2       1 <0>         0.5159
      4 O1         -1.2144    0.0718    3.0151 O.2       1 <0>        -0.5022
      5 C3         -0.6107    1.6118    1.3317 C.3       1 <0>         0.0319
      6 H1         -1.1613    2.5364    1.1584 H         1 <0>         0.1217
      7 C4         -0.0127    1.0858    0.0080 C.3       1 <0>         0.0511
      8 H2          0.0021   -0.0041    0.0020 H         1 <0>         0.0923
      9 C5          1.4269    1.6468   -0.0027 C.3       1 <0>         0.0805
     10 H3          2.1534    0.8343   -0.0140 H         1 <0>         0.0905
     11 C6          1.5284    2.4454    1.3158 C.3       1 <0>         0.3123
     12 H4          1.3078    3.4982    1.1397 H         1 <0>         0.1301
     13 O2          0.5316    1.8583    2.1804 O.3       1 <0>        -0.3264
     14 N2          2.8630    2.2959    1.9011 N.pl3     1 <0>        -0.4705
     15 C7          3.2280    1.3965    2.8585 C.2       1 <0>         0.2840
     16 N3          4.4896    1.5386    3.1441 N.2       1 <0>        -0.4479
     17 C8          5.0109    2.5415    2.3970 C.ar      1 <0>        -0.0590
     18 C9          3.9735    3.0393    1.5906 C.ar      1 <0>         0.3145
     19 N4          4.2284    4.0408    0.7548 N.ar      1 <0>        -0.5110
     20 C10         5.4360    4.5628    0.6810 C.ar      1 <0>         0.4116
     21 N5          6.4423    4.1279    1.4192 N.ar      1 <0>        -0.5534
     22 C11         6.2816    3.1303    2.2825 C.ar      1 <0>         0.4581
     23 N6          7.3414    2.6815    3.0508 N.pl3     1 <0>        -0.5899
     24 C12         8.6593    3.3075    2.9179 C.3       1 <0>         0.1056
     25 C13         9.6298    2.6396    3.8576 C.ar      1 <0>        -0.0890
     26 C14        10.3623    1.5466    3.4327 C.ar      1 <0>        -0.0720
     27 C15        11.2531    0.9343    4.2939 C.ar      1 <0>        -0.1148
     28 C16        11.4113    1.4139    5.5808 C.ar      1 <0>        -0.0782
     29 C17        10.6786    2.5066    6.0062 C.ar      1 <0>        -0.0999
     30 C18         9.7917    3.1230    5.1421 C.ar      1 <0>        -0.0750
     31 I1         10.9181    3.2339    7.9562 I         1 <0>        -0.0401
     32 Cl1         5.7156    5.8697   -0.4269 Cl        1 <0>         0.0391
     33 O3          1.6201    2.5086   -1.1262 O.3       1 <0>        -0.5236
     34 O4         -0.7516    1.5814   -1.1102 O.3       1 <0>        -0.5325
     35 H5         -2.9634   -1.7420    2.0457 H         1 <0>         0.0652
     36 H6         -3.8585   -0.4605    2.8971 H         1 <0>         0.0657
     37 H7         -4.3752   -0.9798    1.2749 H         1 <0>         0.0828
     38 H8         -2.8779    0.6005    0.4703 H         1 <0>         0.4001
     39 H9          2.5679    0.6715    3.3114 H         1 <0>         0.2324
     40 H10         7.1195    2.7889    4.0199 H         1 <0>         0.3725
     41 H11         9.0121    3.1974    1.8925 H         1 <0>         0.0987
     42 H12         8.5850    4.3666    3.1648 H         1 <0>         0.0697
     43 H13        10.2386    1.1715    2.4275 H         1 <0>         0.1318
     44 H14        11.8255    0.0808    3.9616 H         1 <0>         0.1339
     45 H15        12.1075    0.9354    6.2537 H         1 <0>         0.1305
     46 H16         9.2225    3.9793    5.4726 H         1 <0>         0.1288
     47 H17         1.5077    2.0712   -1.9813 H         1 <0>         0.3936
     48 H18        -1.6713    1.2840   -1.1370 H         1 <0>         0.3843
@<TRIPOS>BOND
     1    1    2 1
     2    1   35 1
     3    1   36 1
     4    1   37 1
     5    2    3 am
     6    2   38 1
     7    3    4 2
     8    3    5 1
     9    5    6 1
    10    5   13 1
    11    5    7 1
    12    7    8 1
    13    7    9 1
    14    7   34 1
    15    9   10 1
    16    9   11 1
    17    9   33 1
    18   11   12 1
    19   11   13 1
    20   11   14 1
    21   14   18 1
    22   14   15 1
    23   15   16 2
    24   15   39 1
    25   16   17 1
    26   17   22 ar
    27   17   18 ar
    28   18   19 ar
    29   19   20 ar
    30   20   21 ar
    31   20   32 1
    32   21   22 ar
    33   22   23 1
    34   23   24 1
    35   23   40 1
    36   24   25 1
    37   24   41 1
    38   24   42 1
    39   25   30 ar
    40   25   26 ar
    41   26   27 ar
    42   26   43 1
    43   27   28 ar
    44   27   44 1
    45   28   29 ar
    46   28   45 1
    47   29   30 ar
    48   29   31 1
    49   30   46 1
    50   33   47 1
    51   34   48 1
@<TRIPOS>MOLECULE
ZINC18043251
   21    22     0     0     0
SMALL
USER_CHARGES

@<TRIPOS>ATOM
      1 C1         -0.0178    1.4608    0.0101 C.3       1 <0>         0.0852
      2 N1          0.0021   -0.0041    0.0020 N.am      1 <0>        -0.5114
      3 C2         -1.1889   -0.7120    0.0039 C.2       1 <0>         0.3216
      4 C3         -1.1437   -2.1005   -0.0039 C.2       1 <0>        -0.1538
      5 C4          0.1107   -2.7476   -0.0134 C.2       1 <0>         0.5936
      6 O1          0.1765   -3.9638   -0.0207 O.2       1 <0>        -0.5134
      7 N2          1.2361   -2.0032   -0.0148 N.am      1 <0>        -0.5513
      8 C5          1.1776   -0.6603   -0.0127 C.2       1 <0>         0.7076
      9 O2          2.2126   -0.0219   -0.0196 O.2       1 <0>        -0.5305
     10 C6          2.5413   -2.6685   -0.0246 C.3       1 <0>         0.0826
     11 N3         -2.4557   -2.5297    0.0001 N.pl3     1 <0>        -0.5179
     12 H1         -2.7618   -3.4502   -0.0030 H         1 <0>         0.4389
     13 C7         -3.2306   -1.4275    0.0098 C.2       1 <0>         0.2785
     14 N4         -2.4766   -0.3579    0.0120 N.2       1 <0>        -0.4991
     15 H2          1.0048    1.8381    0.0023 H         1 <0>         0.1033
     16 H3         -0.5450    1.8219   -0.8730 H         1 <0>         0.0800
     17 H4         -0.5280    1.8123    0.9069 H         1 <0>         0.0801
     18 H5          2.3982   -3.7491   -0.0298 H         1 <0>         0.1039
     19 H6          3.0941   -2.3709   -0.9157 H         1 <0>         0.0832
     20 H7          3.1026   -2.3806    0.8643 H         1 <0>         0.0832
     21 H8         -4.3106   -1.4268    0.0144 H         1 <0>         0.2358
@<TRIPOS>BOND
     1    1    2 1
     2    1   15 1
     3    1   16 1
     4    1   17 1
     5    2    8 am
     6    2    3 1
     7    3   14 1
     8    3    4 2
     9    4    5 1
    10    4   11 1
    11    5    6 2
    12    5    7 am
    13    7    8 am
    14    7   10 1
    15    8    9 2
    16   10   18 1
    17   10   19 1
    18   10   20 1
    19   11   12 1
    20   11   13 1
    21   13   14 2
    22   13   21 1
@<TRIPOS>MOLECULE
ZINC19594578
   42    43     0     0     0
SMALL
USER_CHARGES

@<TRIPOS>ATOM
      1 C1          2.2963   -1.7884   -0.7145 C.3       1 <0>        -0.0923
      2 C2          1.4718   -3.0131   -0.4122 C.2       1 <0>         0.3012
      3 C3          0.0896   -2.9174   -0.4479 C.2       1 <0>        -0.3659
      4 C4         -0.7042   -4.1738   -0.1379 C.3       1 <0>         0.1078
      5 H1         -1.3383   -4.3964   -0.9961 H         1 <0>         0.0608
      6 C5          0.1142   -5.4119    0.1811 C.2       1 <0>        -0.3854
      7 C6         -0.4961   -6.6246    0.4812 C.2       1 <0>         0.4775
      8 O1         -1.8126   -6.7635    0.3291 O.3       1 <0>        -0.6205
      9 O2          0.2441   -7.6599    0.9261 O.3       1 <0>        -0.3341
     10 C7         -0.4487   -8.8759    1.2150 C.3       1 <0>         0.0364
     11 C8          1.4942   -5.2852    0.1607 C.2       1 <0>         0.2892
     12 N1          2.0880   -4.1435   -0.1272 N.2       1 <0>        -0.6421
     13 C9          2.3427   -6.4910    0.4723 C.3       1 <0>        -0.1054
     14 C10        -1.5971   -3.8874    1.0419 C.ar      1 <0>         0.0222
     15 C11        -1.0432   -3.6451    2.2853 C.ar      1 <0>        -0.1052
     16 C12        -1.8620   -3.3825    3.3673 C.ar      1 <0>        -0.0902
     17 C13        -3.2350   -3.3617    3.2062 C.ar      1 <0>        -0.1344
     18 C14        -3.7887   -3.6031    1.9630 C.ar      1 <0>        -0.0786
     19 C15        -2.9694   -3.8615    0.8798 C.ar      1 <0>        -0.0045
     20 N2         -3.5622   -4.1150   -0.4527 N.pl3     1 <0>         0.0414
     21 O3         -4.4639   -4.9114   -0.5715 O.2       1 <0>        -0.1804
     22 O4         -3.1445   -3.5256   -1.4221 O.3       1 <0>        -0.1243
     23 C16        -0.5445   -1.7188   -0.7549 C.2       1 <0>         0.4850
     24 O5          0.1786   -0.6320   -1.0224 O.2       1 <0>        -0.6277
     25 O6         -1.8910   -1.6562   -0.7820 O.3       1 <0>        -0.3126
     26 C17        -2.4753   -0.3927   -1.1050 C.3       1 <0>         0.0441
     27 H2          3.3553   -2.0378   -0.6477 H         1 <0>         0.0511
     28 H3          2.0687   -1.4364   -1.7207 H         1 <0>         0.0825
     29 H4          2.0613   -1.0052    0.0062 H         1 <0>         0.0805
     30 H5         -1.1939   -8.6944    1.9895 H         1 <0>         0.0514
     31 H6         -0.9429   -9.2357    0.3125 H         1 <0>         0.0531
     32 H7          0.2622   -9.6252    1.5632 H         1 <0>         0.0877
     33 H8          2.0952   -7.2976   -0.2177 H         1 <0>         0.0761
     34 H9          3.3960   -6.2316    0.3652 H         1 <0>         0.0659
     35 H10         2.1507   -6.8159    1.4949 H         1 <0>         0.0804
     36 H11         0.0294   -3.6613    2.4111 H         1 <0>         0.1319
     37 H12        -1.4294   -3.1939    4.3387 H         1 <0>         0.1296
     38 H13        -3.8749   -3.1572    4.0519 H         1 <0>         0.1333
     39 H14        -4.8612   -3.5872    1.8373 H         1 <0>         0.1319
     40 H15        -3.5617   -0.4808   -1.0919 H         1 <0>         0.0816
     41 H16        -2.1623    0.3504   -0.3716 H         1 <0>         0.0468
     42 H17        -2.1477   -0.0840   -2.0977 H         1 <0>         0.0541
@<TRIPOS>BOND
     1    1    2 1
     2    1   27 1
     3    1   28 1
     4    1   29 1
     5    2   12 1
     6    2    3 2
     7    3    4 1
     8    3   23 1
     9    4    5 1
    10    4    6 1
    11    4   14 1
    12    6    7 2
    13    6   11 1
    14    7    8 1
    15    7    9 1
    16    9   10 1
    17   10   30 1
    18   10   31 1
    19   10   32 1
    20   11   12 2
    21   11   13 1
    22   13   33 1
    23   13   34 1
    24   13   35 1
    25   14   19 ar
    26   14   15 ar
    27   15   16 ar
    28   15   36 1
    29   16   17 ar
    30   16   37 1
    31   17   18 ar
    32   17   38 1
    33   18   19 ar
    34   18   39 1
    35   19   20 1
    36   20   21 2
    37   20   22 1
    38   23   24 2
    39   23   25 1
    40   25   26 1
    41   26   40 1
    42   26   41 1
    43   26   42 1
@<TRIPOS>MOLECULE
ZINC00601304
   50    53     0     0     0
SMALL
USER_CHARGES

@<TRIPOS>ATOM
      1 C1         -0.0848    1.4532   -0.3643 C.3       1 <0>         0.0157
      2 O1         -0.0673    0.0248   -0.4029 O.3       1 <0>        -0.2899
      3 C2         -1.2697   -0.6091   -0.3507 C.ar      1 <0>         0.1141
      4 C3         -2.4181    0.1263   -0.2712 C.ar      1 <0>        -0.1159
      5 C4         -3.6565   -0.5247   -0.2178 C.ar      1 <0>        -0.1900
      6 C5         -3.7118   -1.9398   -0.2465 C.ar      1 <0>         0.2208
      7 C6         -2.5225   -2.6738   -0.3282 C.ar      1 <0>        -0.2298
      8 C7         -1.3169   -2.0092   -0.3848 C.ar      1 <0>         0.2171
      9 O2         -0.1616   -2.7187   -0.4697 O.3       1 <0>        -0.2781
     10 C8         -0.2756   -4.1428   -0.5007 C.3       1 <0>         0.0126
     11 N1         -4.9113   -2.5410   -0.1946 N.ar      1 <0>        -0.5852
     12 C9         -6.0151   -1.8231   -0.1184 C.ar      1 <0>         0.6808
     13 N2         -6.0075   -0.4933   -0.0894 N.ar      1 <0>        -0.5933
     14 C10        -4.8747    0.1928   -0.1354 C.ar      1 <0>         0.5614
     15 N3         -4.8820    1.5717   -0.1036 N.pl3     1 <0>        -0.7723
     16 N4         -7.2317   -2.4807   -0.0668 N.pl3     1 <0>        -0.5638
     17 C11        -7.2984   -3.9422   -0.2055 C.3       1 <0>         0.0875
     18 C12        -8.0309   -4.5172    1.0132 C.3       1 <0>         0.0811
     19 N5         -9.2792   -3.7665    1.2081 N.am      1 <0>        -0.6161
     20 C13        -9.2125   -2.3049    1.3468 C.3       1 <0>         0.0965
     21 C14        -8.4794   -1.7305    0.1337 C.3       1 <0>         0.1036
     22 C15       -10.4640   -4.4068    1.2583 C.2       1 <0>         0.6126
     23 O3        -11.4993   -3.7686    1.3005 O.2       1 <0>        -0.5007
     24 C16       -10.5057   -5.8728    1.2622 C.2       1 <0>        -0.0999
     25 C17       -11.6286   -6.6439    1.1675 C.2       1 <0>        -0.0980
     26 C18       -11.2046   -7.9813    1.2107 C.2       1 <0>        -0.2186
     27 C19        -9.8585   -7.9681    1.3284 C.2       1 <0>        -0.0023
     28 O4         -9.4406   -6.6959    1.3540 O.3       1 <0>        -0.1695
     29 H1          0.9367    1.8304   -0.4129 H         1 <0>         0.1175
     30 H2         -0.6531    1.8327   -1.2135 H         1 <0>         0.0636
     31 H3         -0.5513    1.7859    0.5629 H         1 <0>         0.0637
     32 H4         -2.3709    1.2050   -0.2492 H         1 <0>         0.1589
     33 H5         -2.5500   -3.7532   -0.3508 H         1 <0>         0.1674
     34 H6         -0.7651   -4.4880    0.4100 H         1 <0>         0.0684
     35 H7         -0.8669   -4.4412   -1.3664 H         1 <0>         0.0684
     36 H8          0.7180   -4.5855   -0.5693 H         1 <0>         0.1203
     37 H9         -4.0457    2.0621   -0.1379 H         1 <0>         0.4288
     38 H10        -5.7233    2.0512   -0.0471 H         1 <0>         0.4313
     39 H11        -7.8428   -4.1990   -1.1142 H         1 <0>         0.1106
     40 H12        -6.2893   -4.3517   -0.2526 H         1 <0>         0.0927
     41 H13        -8.2596   -5.5687    0.8400 H         1 <0>         0.1354
     42 H14        -7.4023   -4.4179    1.8982 H         1 <0>         0.0848
     43 H15       -10.2215   -1.8954    1.3938 H         1 <0>         0.1238
     44 H16        -8.6680   -2.0481    2.2555 H         1 <0>         0.0830
     45 H17        -8.2501   -0.6797    0.3105 H         1 <0>         0.1273
     46 H18        -9.1099   -1.8262   -0.7503 H         1 <0>         0.0981
     47 H19       -12.6459   -6.2927    1.0769 H         1 <0>         0.1643
     48 H20       -11.8356   -8.8563    1.1598 H         1 <0>         0.1626
     49 H21        -9.2239   -8.8399    1.3885 H         1 <0>         0.2151
     50 H22        -4.9664   -3.5093   -0.2136 H         1 <0>         0.4337
@<TRIPOS>BOND
     1    1    2 1
     2    1   29 1
     3    1   30 1
     4    1   31 1
     5    2    3 1
     6    3    8 ar
     7    3    4 ar
     8    4    5 ar
     9    4   32 1
    10    5   14 ar
    11    5    6 ar
    12    6    7 ar
    13    6   11 ar
    14    7    8 ar
    15    7   33 1
    16    8    9 1
    17    9   10 1
    18   10   34 1
    19   10   35 1
    20   10   36 1
    21   11   12 ar
    22   11   50 1
    23   12   13 ar
    24   12   16 1
    25   13   14 ar
    26   14   15 1
    27   15   37 1
    28   15   38 1
    29   16   21 1
    30   16   17 1
    31   17   18 1
    32   17   39 1
    33   17   40 1
    34   18   19 1
    35   18   41 1
    36   18   42 1
    37   19   20 1
    38   19   22 am
    39   20   21 1
    40   20   43 1
    41   20   44 1
    42   21   45 1
    43   21   46 1
    44   22   23 2
    45   22   24 1
    46   24   28 1
    47   24   25 2
    48   25   26 1
    49   25   47 1
    50   26   27 2
    51   26   48 1
    52   27   28 1
    53   27   49 1
