@<TRIPOS>MOLECULE
ZINC02004584
   57    58     0     0     0
SMALL
USER_CHARGES

@<TRIPOS>ATOM
      1 C1         -0.2067    1.5669   -0.3181 C.3       1 <0>        -0.1502
      2 C2         -0.1345    0.0387   -0.3085 C.3       1 <0>        -0.1222
      3 C3         -1.5233   -0.5357   -0.0220 C.3       1 <0>        -0.1035
      4 C4         -1.4522   -2.0410   -0.0125 C.ar      1 <0>         0.0530
      5 C5         -1.6477   -2.7760   -1.1858 C.ar      1 <0>        -0.1894
      6 C6         -1.5736   -4.1712   -1.1378 C.ar      1 <0>         0.2086
      7 N1         -1.3237   -4.7986   -0.0092 N.ar      1 <0>        -0.4658
      8 C7         -1.1313   -4.1452    1.1291 C.ar      1 <0>         0.2443
      9 C8         -1.1837   -2.7382    1.1668 C.ar      1 <0>        -0.1596
     10 C9         -0.9633   -2.0134    2.4326 C.2       1 <0>         0.5318
     11 O1         -1.9126   -1.6601    3.1036 O.2       1 <0>        -0.4876
     12 O2          0.2908   -1.7431    2.8446 O.3       1 <0>        -0.3371
     13 C10         0.4300   -1.0381    4.0798 C.3       1 <0>         0.0615
     14 C11         1.9149   -0.8244    4.3804 C.3       1 <0>        -0.1231
     15 C12         2.0640   -0.0695    5.7028 C.3       1 <0>        -0.1505
     16 C13        -0.8534   -4.9018    2.3706 C.ar      1 <0>        -0.0678
     17 C14        -1.4981   -4.5584    3.5594 C.ar      1 <0>        -0.1044
     18 C15        -1.2347   -5.2676    4.7132 C.ar      1 <0>        -0.1182
     19 C16        -0.3331   -6.3168    4.6932 C.ar      1 <0>        -0.0993
     20 C17         0.3098   -6.6620    3.5176 C.ar      1 <0>        -0.1221
     21 C18         0.0500   -5.9649    2.3556 C.ar      1 <0>        -0.0691
     22 C19        -1.7838   -4.9690   -2.3989 C.3       1 <0>        -0.0878
     23 C20        -0.4408   -5.1734   -3.1029 C.3       1 <0>        -0.1482
     24 C21        -1.9296   -2.0863   -2.4613 C.2       1 <0>         0.4149
     25 O3         -1.0132   -1.7542   -3.1886 O.2       1 <0>        -0.4208
     26 S1         -3.5937   -1.7448   -2.9291 S.3       1 <0>        -0.1659
     27 C22        -3.4364   -0.9077   -4.5307 C.3       1 <0>        -0.0954
     28 C23        -4.8274   -0.5502   -5.0581 C.3       1 <0>        -0.1393
     29 H1          0.7827    1.9762   -0.5222 H         1 <0>         0.0620
     30 H2         -0.9015    1.8930   -1.0921 H         1 <0>         0.0565
     31 H3         -0.5528    1.9205    0.6531 H         1 <0>         0.0568
     32 H4          0.2116   -0.3148   -1.2797 H         1 <0>         0.0716
     33 H5          0.5603   -0.2874    0.4655 H         1 <0>         0.0711
     34 H6         -1.8695   -0.1822    0.9493 H         1 <0>         0.0895
     35 H7         -2.2181   -0.2097   -0.7960 H         1 <0>         0.0891
     36 H8         -0.0682   -0.0716    4.0046 H         1 <0>         0.0708
     37 H9         -0.0233   -1.6191    4.8829 H         1 <0>         0.0716
     38 H10         2.4132   -1.7909    4.4556 H         1 <0>         0.0752
     39 H11         2.3683   -0.2434    3.5773 H         1 <0>         0.0746
     40 H12         1.5658    0.8970    5.6277 H         1 <0>         0.0587
     41 H13         1.6107   -0.6505    6.5060 H         1 <0>         0.0590
     42 H14         3.1219    0.0827    5.9170 H         1 <0>         0.0668
     43 H15        -2.2015   -3.7391    3.5765 H         1 <0>         0.1335
     44 H16        -1.7330   -5.0028    5.6341 H         1 <0>         0.1292
     45 H17        -0.1300   -6.8687    5.5991 H         1 <0>         0.1280
     46 H18         1.0130   -7.4816    3.5086 H         1 <0>         0.1304
     47 H19         0.5486   -6.2386    1.4375 H         1 <0>         0.1306
     48 H20        -2.2138   -5.9386   -2.1480 H         1 <0>         0.0995
     49 H21        -2.4626   -4.4307   -3.0604 H         1 <0>         0.0841
     50 H22        -0.0108   -4.2037   -3.3538 H         1 <0>         0.0598
     51 H23         0.2379   -5.7117   -2.4414 H         1 <0>         0.0643
     52 H24        -0.5929   -5.7504   -4.0151 H         1 <0>         0.0707
     53 H25        -2.8491    0.0024   -4.4088 H         1 <0>         0.0948
     54 H26        -2.9383   -1.5696   -5.2392 H         1 <0>         0.0957
     55 H27        -5.4148   -1.4603   -5.1799 H         1 <0>         0.0691
     56 H28        -5.3256    0.1116   -4.3496 H         1 <0>         0.0686
     57 H29        -4.7329   -0.0473   -6.0205 H         1 <0>         0.0814
@<TRIPOS>BOND
     1    1    2 1
     2    1   29 1
     3    1   30 1
     4    1   31 1
     5    2    3 1
     6    2   32 1
     7    2   33 1
     8    3    4 1
     9    3   34 1
    10    3   35 1
    11    4    9 ar
    12    4    5 ar
    13    5    6 ar
    14    5   24 1
    15    6    7 ar
    16    6   22 1
    17    7    8 ar
    18    8    9 ar
    19    8   16 1
    20    9   10 1
    21   10   11 2
    22   10   12 1
    23   12   13 1
    24   13   14 1
    25   13   36 1
    26   13   37 1
    27   14   15 1
    28   14   38 1
    29   14   39 1
    30   15   40 1
    31   15   41 1
    32   15   42 1
    33   16   21 ar
    34   16   17 ar
    35   17   18 ar
    36   17   43 1
    37   18   19 ar
    38   18   44 1
    39   19   20 ar
    40   19   45 1
    41   20   21 ar
    42   20   46 1
    43   21   47 1
    44   22   23 1
    45   22   48 1
    46   22   49 1
    47   23   50 1
    48   23   51 1
    49   23   52 1
    50   24   25 2
    51   24   26 1
    52   26   27 1
    53   27   28 1
    54   27   53 1
    55   27   54 1
    56   28   55 1
    57   28   56 1
    58   28   57 1
@<TRIPOS>MOLECULE
ZINC03811810
   48    51     0     0     0
SMALL
USER_CHARGES

@<TRIPOS>ATOM
      1 C1         -0.0178    1.4608    0.0101 C.3       1 <0>         0.0858
      2 N1          0.0021   -0.0041    0.0020 N.am      1 <0>        -0.7308
      3 C2         -1.1558   -0.6938    0.0094 C.2       1 <0>         0.5149
      4 O1         -2.2142   -0.1017    0.0227 O.2       1 <0>        -0.5024
      5 C3         -1.1354   -2.2006    0.0011 C.3       1 <0>         0.0320
      6 H1         -0.5471   -2.5799    0.8366 H         1 <0>         0.1225
      7 C4         -0.5782   -2.7315   -1.3443 C.3       1 <0>         0.0506
      8 H2         -0.9118   -2.1105   -2.1757 H         1 <0>         0.0948
      9 C5         -1.2083   -4.1435   -1.4217 C.3       1 <0>         0.0832
     10 H3         -1.5347   -4.3603   -2.4388 H         1 <0>         0.0899
     11 C6         -2.4187   -4.0695   -0.4709 C.3       1 <0>         0.3144
     12 H4         -2.2882   -4.7738    0.3507 H         1 <0>         0.1316
     13 O2         -2.4789   -2.7275    0.0446 O.3       1 <0>        -0.3270
     14 N2         -3.6479   -4.3821   -1.2041 N.pl3     1 <0>        -0.4753
     15 C7         -4.4978   -3.4819   -1.7747 C.2       1 <0>         0.2660
     16 N3         -5.4881   -4.1049   -2.3448 N.2       1 <0>        -0.4586
     17 C8         -5.3371   -5.4406   -2.1768 C.ar      1 <0>        -0.1040
     18 C9         -4.1517   -5.6348   -1.4476 C.ar      1 <0>         0.3101
     19 N4         -3.7707   -6.8732   -1.1522 N.ar      1 <0>        -0.5538
     20 C10        -4.4895   -7.9064   -1.5380 C.ar      1 <0>         0.3661
     21 N5         -5.6079   -7.7739   -2.2273 N.ar      1 <0>        -0.5871
     22 C11        -6.0726   -6.5743   -2.5614 C.ar      1 <0>         0.5073
     23 N6         -7.2452   -6.4456   -3.2850 N.pl3     1 <0>        -0.6904
     24 C12        -7.9987   -7.6392   -3.6772 C.3       1 <0>         0.1703
     25 C13        -9.2253   -7.2276   -4.4499 C.ar      1 <0>        -0.1092
     26 C14       -10.4099   -6.9750   -3.7831 C.ar      1 <0>        -0.0788
     27 C15       -11.5351   -6.5975   -4.4915 C.ar      1 <0>        -0.1155
     28 C16       -11.4764   -6.4722   -5.8670 C.ar      1 <0>        -0.0754
     29 C17       -10.2918   -6.7247   -6.5341 C.ar      1 <0>        -0.1026
     30 C18        -9.1645   -7.0970   -5.8244 C.ar      1 <0>        -0.0641
     31 I1        -10.2026   -6.5356   -8.6187 I         1 <0>        -0.0379
     32 O3         -0.2777   -5.1316   -0.9750 O.3       1 <0>        -0.5314
     33 O4          0.8483   -2.8101   -1.3100 O.3       1 <0>        -0.5362
     34 H5          1.0048    1.8381    0.0023 H         1 <0>         0.0830
     35 H6         -0.5450    1.8219   -0.8730 H         1 <0>         0.0653
     36 H7         -0.5280    1.8123    0.9069 H         1 <0>         0.0657
     37 H8          0.8486   -0.4776   -0.0086 H         1 <0>         0.3996
     38 H9         -4.3686   -2.4098   -1.7561 H         1 <0>         0.2242
     39 H10        -4.1517   -8.8996   -1.2813 H         1 <0>         0.2060
     40 H11        -7.5682   -5.5651   -3.5326 H         1 <0>         0.4195
     41 H12        -7.3721   -8.2754   -4.3023 H         1 <0>         0.0825
     42 H13        -8.2988   -8.1888   -2.7851 H         1 <0>         0.0840
     43 H14       -10.4561   -7.0732   -2.7086 H         1 <0>         0.1321
     44 H15       -12.4604   -6.4006   -3.9704 H         1 <0>         0.1349
     45 H16       -12.3557   -6.1775   -6.4205 H         1 <0>         0.1316
     46 H17        -8.2379   -7.2896   -6.3447 H         1 <0>         0.1313
     47 H18         0.5294   -5.1801   -1.5054 H         1 <0>         0.3970
     48 H19         1.2858   -1.9588   -1.1720 H         1 <0>         0.3844
@<TRIPOS>BOND
     1    1    2 1
     2    1   34 1
     3    1   35 1
     4    1   36 1
     5    2    3 am
     6    2   37 1
     7    3    4 2
     8    3    5 1
     9    5    6 1
    10    5   13 1
    11    5    7 1
    12    7    8 1
    13    7    9 1
    14    7   33 1
    15    9   10 1
    16    9   11 1
    17    9   32 1
    18   11   12 1
    19   11   13 1
    20   11   14 1
    21   14   18 1
    22   14   15 1
    23   15   16 2
    24   15   38 1
    25   16   17 1
    26   17   22 ar
    27   17   18 ar
    28   18   19 ar
    29   19   20 ar
    30   20   21 ar
    31   20   39 1
    32   21   22 ar
    33   22   23 1
    34   23   24 1
    35   23   40 1
    36   24   25 1
    37   24   41 1
    38   24   42 1
    39   25   30 ar
    40   25   26 ar
    41   26   27 ar
    42   26   43 1
    43   27   28 ar
    44   27   44 1
    45   28   29 ar
    46   28   45 1
    47   29   30 ar
    48   29   31 1
    49   30   46 1
    50   32   47 1
    51   33   48 1
@<TRIPOS>MOLECULE
ZINC03977757
   46    48     0     0     0
SMALL
USER_CHARGES

@<TRIPOS>ATOM
      1 C1         -0.0187    1.5258    0.0104 C.3       1 <0>        -0.1472
      2 C2          0.0021   -0.0041    0.0020 C.3       1 <0>        -0.1381
      3 C3          0.7182   -0.4975   -1.2568 C.3       1 <0>         0.1189
      4 N1          0.7381   -1.9623   -1.2648 N.am      1 <0>        -0.5078
      5 C4         -0.2978   -2.6649   -1.8590 C.2       1 <0>         0.3255
      6 C5         -0.2556   -4.0535   -1.8540 C.2       1 <0>        -0.1555
      7 C6          0.8381   -4.7062   -1.2456 C.2       1 <0>         0.5940
      8 O1          0.8979   -5.9226   -1.2287 O.2       1 <0>        -0.5124
      9 N2          1.8167   -3.9668   -0.6832 N.am      1 <0>        -0.5486
     10 C7          1.7657   -2.6237   -0.6997 C.2       1 <0>         0.7072
     11 O2          2.6683   -1.9900   -0.1875 O.2       1 <0>        -0.5292
     12 C8          2.9547   -4.6379   -0.0500 C.3       1 <0>         0.1138
     13 C9          4.0598   -4.8545   -1.0857 C.3       1 <0>        -0.1378
     14 C10         5.2482   -5.5554   -0.4244 C.3       1 <0>        -0.1473
     15 N3         -1.3974   -4.4770   -2.5042 N.pl3     1 <0>        -0.5132
     16 C11        -2.0744   -3.3715   -2.8713 C.2       1 <0>         0.3078
     17 N4         -1.4199   -2.3052   -2.4875 N.2       1 <0>        -0.4912
     18 H1         -1.6621   -5.3960   -2.6660 H         1 <0>         0.4346
     19 C12        -3.3868   -3.3639   -3.6120 C.3       1 <0>        -0.0167
     20 C13        -4.2245   -4.5971   -3.2154 C.3       1 <0>        -0.1246
     21 C14        -4.9262   -5.0185   -4.5304 C.3       1 <0>        -0.1243
     22 C15        -3.8330   -4.7644   -5.5978 C.3       1 <0>        -0.1288
     23 C16        -3.1379   -3.4703   -5.1267 C.3       1 <0>        -0.1169
     24 H2          1.0039    1.9031    0.0027 H         1 <0>         0.0589
     25 H3         -0.5459    1.8868   -0.8726 H         1 <0>         0.0589
     26 H4         -0.5289    1.8773    0.9072 H         1 <0>         0.0608
     27 H5          0.5293   -0.3651    0.8851 H         1 <0>         0.0678
     28 H6         -1.0205   -0.3814    0.0098 H         1 <0>         0.0678
     29 H7          0.1910   -0.1364   -2.1398 H         1 <0>         0.0985
     30 H8          1.7408   -0.1202   -1.2645 H         1 <0>         0.1003
     31 H9          3.3348   -4.0193    0.7630 H         1 <0>         0.1032
     32 H10         2.6339   -5.6014    0.3460 H         1 <0>         0.1014
     33 H11         3.6796   -5.4731   -1.8987 H         1 <0>         0.0670
     34 H12         4.3806   -3.8910   -1.4817 H         1 <0>         0.0693
     35 H13         6.0355   -5.7097   -1.1623 H         1 <0>         0.0615
     36 H14         5.6284   -4.9368    0.3886 H         1 <0>         0.0599
     37 H15         4.9274   -6.5189   -0.0284 H         1 <0>         0.0589
     38 H16        -3.9368   -2.4501   -3.3872 H         1 <0>         0.1178
     39 H17        -3.5783   -5.3972   -2.8545 H         1 <0>         0.0623
     40 H18        -4.9618   -4.3300   -2.4582 H         1 <0>         0.0823
     41 H19        -5.2000   -6.0732   -4.5013 H         1 <0>         0.0738
     42 H20        -5.8012   -4.3962   -4.7179 H         1 <0>         0.0762
     43 H21        -3.1235   -5.5916   -5.6216 H         1 <0>         0.0665
     44 H22        -4.2844   -4.6194   -6.5792 H         1 <0>         0.0743
     45 H23        -3.5678   -2.6085   -5.6372 H         1 <0>         0.0823
     46 H24        -2.0678   -3.5274   -5.3261 H         1 <0>         0.0684
@<TRIPOS>BOND
     1    1    2 1
     2    1   24 1
     3    1   25 1
     4    1   26 1
     5    2    3 1
     6    2   27 1
     7    2   28 1
     8    3   29 1
     9    3   30 1
    10    3    4 1
    11    4    5 1
    12    4   10 am
    13    5   17 1
    14    5    6 2
    15    6    7 1
    16    6   15 1
    17    7    9 am
    18    7    8 2
    19    9   10 am
    20    9   12 1
    21   10   11 2
    22   12   13 1
    23   12   31 1
    24   12   32 1
    25   13   14 1
    26   13   33 1
    27   13   34 1
    28   14   35 1
    29   14   36 1
    30   14   37 1
    31   15   18 1
    32   15   16 1
    33   16   19 1
    34   16   17 2
    35   19   23 1
    36   19   20 1
    37   19   38 1
    38   20   21 1
    39   20   39 1
    40   20   40 1
    41   21   22 1
    42   21   41 1
    43   21   42 1
    44   22   23 1
    45   22   43 1
    46   22   44 1
    47   23   45 1
    48   23   46 1
@<TRIPOS>MOLECULE
ZINC03995845
   48    51     0     0     0
SMALL
USER_CHARGES
5-[2-chloro-6-[(3-iodophenyl)methylamino]purin-9-yl]-3,4-dihydroxy-N-methyl-tetrahydrofuran-2-carboxamide
@<TRIPOS>ATOM
      1 C1         -3.5156   -0.8102    1.9233 C.3       1 <0>         0.0861
      2 N1         -2.6417    0.1999    1.3215 N.am      1 <0>        -0.7300
      3 C2         -1.5096    0.5727    1.9507 C.2       1 <0>         0.5159
      4 O1         -1.2144    0.0718    3.0151 O.2       1 <0>        -0.5022
      5 C3         -0.6107    1.6118    1.3317 C.3       1 <0>         0.0319
      6 H1         -1.1613    2.5364    1.1584 H         1 <0>         0.1217
      7 C4         -0.0127    1.0858    0.0080 C.3       1 <0>         0.0511
      8 H2          0.0021   -0.0041    0.0020 H         1 <0>         0.0923
      9 C5          1.4269    1.6468   -0.0027 C.3       1 <0>         0.0805
     10 H3          2.1534    0.8343   -0.0140 H         1 <0>         0.0905
     11 C6          1.5284    2.4454    1.3158 C.3       1 <0>         0.3123
     12 H4          1.3078    3.4982    1.1397 H         1 <0>         0.1301
     13 O2          0.5316    1.8583    2.1804 O.3       1 <0>        -0.3264
     14 N2          2.8630    2.2959    1.9011 N.pl3     1 <0>        -0.4705
     15 C7          3.2280    1.3965    2.8585 C.2       1 <0>         0.2840
     16 N3          4.4896    1.5386    3.1441 N.2       1 <0>        -0.4479
     17 C8          5.0109    2.5415    2.3970 C.ar      1 <0>        -0.0590
     18 C9          3.9735    3.0393    1.5906 C.ar      1 <0>         0.3145
     19 N4          4.2284    4.0408    0.7548 N.ar      1 <0>        -0.5110
     20 C10         5.4360    4.5628    0.6810 C.ar      1 <0>         0.4116
     21 N5          6.4423    4.1279    1.4192 N.ar      1 <0>        -0.5534
     22 C11         6.2816    3.1303    2.2825 C.ar      1 <0>         0.4581
     23 N6          7.3414    2.6815    3.0508 N.pl3     1 <0>        -0.5899
     24 C12         8.6593    3.3075    2.9179 C.3       1 <0>         0.1056
     25 C13         9.6298    2.6396    3.8576 C.ar      1 <0>        -0.0890
     26 C14        10.3623    1.5466    3.4327 C.ar      1 <0>        -0.0720
     27 C15        11.2531    0.9343    4.2939 C.ar      1 <0>        -0.1148
     28 C16        11.4113    1.4139    5.5808 C.ar      1 <0>        -0.0782
     29 C17        10.6786    2.5066    6.0062 C.ar      1 <0>        -0.0999
     30 C18         9.7917    3.1230    5.1421 C.ar      1 <0>        -0.0750
     31 I1         10.9181    3.2339    7.9562 I         1 <0>        -0.0401
     32 Cl1         5.7156    5.8697   -0.4269 Cl        1 <0>         0.0391
     33 O3          1.6201    2.5086   -1.1262 O.3       1 <0>        -0.5236
     34 O4         -0.7516    1.5814   -1.1102 O.3       1 <0>        -0.5325
     35 H5         -2.9634   -1.7420    2.0457 H         1 <0>         0.0652
     36 H6         -3.8585   -0.4605    2.8971 H         1 <0>         0.0657
     37 H7         -4.3752   -0.9798    1.2749 H         1 <0>         0.0828
     38 H8         -2.8779    0.6005    0.4703 H         1 <0>         0.4001
     39 H9          2.5679    0.6715    3.3114 H         1 <0>         0.2324
     40 H10         7.1195    2.7889    4.0199 H         1 <0>         0.3725
     41 H11         9.0121    3.1974    1.8925 H         1 <0>         0.0987
     42 H12         8.5850    4.3666    3.1648 H         1 <0>         0.0697
     43 H13        10.2386    1.1715    2.4275 H         1 <0>         0.1318
     44 H14        11.8255    0.0808    3.9616 H         1 <0>         0.1339
     45 H15        12.1075    0.9354    6.2537 H         1 <0>         0.1305
     46 H16         9.2225    3.9793    5.4726 H         1 <0>         0.1288
     47 H17         1.5077    2.0712   -1.9813 H         1 <0>         0.3936
     48 H18        -1.6713    1.2840   -1.1370 H         1 <0>         0.3843
@<TRIPOS>BOND
     1    1    2 1
     2    1   35 1
     3    1   36 1
     4    1   37 1
     5    2    3 am
     6    2   38 1
     7    3    4 2
     8    3    5 1
     9    5    6 1
    10    5   13 1
    11    5    7 1
    12    7    8 1
    13    7    9 1
    14    7   34 1
    15    9   10 1
    16    9   11 1
    17    9   33 1
    18   11   12 1
    19   11   13 1
    20   11   14 1
    21   14   18 1
    22   14   15 1
    23   15   16 2
    24   15   39 1
    25   16   17 1
    26   17   22 ar
    27   17   18 ar
    28   18   19 ar
    29   19   20 ar
    30   20   21 ar
    31   20   32 1
    32   21   22 ar
    33   22   23 1
    34   23   24 1
    35   23   40 1
    36   24   25 1
    37   24   41 1
    38   24   42 1
    39   25   30 ar
    40   25   26 ar
    41   26   27 ar
    42   26   43 1
    43   27   28 ar
    44   27   44 1
    45   28   29 ar
    46   28   45 1
    47   29   30 ar
    48   29   31 1
    49   30   46 1
    50   33   47 1
    51   34   48 1
@<TRIPOS>MOLECULE
ZINC18043251
   21    22     0     0     0
SMALL
USER_CHARGES

@<TRIPOS>ATOM
      1 C1         -0.0178    1.4608    0.0101 C.3       1 <0>         0.0852
      2 N1          0.0021   -0.0041    0.0020 N.am      1 <0>        -0.5114
      3 C2         -1.1889   -0.7120    0.0039 C.2       1 <0>         0.3216
      4 C3         -1.1437   -2.1005   -0.0039 C.2       1 <0>        -0.1538
      5 C4          0.1107   -2.7476   -0.0134 C.2       1 <0>         0.5936
      6 O1          0.1765   -3.9638   -0.0207 O.2       1 <0>        -0.5134
      7 N2          1.2361   -2.0032   -0.0148 N.am      1 <0>        -0.5513
      8 C5          1.1776   -0.6603   -0.0127 C.2       1 <0>         0.7076
      9 O2          2.2126   -0.0219   -0.0196 O.2       1 <0>        -0.5305
     10 C6          2.5413   -2.6685   -0.0246 C.3       1 <0>         0.0826
     11 N3         -2.4557   -2.5297    0.0001 N.pl3     1 <0>        -0.5179
     12 H1         -2.7618   -3.4502   -0.0030 H         1 <0>         0.4389
     13 C7         -3.2306   -1.4275    0.0098 C.2       1 <0>         0.2785
     14 N4         -2.4766   -0.3579    0.0120 N.2       1 <0>        -0.4991
     15 H2          1.0048    1.8381    0.0023 H         1 <0>         0.1033
     16 H3         -0.5450    1.8219   -0.8730 H         1 <0>         0.0800
     17 H4         -0.5280    1.8123    0.9069 H         1 <0>         0.0801
     18 H5          2.3982   -3.7491   -0.0298 H         1 <0>         0.1039
     19 H6          3.0941   -2.3709   -0.9157 H         1 <0>         0.0832
     20 H7          3.1026   -2.3806    0.8643 H         1 <0>         0.0832
     21 H8         -4.3106   -1.4268    0.0144 H         1 <0>         0.2358
@<TRIPOS>BOND
     1    1    2 1
     2    1   15 1
     3    1   16 1
     4    1   17 1
     5    2    8 am
     6    2    3 1
     7    3   14 1
     8    3    4 2
     9    4    5 1
    10    4   11 1
    11    5    6 2
    12    5    7 am
    13    7    8 am
    14    7   10 1
    15    8    9 2
    16   10   18 1
    17   10   19 1
    18   10   20 1
    19   11   12 1
    20   11   13 1
    21   13   14 2
    22   13   21 1
@<TRIPOS>MOLECULE
ZINC26578175
   65    68     0     0     0
SMALL
USER_CHARGES

@<TRIPOS>ATOM
      1 C1         -2.1361   -1.2921   -0.4275 C.3       1 <0>        -0.1513
      2 C2         -0.6086   -1.2502   -0.3502 C.3       1 <0>         0.0571
      3 O1         -0.1797   -1.7975    0.8982 O.3       1 <0>        -0.3471
      4 C3          1.1499   -1.8344    1.1265 C.2       1 <0>         0.5382
      5 O2          1.9233   -1.4128    0.2870 O.2       1 <0>        -0.4929
      6 C4          1.6442   -2.3630    2.3412 C.2       1 <0>        -0.2383
      7 C5          1.7411   -3.6955    2.4834 C.2       1 <0>         0.2012
      8 N1          2.2059   -4.2481    3.6446 N.pl3     1 <0>        -0.6268
      9 C6          2.2411   -3.5013    4.8012 C.2       1 <0>         0.2494
     10 C7          2.1638   -2.1451    4.7495 C.2       1 <0>        -0.2279
     11 C8          2.0530   -1.4202    3.4363 C.3       1 <0>         0.1773
     12 H1          3.0159   -0.9752    3.1855 H         1 <0>         0.1112
     13 C9          1.0453   -0.3542    3.5589 C.1       1 <0>        -0.1688
     14 C10         0.2416    0.4959    3.6566 C.1       1 <0>        -0.1111
     15 C11        -0.7387    1.5330    3.7757 C.ar      1 <0>         0.0137
     16 C12        -1.8569    1.5393    2.9411 C.ar      1 <0>        -0.0970
     17 C13        -2.7981    2.5411    3.0613 C.ar      1 <0>        -0.1185
     18 C14        -2.6349    3.5377    4.0068 C.ar      1 <0>        -0.1087
     19 C15        -1.5285    3.5371    4.8374 C.ar      1 <0>        -0.1184
     20 C16        -0.5828    2.5381    4.7309 C.ar      1 <0>        -0.0921
     21 C17         2.1929   -1.4053    5.9477 C.2       1 <0>         0.5467
     22 O3          3.1925   -0.7812    6.2537 O.2       1 <0>        -0.4934
     23 O4          1.1122   -1.3882    6.7571 O.3       1 <0>        -0.3357
     24 C18         1.1704   -0.5309    7.8989 C.3       1 <0>         0.0981
     25 C19        -0.0687   -0.7230    8.7349 C.ar      1 <0>        -0.0420
     26 C20        -1.2216   -0.0226    8.4328 C.ar      1 <0>        -0.0902
     27 C21        -2.3582   -0.1988    9.1996 C.ar      1 <0>        -0.0553
     28 C22        -2.3420   -1.0756   10.2682 C.ar      1 <0>        -0.0403
     29 C23        -1.1894   -1.7766   10.5697 C.ar      1 <0>        -0.0564
     30 C24        -0.0541   -1.6037    9.8003 C.ar      1 <0>        -0.0932
     31 N2         -3.5588   -1.2635   11.0899 N.pl3     1 <0>         0.0312
     32 O5         -4.5668   -0.6501   10.8264 O.2       1 <0>        -0.1541
     33 O6         -3.5447   -2.0303   12.0244 O.3       1 <0>        -0.1546
     34 C25         2.3635   -4.1790    6.1076 C.ar      1 <0>        -0.0854
     35 C26         1.5276   -5.2528    6.4219 C.ar      1 <0>        -0.0853
     36 C27         1.6473   -5.8811    7.6439 C.ar      1 <0>        -0.1170
     37 C28         2.5929   -5.4499    8.5576 C.ar      1 <0>        -0.0972
     38 C29         3.4243   -4.3866    8.2528 C.ar      1 <0>        -0.1159
     39 C30         3.3195   -3.7527    7.0323 C.ar      1 <0>        -0.0943
     40 C31         1.3308   -4.5949    1.3460 C.3       1 <0>        -0.1355
     41 H2         -2.5574   -0.7067    0.3898 H         1 <0>         0.0661
     42 H3         -2.4633   -0.8746   -1.3797 H         1 <0>         0.0802
     43 H4         -2.4758   -2.3247   -0.3476 H         1 <0>         0.0663
     44 H5         -0.1873   -1.8355   -1.1674 H         1 <0>         0.0681
     45 H6         -0.2689   -0.2176   -0.4301 H         1 <0>         0.0674
     46 H7          2.5113   -5.1687    3.6538 H         1 <0>         0.4234
     47 H8         -1.9852    0.7621    2.2023 H         1 <0>         0.1252
     48 H9         -3.6638    2.5474    2.4156 H         1 <0>         0.1284
     49 H10        -3.3743    4.3198    4.0967 H         1 <0>         0.1266
     50 H11        -1.4070    4.3179    5.5735 H         1 <0>         0.1286
     51 H12         0.2782    2.5362    5.3829 H         1 <0>         0.1266
     52 H13         2.0509   -0.7760    8.4928 H         1 <0>         0.0869
     53 H14         1.2304    0.5070    7.5713 H         1 <0>         0.0856
     54 H15        -1.2343    0.6624    7.5980 H         1 <0>         0.1491
     55 H16        -3.2588    0.3489    8.9641 H         1 <0>         0.1572
     56 H17        -1.1766   -2.4613   11.4048 H         1 <0>         0.1571
     57 H18         0.8454   -2.1541   10.0335 H         1 <0>         0.1487
     58 H19         0.7889   -5.5902    5.7098 H         1 <0>         0.1279
     59 H20         1.0013   -6.7114    7.8884 H         1 <0>         0.1311
     60 H21         2.6821   -5.9452    9.5131 H         1 <0>         0.1297
     61 H22         4.1601   -4.0552    8.9706 H         1 <0>         0.1315
     62 H23         3.9723   -2.9261    6.7938 H         1 <0>         0.1344
     63 H24         2.1951   -4.7982    0.7136 H         1 <0>         0.0947
     64 H25         0.9443   -5.5326    1.7454 H         1 <0>         0.0885
     65 H26         0.5564   -4.1045    0.7562 H         1 <0>         0.0917
@<TRIPOS>BOND
     1    1    2 1
     2    1   41 1
     3    1   42 1
     4    1   43 1
     5    2    3 1
     6    2   44 1
     7    2   45 1
     8    3    4 1
     9    4    5 2
    10    4    6 1
    11    6   11 1
    12    6    7 2
    13    7    8 1
    14    7   40 1
    15    8    9 1
    16    8   46 1
    17    9   10 2
    18    9   34 1
    19   10   11 1
    20   10   21 1
    21   11   12 1
    22   11   13 1
    23   13   14 3
    24   14   15 1
    25   15   20 ar
    26   15   16 ar
    27   16   17 ar
    28   16   47 1
    29   17   18 ar
    30   17   48 1
    31   18   19 ar
    32   18   49 1
    33   19   20 ar
    34   19   50 1
    35   20   51 1
    36   21   22 2
    37   21   23 1
    38   23   24 1
    39   24   25 1
    40   24   52 1
    41   24   53 1
    42   25   30 ar
    43   25   26 ar
    44   26   27 ar
    45   26   54 1
    46   27   28 ar
    47   27   55 1
    48   28   29 ar
    49   28   31 1
    50   29   30 ar
    51   29   56 1
    52   30   57 1
    53   31   32 2
    54   31   33 1
    55   34   39 ar
    56   34   35 ar
    57   35   36 ar
    58   35   58 1
    59   36   37 ar
    60   36   59 1
    61   37   38 ar
    62   37   60 1
    63   38   39 ar
    64   38   61 1
    65   39   62 1
    66   40   63 1
    67   40   64 1
    68   40   65 1
@<TRIPOS>MOLECULE
ZINC26578175
   64    67     0     0     0
SMALL
USER_CHARGES

@<TRIPOS>ATOM
      1 C1          0.0022    1.3477    1.2102 C.3       1 <0>        -0.1494
      2 C2          0.0134   -0.1477    0.8867 C.3       1 <0>         0.0605
      3 O1         -1.3280   -0.6059    0.7060 O.3       1 <0>        -0.3312
      4 C3         -1.4946   -1.9109    0.4130 C.2       1 <0>         0.4746
      5 C4         -2.7605   -2.4183    0.2262 C.2       1 <0>        -0.3869
      6 C5         -2.9770   -3.8518   -0.2237 C.3       1 <0>         0.1949
      7 H1         -2.4679   -3.9896   -1.1776 H         1 <0>         0.0600
      8 C6         -4.4226   -4.2835   -0.3912 C.2       1 <0>        -0.3655
      9 C7         -5.4059   -3.3411   -0.1217 C.2       1 <0>         0.3206
     10 N1         -5.1076   -2.1017    0.2698 N.2       1 <0>        -0.6300
     11 C8         -3.8957   -1.6359    0.4487 C.2       1 <0>         0.2951
     12 C9         -3.7216   -0.2095    0.9027 C.3       1 <0>        -0.1037
     13 C10        -6.8281   -3.7234   -0.2739 C.ar      1 <0>        -0.0170
     14 C11        -7.3589   -4.7648    0.4880 C.ar      1 <0>        -0.0449
     15 C12        -8.6850   -5.1163    0.3414 C.ar      1 <0>        -0.1314
     16 C13        -9.4880   -4.4386   -0.5587 C.ar      1 <0>        -0.1221
     17 C14        -8.9674   -3.4053   -1.3174 C.ar      1 <0>        -0.1338
     18 C15        -7.6445   -3.0401   -1.1756 C.ar      1 <0>        -0.0891
     19 C16        -4.7517   -5.5821   -0.8023 C.2       1 <0>         0.5268
     20 O2         -5.9140   -5.8761   -1.0199 O.2       1 <0>        -0.5403
     21 O3         -3.7802   -6.5083   -0.9574 O.3       1 <0>        -0.3463
     22 C17        -4.1876   -7.8116   -1.3788 C.3       1 <0>         0.1016
     23 C18        -2.9779   -8.7025   -1.4964 C.ar      1 <0>        -0.0285
     24 C19        -2.2887   -8.7780   -2.6924 C.ar      1 <0>        -0.0950
     25 C20        -1.1791   -9.5953   -2.8003 C.ar      1 <0>        -0.0558
     26 C21        -0.7583  -10.3367   -1.7121 C.ar      1 <0>        -0.0470
     27 C22        -1.4469  -10.2605   -0.5159 C.ar      1 <0>        -0.0543
     28 C23        -2.5540   -9.4400   -0.4068 C.ar      1 <0>        -0.0985
     29 N2          0.4293  -11.2125   -1.8280 N.pl3     1 <0>         0.0364
     30 O4          1.0314  -11.2794   -2.8743 O.2       1 <0>        -0.1625
     31 O5          0.7974  -11.8610   -0.8763 O.3       1 <0>        -0.1603
     32 C24        -2.3466   -4.7434    0.7635 C.1       1 <0>        -0.0530
     33 C25        -1.8438   -5.4545    1.5508 C.1       1 <0>        -0.2276
     34 C26        -1.2306   -6.3218    2.5111 C.ar      1 <0>         0.0649
     35 C27        -0.5846   -5.7871    3.6263 C.ar      1 <0>        -0.1076
     36 C28         0.0039   -6.6283    4.5481 C.ar      1 <0>        -0.1176
     37 C29        -0.0455   -7.9991    4.3686 C.ar      1 <0>        -0.1317
     38 C30        -0.6844   -8.5356    3.2650 C.ar      1 <0>        -0.1197
     39 C31        -1.2815   -7.7056    2.3386 C.ar      1 <0>        -0.1170
     40 O6         -0.4216   -2.7192    0.3029 O.3       1 <0>        -0.6329
     41 H2          1.0254    1.6972    1.3481 H         1 <0>         0.0702
     42 H3         -0.4606    1.8938    0.3882 H         1 <0>         0.0625
     43 H4         -0.5660    1.5174    2.1247 H         1 <0>         0.0623
     44 H5          0.5816   -0.3174   -0.0278 H         1 <0>         0.0593
     45 H6          0.4762   -0.6938    1.7087 H         1 <0>         0.0586
     46 H7         -3.1904    0.3537    0.1354 H         1 <0>         0.0820
     47 H8         -4.7001    0.2401    1.0714 H         1 <0>         0.0652
     48 H9         -3.1484   -0.1906    1.8296 H         1 <0>         0.0777
     49 H10        -6.7330   -5.2948    1.1906 H         1 <0>         0.1082
     50 H11        -9.0970   -5.9225    0.9303 H         1 <0>         0.1131
     51 H12       -10.5254   -4.7175   -0.6697 H         1 <0>         0.1118
     52 H13        -9.5992   -2.8803   -2.0185 H         1 <0>         0.1146
     53 H14        -7.2407   -2.2299   -1.7647 H         1 <0>         0.1173
     54 H15        -4.8778   -8.2309   -0.6468 H         1 <0>         0.0768
     55 H16        -4.6831   -7.7420   -2.3471 H         1 <0>         0.0779
     56 H17        -2.6175   -8.1987   -3.5425 H         1 <0>         0.1496
     57 H18        -0.6411   -9.6548   -3.7349 H         1 <0>         0.1545
     58 H19        -1.1183  -10.8401    0.3341 H         1 <0>         0.1545
     59 H20        -3.0898   -9.3776    0.5289 H         1 <0>         0.1490
     60 H21        -0.5450   -4.7171    3.7674 H         1 <0>         0.1214
     61 H22         0.5046   -6.2156    5.4116 H         1 <0>         0.1205
     62 H23         0.4170   -8.6533    5.0928 H         1 <0>         0.1185
     63 H24        -0.7196   -9.6066    3.1305 H         1 <0>         0.1200
     64 H25        -1.7839   -8.1258    1.4799 H         1 <0>         0.1197
@<TRIPOS>BOND
     1    1    2 1
     2    1   41 1
     3    1   42 1
     4    1   43 1
     5    2    3 1
     6    2   44 1
     7    2   45 1
     8    3    4 1
     9    4    5 2
    10    4   40 1
    11    5   11 1
    12    5    6 1
    13    6    7 1
    14    6    8 1
    15    6   32 1
    16    8    9 2
    17    8   19 1
    18    9   10 1
    19    9   13 1
    20   10   11 2
    21   11   12 1
    22   12   46 1
    23   12   47 1
    24   12   48 1
    25   13   18 ar
    26   13   14 ar
    27   14   15 ar
    28   14   49 1
    29   15   16 ar
    30   15   50 1
    31   16   17 ar
    32   16   51 1
    33   17   18 ar
    34   17   52 1
    35   18   53 1
    36   19   20 2
    37   19   21 1
    38   21   22 1
    39   22   23 1
    40   22   54 1
    41   22   55 1
    42   23   28 ar
    43   23   24 ar
    44   24   25 ar
    45   24   56 1
    46   25   26 ar
    47   25   57 1
    48   26   27 ar
    49   26   29 1
    50   27   28 ar
    51   27   58 1
    52   28   59 1
    53   29   30 2
    54   29   31 1
    55   32   33 3
    56   33   34 1
    57   34   39 ar
    58   34   35 ar
    59   35   36 ar
    60   35   60 1
    61   36   37 ar
    62   36   61 1
    63   37   38 ar
    64   37   62 1
    65   38   39 ar
    66   38   63 1
    67   39   64 1
@<TRIPOS>MOLECULE
ZINC26578176
   65    68     0     0     0
SMALL
USER_CHARGES

@<TRIPOS>ATOM
      1 C1          3.2558   -1.1838   -2.1548 C.3       1 <0>        -0.1518
      2 C2          2.0260   -1.4741   -1.2922 C.3       1 <0>         0.0566
      3 O1          2.4435   -1.8449    0.0231 O.3       1 <0>        -0.3445
      4 C3          1.4731   -2.1355    0.9149 C.2       1 <0>         0.5355
      5 O2          0.3039   -2.0752    0.5830 O.2       1 <0>        -0.4951
      6 C4          1.8150   -2.5101    2.2347 C.2       1 <0>        -0.2324
      7 C5          2.2414   -3.7624    2.4697 C.2       1 <0>         0.1961
      8 N1          2.5739   -4.1680    3.7325 N.pl3     1 <0>        -0.6225
      9 C6          2.1476   -3.4474    4.8260 C.2       1 <0>         0.2972
     10 C7          1.7131   -2.1674    4.6821 C.2       1 <0>        -0.2481
     11 C8          1.6978   -1.4961    3.3362 C.3       1 <0>         0.1666
     12 H1          0.7621   -0.9488    3.2217 H         1 <0>         0.1079
     13 C9          2.8237   -0.5520    3.2471 C.1       1 <0>        -0.1438
     14 C10         3.7216    0.2009    3.1761 C.1       1 <0>        -0.1291
     15 C11         4.8169    1.1193    3.0894 C.ar      1 <0>         0.0201
     16 C12         5.7709    0.9789    2.0808 C.ar      1 <0>        -0.0984
     17 C13         6.8235    1.8673    2.0026 C.ar      1 <0>        -0.1184
     18 C14         6.9344    2.8957    2.9213 C.ar      1 <0>        -0.1122
     19 C15         5.9919    3.0404    3.9237 C.ar      1 <0>        -0.1177
     20 C16         4.9316    2.1618    4.0098 C.ar      1 <0>        -0.0964
     21 C17         1.2738   -1.4554    5.8152 C.2       1 <0>         0.5233
     22 O3          1.1738   -2.0212    6.8886 O.2       1 <0>        -0.4995
     23 O4          0.9637   -0.1454    5.7111 O.3       1 <0>        -0.3417
     24 C18         0.5250    0.5140    6.9005 C.3       1 <0>         0.1044
     25 C19         0.2268    1.9589    6.5931 C.ar      1 <0>        -0.0435
     26 C20         1.2243    2.9093    6.7043 C.ar      1 <0>        -0.0922
     27 C21         0.9507    4.2347    6.4223 C.ar      1 <0>        -0.0558
     28 C22        -0.3203    4.6094    6.0286 C.ar      1 <0>        -0.0405
     29 C23        -1.3176    3.6588    5.9164 C.ar      1 <0>        -0.0562
     30 C24        -1.0429    2.3328    6.1943 C.ar      1 <0>        -0.0934
     31 N2         -0.6134    6.0287    5.7275 N.pl3     1 <0>         0.0311
     32 O5          0.2587    6.8602    5.8260 O.2       1 <0>        -0.1544
     33 O6         -1.7250    6.3565    5.3832 O.3       1 <0>        -0.1545
     34 C25         2.1622   -4.0701    6.1650 C.ar      1 <0>        -0.0714
     35 C26         1.3368   -5.1627    6.4395 C.ar      1 <0>        -0.0881
     36 C27         1.3556   -5.7394    7.6924 C.ar      1 <0>        -0.1222
     37 C28         2.1896   -5.2378    8.6761 C.ar      1 <0>        -0.0975
     38 C29         3.0100   -4.1555    8.4110 C.ar      1 <0>        -0.1197
     39 C30         3.0057   -3.5726    7.1608 C.ar      1 <0>        -0.0471
     40 C31         2.3546   -4.7350    1.3241 C.3       1 <0>        -0.1340
     41 H2          3.8798   -2.0759   -2.2097 H         1 <0>         0.0666
     42 H3          2.9373   -0.9009   -3.1582 H         1 <0>         0.0806
     43 H4          3.8265   -0.3680   -1.7112 H         1 <0>         0.0665
     44 H5          1.4020   -0.5820   -1.2373 H         1 <0>         0.0684
     45 H6          1.4553   -2.2899   -1.7358 H         1 <0>         0.0686
     46 H7          3.1113   -4.9657    3.8585 H         1 <0>         0.4268
     47 H8          5.6856    0.1762    1.3632 H         1 <0>         0.1228
     48 H9          7.5628    1.7596    1.2226 H         1 <0>         0.1271
     49 H10         7.7604    3.5884    2.8559 H         1 <0>         0.1257
     50 H11         6.0841    3.8454    4.6378 H         1 <0>         0.1275
     51 H12         4.1940    2.2785    4.7900 H         1 <0>         0.1256
     52 H13        -0.3766    0.0284    7.2738 H         1 <0>         0.0863
     53 H14         1.3078    0.4576    7.6570 H         1 <0>         0.0851
     54 H15         2.2173    2.6166    7.0119 H         1 <0>         0.1487
     55 H16         1.7299    4.9774    6.5099 H         1 <0>         0.1570
     56 H17        -2.3107    3.9517    5.6092 H         1 <0>         0.1575
     57 H18        -1.8211    1.5895    6.1031 H         1 <0>         0.1505
     58 H19         0.6852   -5.5550    5.6728 H         1 <0>         0.1225
     59 H20         0.7176   -6.5842    7.9062 H         1 <0>         0.1267
     60 H21         2.2000   -5.6930    9.6554 H         1 <0>         0.1246
     61 H22         3.6585   -3.7691    9.1833 H         1 <0>         0.1256
     62 H23         3.6500   -2.7310    6.9538 H         1 <0>         0.1177
     63 H24         3.3178   -4.6049    0.8309 H         1 <0>         0.0989
     64 H25         2.2752   -5.7538    1.7033 H         1 <0>         0.0867
     65 H26         1.5525   -4.5497    0.6097 H         1 <0>         0.0889
@<TRIPOS>BOND
     1    1    2 1
     2    1   41 1
     3    1   42 1
     4    1   43 1
     5    2    3 1
     6    2   44 1
     7    2   45 1
     8    3    4 1
     9    4    5 2
    10    4    6 1
    11    6   11 1
    12    6    7 2
    13    7    8 1
    14    7   40 1
    15    8    9 1
    16    8   46 1
    17    9   10 2
    18    9   34 1
    19   10   11 1
    20   10   21 1
    21   11   12 1
    22   11   13 1
    23   13   14 3
    24   14   15 1
    25   15   20 ar
    26   15   16 ar
    27   16   17 ar
    28   16   47 1
    29   17   18 ar
    30   17   48 1
    31   18   19 ar
    32   18   49 1
    33   19   20 ar
    34   19   50 1
    35   20   51 1
    36   21   22 2
    37   21   23 1
    38   23   24 1
    39   24   25 1
    40   24   52 1
    41   24   53 1
    42   25   30 ar
    43   25   26 ar
    44   26   27 ar
    45   26   54 1
    46   27   28 ar
    47   27   55 1
    48   28   29 ar
    49   28   31 1
    50   29   30 ar
    51   29   56 1
    52   30   57 1
    53   31   32 2
    54   31   33 1
    55   34   39 ar
    56   34   35 ar
    57   35   36 ar
    58   35   58 1
    59   36   37 ar
    60   36   59 1
    61   37   38 ar
    62   37   60 1
    63   38   39 ar
    64   38   61 1
    65   39   62 1
    66   40   63 1
    67   40   64 1
    68   40   65 1
@<TRIPOS>MOLECULE
ZINC28763883
   60    62     0     0     0
SMALL
USER_CHARGES

@<TRIPOS>ATOM
      1 C1         -0.0187    1.5258    0.0104 C.3       1 <0>        -0.1471
      2 C2          0.0021   -0.0041    0.0020 C.3       1 <0>        -0.1387
      3 C3          0.7421   -0.5109    1.2415 C.3       1 <0>         0.1191
      4 N1          0.7619   -1.9757    1.2335 N.am      1 <0>        -0.5089
      5 C4         -0.2660   -2.6852    1.8352 C.2       1 <0>         0.3304
      6 C5         -0.2227   -4.0758    1.8133 C.2       1 <0>        -0.1422
      7 C6          0.8615   -4.7197    1.1820 C.2       1 <0>         0.5924
      8 O1          0.9214   -5.9360    1.1495 O.2       1 <0>        -0.5083
      9 N2          1.8315   -3.9736    0.6140 N.am      1 <0>        -0.5477
     10 C7          1.7755   -2.6309    0.6370 C.2       1 <0>         0.7072
     11 O2          2.6654   -1.9916    0.1098 O.2       1 <0>        -0.5249
     12 C8          2.9605   -4.6372   -0.0428 C.3       1 <0>         0.1129
     13 C9          2.6266   -4.8717   -1.5174 C.3       1 <0>        -0.1374
     14 C10         3.8056   -5.5648   -2.2033 C.3       1 <0>        -0.1480
     15 N3         -1.3547   -4.5134    2.4751 N.pl3     1 <0>        -0.5145
     16 H1         -1.6145   -5.4351    2.6295 H         1 <0>         0.4367
     17 C11        -2.0346   -3.4010    2.8692 C.2       1 <0>         0.3401
     18 N4         -1.3747   -2.3269    2.4814 N.2       1 <0>        -0.4837
     19 C12        -3.3101   -3.3980    3.6137 C.ar      1 <0>        -0.0657
     20 C13        -3.9128   -4.6051    3.9751 C.ar      1 <0>        -0.0542
     21 C14        -5.1027   -4.5980    4.6695 C.ar      1 <0>        -0.1387
     22 C15        -5.7034   -3.3923    5.0099 C.ar      1 <0>         0.1457
     23 C16        -5.1073   -2.1895    4.6519 C.ar      1 <0>        -0.2098
     24 C17        -3.9140   -2.1879    3.9633 C.ar      1 <0>        -0.0207
     25 O3         -6.8764   -3.3895    5.6940 O.3       1 <0>        -0.2870
     26 C18        -7.4391   -2.1150    6.0117 C.3       1 <0>         0.0400
     27 C19        -8.7293   -2.3094    6.7658 C.2       1 <0>         0.5236
     28 O4         -9.1277   -3.4291    7.0073 O.2       1 <0>        -0.4949
     29 N5         -9.4404   -1.2389    7.1718 N.am      1 <0>        -0.7330
     30 C20       -10.6947   -1.4279    7.9048 C.3       1 <0>         0.0930
     31 C21       -11.2971   -0.0632    8.2450 C.3       1 <0>        -0.0193
     32 N6        -12.5548   -0.2527    8.9800 N.4       1 <0>        -0.6320
     33 H2          1.0039    1.9031    0.0027 H         1 <0>         0.0600
     34 H3         -0.5459    1.8868   -0.8726 H         1 <0>         0.0609
     35 H4         -0.5289    1.8773    0.9072 H         1 <0>         0.0576
     36 H5         -1.0205   -0.3814    0.0098 H         1 <0>         0.0670
     37 H6          0.5123   -0.3556   -0.8948 H         1 <0>         0.0690
     38 H7          1.7647   -0.1336    1.2338 H         1 <0>         0.1016
     39 H8          0.2319   -0.1594    2.1383 H         1 <0>         0.0980
     40 H9          3.8466   -4.0071    0.0334 H         1 <0>         0.1045
     41 H10         3.1521   -5.5940    0.4430 H         1 <0>         0.1025
     42 H11         1.7404   -5.5018   -1.5935 H         1 <0>         0.0669
     43 H12         2.4349   -3.9149   -2.0031 H         1 <0>         0.0692
     44 H13         3.5678   -5.7318   -3.2538 H         1 <0>         0.0622
     45 H14         4.6918   -4.9347   -2.1271 H         1 <0>         0.0604
     46 H15         3.9973   -6.5215   -1.7175 H         1 <0>         0.0594
     47 H16        -3.4469   -5.5427    3.7102 H         1 <0>         0.1344
     48 H17        -5.5694   -5.5309    4.9493 H         1 <0>         0.1444
     49 H18        -5.5777   -1.2543    4.9178 H         1 <0>         0.1367
     50 H19        -3.4487   -1.2525    3.6898 H         1 <0>         0.1478
     51 H20        -6.7387   -1.5523    6.6290 H         1 <0>         0.1028
     52 H21        -7.6354   -1.5649    5.0914 H         1 <0>         0.1028
     53 H22        -9.1218   -0.3433    6.9786 H         1 <0>         0.4114
     54 H23       -11.3950   -1.9906    7.2875 H         1 <0>         0.0931
     55 H24       -10.4983   -1.9780    8.8251 H         1 <0>         0.0931
     56 H25       -10.5968    0.4994    8.8622 H         1 <0>         0.1426
     57 H26       -11.4935    0.4868    7.3247 H         1 <0>         0.1426
     58 H27       -13.2031   -0.7736    8.4086 H         1 <0>         0.4398
     59 H28       -12.3731   -0.7620    9.8319 H         1 <0>         0.4398
     60 H29       -12.9521    0.6472    9.2044 H         1 <0>         0.4453
@<TRIPOS>BOND
     1    1    2 1
     2    1   33 1
     3    1   34 1
     4    1   35 1
     5    2    3 1
     6    2   36 1
     7    2   37 1
     8    3    4 1
     9    3   38 1
    10    3   39 1
    11    4   10 am
    12    4    5 1
    13    5   18 1
    14    5    6 2
    15    6    7 1
    16    6   15 1
    17    7    8 2
    18    7    9 am
    19    9   10 am
    20    9   12 1
    21   10   11 2
    22   12   13 1
    23   12   40 1
    24   12   41 1
    25   13   14 1
    26   13   42 1
    27   13   43 1
    28   14   44 1
    29   14   45 1
    30   14   46 1
    31   15   16 1
    32   15   17 1
    33   17   18 2
    34   17   19 1
    35   19   24 ar
    36   19   20 ar
    37   20   21 ar
    38   20   47 1
    39   21   22 ar
    40   21   48 1
    41   22   23 ar
    42   22   25 1
    43   23   24 ar
    44   23   49 1
    45   24   50 1
    46   25   26 1
    47   26   27 1
    48   26   51 1
    49   26   52 1
    50   27   28 2
    51   27   29 am
    52   29   30 1
    53   29   53 1
    54   30   31 1
    55   30   54 1
    56   30   55 1
    57   31   32 1
    58   31   56 1
    59   31   57 1
    60   32   58 1
    61   32   59 1
    62   32   60 1
@<TRIPOS>MOLECULE
ZINC03861807
   30    31     0     0     0
SMALL
USER_CHARGES

@<TRIPOS>ATOM
      1 C1         -0.0187    1.5258    0.0104 C.3       1 <0>        -0.1415
      2 C2          0.0021   -0.0041    0.0020 C.3       1 <0>        -0.1122
      3 C3          0.7421   -0.5109    1.2415 C.3       1 <0>        -0.1434
      4 C4         -1.4333   -0.5336    0.0129 C.3       1 <0>         0.1228
      5 N1         -2.1054   -0.1483   -1.2305 N.am      1 <0>        -0.5064
      6 C5         -2.7896    1.0542   -1.3029 C.2       1 <0>         0.3270
      7 C6         -3.4188    1.3971   -2.4931 C.2       1 <0>        -0.1566
      8 C7         -3.3428    0.5129   -3.5907 C.2       1 <0>         0.5930
      9 O1         -3.8857    0.7913   -4.6449 O.2       1 <0>        -0.5148
     10 N2         -2.6613   -0.6442   -3.4587 N.am      1 <0>        -0.5518
     11 C8         -2.0526   -0.9608   -2.3028 C.2       1 <0>         0.7063
     12 O2         -1.4428   -2.0098   -2.2221 O.2       1 <0>        -0.5287
     13 C9         -2.5785   -1.5664   -4.5940 C.3       1 <0>         0.0827
     14 N3         -4.0103    2.6257   -2.2774 N.pl3     1 <0>        -0.5187
     15 H1         -4.5284    3.1372   -2.9183 H         1 <0>         0.4381
     16 C10        -3.7321    2.9790   -1.0073 C.2       1 <0>         0.2767
     17 N4         -3.0113    2.0471   -0.4377 N.2       1 <0>        -0.4957
     18 H2          1.0039    1.9031    0.0027 H         1 <0>         0.0532
     19 H3         -0.5459    1.8868   -0.8726 H         1 <0>         0.0473
     20 H4         -0.5289    1.8773    0.9072 H         1 <0>         0.0653
     21 H5          0.5123   -0.3556   -0.8948 H         1 <0>         0.0742
     22 H6          0.2319   -0.1594    2.1383 H         1 <0>         0.0596
     23 H7          0.7568   -1.6008    1.2356 H         1 <0>         0.0591
     24 H8          1.7647   -0.1336    1.2338 H         1 <0>         0.0613
     25 H9         -1.4190   -1.6203    0.0965 H         1 <0>         0.1003
     26 H10        -1.9701   -0.1109    0.8621 H         1 <0>         0.1000
     27 H11        -3.1215   -1.1486   -5.4417 H         1 <0>         0.1034
     28 H12        -1.5337   -1.7124   -4.8680 H         1 <0>         0.0826
     29 H13        -3.0188   -2.5242   -4.3168 H         1 <0>         0.0828
     30 H14        -4.0547    3.8934   -0.5315 H         1 <0>         0.2343
@<TRIPOS>BOND
     1    1    2 1
     2    1   18 1
     3    1   19 1
     4    1   20 1
     5    2    3 1
     6    2    4 1
     7    2   21 1
     8    3   22 1
     9    3   23 1
    10    3   24 1
    11    4    5 1
    12    4   25 1
    13    4   26 1
    14    5   11 am
    15    5    6 1
    16    6   17 1
    17    6    7 2
    18    7    8 1
    19    7   14 1
    20    8    9 2
    21    8   10 am
    22   10   11 am
    23   10   13 1
    24   11   12 2
    25   13   27 1
    26   13   28 1
    27   13   29 1
    28   14   15 1
    29   14   16 1
    30   16   17 2
    31   16   30 1
@<TRIPOS>MOLECULE
ZINC03995998
   45    48     0     0     0
SMALL
USER_CHARGES

@<TRIPOS>ATOM
      1 C1         -0.0164    1.3592    0.0095 C.2       1 <0>         0.2681
      2 N1          1.2005    1.8201    0.0004 N.2       1 <0>        -0.4560
      3 C2          2.0747    0.7850   -0.0135 C.ar      1 <0>        -0.1042
      4 C3          3.4758    0.6753   -0.0279 C.ar      1 <0>         0.5230
      5 N2          4.0162   -0.5385   -0.0400 N.ar      1 <0>        -0.5725
      6 C4          3.2613   -1.6237   -0.0386 C.ar      1 <0>         0.4317
      7 N3          1.9451   -1.5686   -0.0258 N.ar      1 <0>        -0.5360
      8 C5          1.3163   -0.3974   -0.0126 C.ar      1 <0>         0.3255
      9 N4          0.0021   -0.0041    0.0020 N.pl3     1 <0>        -0.4679
     10 C6         -1.1670   -0.8869    0.0084 C.3       1 <0>         0.3123
     11 H1         -0.9746   -1.7745   -0.5943 H         1 <0>         0.1247
     12 C7         -1.5302   -1.2878    1.4554 C.3       1 <0>         0.0792
     13 H2         -1.1596   -0.5452    2.1620 H         1 <0>         0.0858
     14 C8         -3.0750   -1.3163    1.4606 C.3       1 <0>         0.0477
     15 H3         -3.4681   -0.5878    2.1697 H         1 <0>         0.0875
     16 C9         -3.4624   -0.9293    0.0161 C.3       1 <0>         0.0503
     17 H4         -3.6240   -1.8235   -0.5860 H         1 <0>         0.1007
     18 O1         -2.3291   -0.1859   -0.4855 O.3       1 <0>        -0.3461
     19 C10        -4.7182   -0.0553    0.0175 C.3       1 <0>         0.0822
     20 O2         -5.1260    0.1947   -1.3291 O.3       1 <0>        -0.5634
     21 O3         -3.5506   -2.6266    1.7754 O.3       1 <0>        -0.5383
     22 O4         -1.0018   -2.5790    1.7649 O.3       1 <0>        -0.5248
     23 Cl1         4.0328   -3.1787   -0.0548 Cl        1 <0>         0.0350
     24 N5          4.2743    1.8056   -0.0299 N.pl3     1 <0>        -0.6800
     25 C11         5.7331    1.6718   -0.0450 C.3       1 <0>         0.1431
     26 C12         6.2685    1.5615    1.3975 C.3       1 <0>        -0.1342
     27 C13         7.6011    2.3504    1.3694 C.3       1 <0>        -0.1246
     28 C14         7.2728    3.5428    0.4369 C.3       1 <0>        -0.1247
     29 C15         6.3716    2.9316   -0.6558 C.3       1 <0>        -0.1333
     30 H5         -0.9091    1.9668    0.0254 H         1 <0>         0.2263
     31 H6         -5.5183   -0.5696    0.5499 H         1 <0>         0.0674
     32 H7         -4.5017    0.8911    0.5131 H         1 <0>         0.0611
     33 H8         -5.9182    0.7441   -1.4046 H         1 <0>         0.3870
     34 H9         -4.5145   -2.7016    1.7924 H         1 <0>         0.3876
     35 H10        -1.2003   -2.8805    2.6620 H         1 <0>         0.3912
     36 H11         3.8680    2.6864   -0.0214 H         1 <0>         0.4194
     37 H12         6.0211    0.7913   -0.6193 H         1 <0>         0.1002
     38 H13         5.5702    2.0171    2.0996 H         1 <0>         0.0683
     39 H14         6.4480    0.5187    1.6591 H         1 <0>         0.0746
     40 H15         7.8634    2.7014    2.3675 H         1 <0>         0.0690
     41 H16         8.4019    1.7413    0.9502 H         1 <0>         0.0711
     42 H17         6.7367    4.3184    0.9838 H         1 <0>         0.0670
     43 H18         8.1852    3.9459   -0.0025 H         1 <0>         0.0696
     44 H19         6.9702    2.6623   -1.5260 H         1 <0>         0.0780
     45 H20         5.5961    3.6424   -0.9410 H         1 <0>         0.0717
@<TRIPOS>BOND
     1    1    9 1
     2    1    2 2
     3    1   30 1
     4    2    3 1
     5    3    8 ar
     6    3    4 ar
     7    4    5 ar
     8    4   24 1
     9    5    6 ar
    10    6    7 ar
    11    6   23 1
    12    7    8 ar
    13    8    9 1
    14    9   10 1
    15   10   11 1
    16   10   18 1
    17   10   12 1
    18   12   13 1
    19   12   14 1
    20   12   22 1
    21   14   15 1
    22   14   16 1
    23   14   21 1
    24   16   17 1
    25   16   18 1
    26   16   19 1
    27   19   20 1
    28   19   31 1
    29   19   32 1
    30   20   33 1
    31   21   34 1
    32   22   35 1
    33   24   25 1
    34   24   36 1
    35   25   29 1
    36   25   26 1
    37   25   37 1
    38   26   27 1
    39   26   38 1
    40   26   39 1
    41   27   28 1
    42   27   40 1
    43   27   41 1
    44   28   29 1
    45   28   42 1
    46   28   43 1
    47   29   44 1
    48   29   45 1
@<TRIPOS>MOLECULE
ZINC03875976
   32    34     0     0     0
SMALL
USER_CHARGES

@<TRIPOS>ATOM
      1 C1         -0.0164    1.3592    0.0095 C.2       1 <0>         0.2702
      2 N1          1.2005    1.8201    0.0004 N.2       1 <0>        -0.4560
      3 C2          2.0747    0.7850   -0.0135 C.ar      1 <0>        -0.1052
      4 C3          3.4758    0.6753   -0.0279 C.ar      1 <0>         0.5255
      5 N2          4.0162   -0.5385   -0.0400 N.ar      1 <0>        -0.5767
      6 C4          3.2613   -1.6237   -0.0386 C.ar      1 <0>         0.4320
      7 N3          1.9451   -1.5686   -0.0258 N.ar      1 <0>        -0.5333
      8 C5          1.3163   -0.3974   -0.0126 C.ar      1 <0>         0.3255
      9 N4          0.0021   -0.0041    0.0020 N.pl3     1 <0>        -0.4676
     10 C6         -1.1670   -0.8869    0.0084 C.3       1 <0>         0.3117
     11 H1         -0.9746   -1.7745   -0.5943 H         1 <0>         0.1253
     12 C7         -1.5302   -1.2878    1.4554 C.3       1 <0>         0.0789
     13 H2         -1.1596   -0.5452    2.1620 H         1 <0>         0.0861
     14 C8         -3.0750   -1.3163    1.4606 C.3       1 <0>         0.0478
     15 H3         -3.4681   -0.5878    2.1697 H         1 <0>         0.0878
     16 C9         -3.4624   -0.9293    0.0161 C.3       1 <0>         0.0503
     17 H4         -3.6240   -1.8235   -0.5860 H         1 <0>         0.1010
     18 O1         -2.3291   -0.1859   -0.4855 O.3       1 <0>        -0.3461
     19 C10        -4.7182   -0.0553    0.0175 C.3       1 <0>         0.0821
     20 O2         -5.1260    0.1947   -1.3291 O.3       1 <0>        -0.5635
     21 O3         -3.5506   -2.6266    1.7754 O.3       1 <0>        -0.5383
     22 O4         -1.0018   -2.5790    1.7649 O.3       1 <0>        -0.5249
     23 Cl1         4.0328   -3.1787   -0.0548 Cl        1 <0>         0.0376
     24 N5          4.2743    1.8056   -0.0299 N.pl3     1 <0>        -0.8093
     25 H5         -0.9091    1.9668    0.0254 H         1 <0>         0.2274
     26 H6         -5.5183   -0.5696    0.5499 H         1 <0>         0.0675
     27 H7         -4.5017    0.8911    0.5131 H         1 <0>         0.0612
     28 H8         -5.9182    0.7441   -1.4046 H         1 <0>         0.3871
     29 H9         -4.5145   -2.7016    1.7924 H         1 <0>         0.3877
     30 H10        -1.2003   -2.8805    2.6620 H         1 <0>         0.3915
     31 H11         3.8680    2.6864   -0.0214 H         1 <0>         0.4227
     32 H12         5.2402    1.7170   -0.0399 H         1 <0>         0.4141
@<TRIPOS>BOND
     1    1    9 1
     2    1    2 2
     3    1   25 1
     4    2    3 1
     5    3    8 ar
     6    3    4 ar
     7    4    5 ar
     8    4   24 1
     9    5    6 ar
    10    6    7 ar
    11    6   23 1
    12    7    8 ar
    13    8    9 1
    14    9   10 1
    15   10   11 1
    16   10   18 1
    17   10   12 1
    18   12   13 1
    19   12   14 1
    20   12   22 1
    21   14   15 1
    22   14   16 1
    23   14   21 1
    24   16   17 1
    25   16   18 1
    26   16   19 1
    27   19   20 1
    28   19   26 1
    29   19   27 1
    30   20   28 1
    31   21   29 1
    32   22   30 1
    33   24   31 1
    34   24   32 1
@<TRIPOS>MOLECULE
ZINC01683110
   35    37     0     0     0
SMALL
USER_CHARGES

@<TRIPOS>ATOM
      1 C1         -0.0178    1.4608    0.0101 C.3       1 <0>         0.0858
      2 N1          0.0021   -0.0041    0.0020 N.am      1 <0>        -0.7307
      3 C2          0.5851   -0.6645   -1.0180 C.2       1 <0>         0.5150
      4 O1          1.0933   -0.0461   -1.9292 O.2       1 <0>        -0.5025
      5 C3          0.6055   -2.1713   -1.0263 C.3       1 <0>         0.0318
      6 H1         -0.4062   -2.5682   -0.9422 H         1 <0>         0.1226
      7 C4          1.5005   -2.7114    0.1182 C.3       1 <0>         0.0507
      8 H2          2.3775   -2.0793    0.2574 H         1 <0>         0.0950
      9 C5          1.9044   -4.1068   -0.4169 C.3       1 <0>         0.0831
     10 H3          2.9518   -4.3118   -0.1954 H         1 <0>         0.0900
     11 C6          1.6847   -4.0058   -1.9388 C.3       1 <0>         0.3141
     12 H4          0.9189   -4.7160   -2.2506 H         1 <0>         0.1319
     13 O2          1.2474   -2.6645   -2.2218 O.3       1 <0>        -0.3270
     14 N2          2.9388   -4.2849   -2.6427 N.pl3     1 <0>        -0.4754
     15 C7          3.8437   -3.3616   -3.0753 C.2       1 <0>         0.2663
     16 N3          4.8419   -3.9575   -3.6601 N.2       1 <0>        -0.4588
     17 C8          4.6419   -5.2972   -3.6401 C.ar      1 <0>        -0.1080
     18 C9          3.4209   -5.5237   -2.9822 C.ar      1 <0>         0.3101
     19 N4          2.9940   -6.7723   -2.8248 N.ar      1 <0>        -0.5540
     20 C10         3.7034   -7.7857   -3.2750 C.ar      1 <0>         0.3667
     21 N5          4.8573   -7.6228   -3.8960 N.ar      1 <0>        -0.5907
     22 C11         5.3602   -6.4108   -4.1073 C.ar      1 <0>         0.5098
     23 N6          6.5708   -6.2501   -4.7583 N.pl3     1 <0>        -0.8163
     24 O3          1.0679   -5.1196    0.1458 O.3       1 <0>        -0.5315
     25 O4          0.7592   -2.8258    1.3345 O.3       1 <0>        -0.5363
     26 H5          1.0048    1.8381    0.0023 H         1 <0>         0.0653
     27 H6         -0.5450    1.8219   -0.8730 H         1 <0>         0.0657
     28 H7         -0.5280    1.8123    0.9069 H         1 <0>         0.0830
     29 H8         -0.4044   -0.4986    0.7308 H         1 <0>         0.3997
     30 H9          3.7463   -2.2932   -2.9513 H         1 <0>         0.2250
     31 H10         3.3278   -8.7880   -3.1306 H         1 <0>         0.2070
     32 H11         6.9329   -5.3609   -4.8966 H         1 <0>         0.4196
     33 H12         7.0573   -7.0267   -5.0762 H         1 <0>         0.4114
     34 H13         1.1247   -5.1864    1.1088 H         1 <0>         0.3970
     35 H14         0.4078   -1.9863    1.6614 H         1 <0>         0.3845
@<TRIPOS>BOND
     1    1    2 1
     2    1   26 1
     3    1   27 1
     4    1   28 1
     5    2    3 am
     6    2   29 1
     7    3    4 2
     8    3    5 1
     9    5    6 1
    10    5   13 1
    11    5    7 1
    12    7    8 1
    13    7    9 1
    14    7   25 1
    15    9   10 1
    16    9   11 1
    17    9   24 1
    18   11   12 1
    19   11   13 1
    20   11   14 1
    21   14   18 1
    22   14   15 1
    23   15   16 2
    24   15   30 1
    25   16   17 1
    26   17   22 ar
    27   17   18 ar
    28   18   19 ar
    29   19   20 ar
    30   20   21 ar
    31   20   31 1
    32   21   22 ar
    33   22   23 1
    34   23   32 1
    35   23   33 1
    36   24   34 1
    37   25   35 1
@<TRIPOS>MOLECULE
ZINC26577908
   64    67     0     0     0
SMALL
USER_CHARGES

@<TRIPOS>ATOM
      1 C1         -0.0001    1.1266    1.8384 C.3       1 <0>        -0.1493
      2 C2          0.0027   -0.3363    1.3901 C.3       1 <0>         0.0605
      3 O1         -1.3326   -0.7432    1.0843 O.3       1 <0>        -0.3313
      4 C3         -1.5053   -2.0144    0.6709 C.2       1 <0>         0.4744
      5 C4         -2.7659   -2.4718    0.3598 C.2       1 <0>        -0.3869
      6 C5         -2.9828   -3.8653   -0.2015 C.3       1 <0>         0.1959
      7 H1         -2.4086   -3.9539   -1.1238 H         1 <0>         0.0601
      8 C6         -4.4220   -4.2433   -0.5011 C.2       1 <0>        -0.3635
      9 C7         -5.3998   -3.2932   -0.2386 C.2       1 <0>         0.3190
     10 N1         -5.1016   -2.0918    0.2572 N.2       1 <0>        -0.6301
     11 C8         -3.8954   -1.6737    0.5538 C.2       1 <0>         0.2948
     12 C9         -3.7212   -0.2863    1.1157 C.3       1 <0>        -0.1034
     13 C10        -6.8157   -3.6237   -0.5178 C.ar      1 <0>        -0.0121
     14 C11        -7.4594   -4.6223    0.2136 C.ar      1 <0>        -0.0482
     15 C12        -8.7790   -4.9256   -0.0514 C.ar      1 <0>        -0.1288
     16 C13        -9.4638   -4.2418   -1.0402 C.ar      1 <0>        -0.1241
     17 C14        -8.8310   -3.2508   -1.7694 C.ar      1 <0>        -0.1319
     18 C15        -7.5136   -2.9339   -1.5097 C.ar      1 <0>        -0.0931
     19 C16        -4.7509   -5.5017   -1.0227 C.2       1 <0>         0.5274
     20 O2         -5.9166   -5.7896   -1.2299 O.2       1 <0>        -0.5410
     21 O3         -3.7753   -6.3959   -1.2958 O.3       1 <0>        -0.3488
     22 C17        -4.1827   -7.6590   -1.8255 C.3       1 <0>         0.1094
     23 C18        -2.9683   -8.5183   -2.0657 C.ar      1 <0>        -0.0803
     24 C19        -2.3183   -8.4712   -3.2850 C.ar      1 <0>        -0.0449
     25 C20        -1.2044   -9.2593   -3.5053 C.ar      1 <0>        -0.1188
     26 C21        -0.7400  -10.0944   -2.5061 C.ar      1 <0>        -0.0526
     27 C22        -1.3892  -10.1409   -1.2869 C.ar      1 <0>        -0.0501
     28 C23        -2.5009   -9.3493   -1.0651 C.ar      1 <0>        -0.0337
     29 N2         -0.8923  -11.0354   -0.2173 N.pl3     1 <0>         0.0377
     30 O4          0.0815  -11.7254   -0.4103 O.2       1 <0>        -0.1656
     31 O5         -1.4602  -11.0760    0.8492 O.3       1 <0>        -0.1530
     32 C24        -2.4477   -4.8384    0.7647 C.1       1 <0>        -0.0595
     33 C25        -2.0209   -5.6144    1.5354 C.1       1 <0>        -0.2244
     34 C26        -1.5004   -6.5610    2.4754 C.ar      1 <0>         0.0595
     35 C27        -0.9252   -6.1205    3.6679 C.ar      1 <0>        -0.1114
     36 C28        -0.4260   -7.0377    4.5696 C.ar      1 <0>        -0.1127
     37 C29        -0.4947   -8.3916    4.2935 C.ar      1 <0>        -0.1328
     38 C30        -1.0636   -8.8349    3.1129 C.ar      1 <0>        -0.1188
     39 C31        -1.5713   -7.9282    2.2053 C.ar      1 <0>        -0.1096
     40 O6         -0.4438   -2.8379    0.5621 O.3       1 <0>        -0.6336
     41 H2          1.0184    1.4370    2.0717 H         1 <0>         0.0700
     42 H3         -0.3960    1.7513    1.0377 H         1 <0>         0.0624
     43 H4         -0.6247    1.2336    2.7253 H         1 <0>         0.0623
     44 H5          0.6272   -0.4433    0.5032 H         1 <0>         0.0589
     45 H6          0.3986   -0.9610    2.1908 H         1 <0>         0.0586
     46 H7         -3.1156    0.3090    0.4323 H         1 <0>         0.0815
     47 H8         -4.6981    0.1817    1.2373 H         1 <0>         0.0650
     48 H9         -3.2240   -0.3462    2.0838 H         1 <0>         0.0780
     49 H10        -6.9258   -5.1570    0.9855 H         1 <0>         0.1095
     50 H11        -9.2783   -5.6986    0.5138 H         1 <0>         0.1134
     51 H12       -10.4967   -4.4829   -1.2440 H         1 <0>         0.1116
     52 H13        -9.3709   -2.7209   -2.5402 H         1 <0>         0.1143
     53 H14        -7.0222   -2.1566   -2.0760 H         1 <0>         0.1160
     54 H15        -4.8439   -8.1549   -1.1148 H         1 <0>         0.0747
     55 H16        -4.7108   -7.5051   -2.7666 H         1 <0>         0.0780
     56 H17        -2.6811   -7.8188   -4.0655 H         1 <0>         0.1452
     57 H18        -0.6971   -9.2230   -4.4580 H         1 <0>         0.1492
     58 H19         0.1300  -10.7108   -2.6785 H         1 <0>         0.1529
     59 H20        -3.0060   -9.3828   -0.1111 H         1 <0>         0.1526
     60 H21        -0.8707   -5.0638    3.8845 H         1 <0>         0.1134
     61 H22         0.0198   -6.6980    5.4929 H         1 <0>         0.1298
     62 H23        -0.1021   -9.1055    5.0024 H         1 <0>         0.1184
     63 H24        -1.1142   -9.8931    2.9032 H         1 <0>         0.1194
     64 H25        -2.0193   -8.2757    1.2861 H         1 <0>         0.1204
@<TRIPOS>BOND
     1    1    2 1
     2    1   41 1
     3    1   42 1
     4    1   43 1
     5    2    3 1
     6    2   44 1
     7    2   45 1
     8    3    4 1
     9    4    5 2
    10    4   40 1
    11    5   11 1
    12    5    6 1
    13    6    7 1
    14    6    8 1
    15    6   32 1
    16    8    9 2
    17    8   19 1
    18    9   10 1
    19    9   13 1
    20   10   11 2
    21   11   12 1
    22   12   46 1
    23   12   47 1
    24   12   48 1
    25   13   18 ar
    26   13   14 ar
    27   14   15 ar
    28   14   49 1
    29   15   16 ar
    30   15   50 1
    31   16   17 ar
    32   16   51 1
    33   17   18 ar
    34   17   52 1
    35   18   53 1
    36   19   20 2
    37   19   21 1
    38   21   22 1
    39   22   23 1
    40   22   54 1
    41   22   55 1
    42   23   28 ar
    43   23   24 ar
    44   24   25 ar
    45   24   56 1
    46   25   26 ar
    47   25   57 1
    48   26   27 ar
    49   26   58 1
    50   27   28 ar
    51   27   29 1
    52   28   59 1
    53   29   30 2
    54   29   31 1
    55   32   33 3
    56   33   34 1
    57   34   39 ar
    58   34   35 ar
    59   35   36 ar
    60   35   60 1
    61   36   37 ar
    62   36   61 1
    63   37   38 ar
    64   37   62 1
    65   38   39 ar
    66   38   63 1
    67   39   64 1
@<TRIPOS>MOLECULE
ZINC26577909
   64    67     0     0     0
SMALL
USER_CHARGES

@<TRIPOS>ATOM
      1 C1          0.0028    1.4164    0.9200 C.3       1 <0>        -0.1493
      2 C2          0.0163   -0.0829    0.6157 C.3       1 <0>         0.0602
      3 O1         -1.3267   -0.5612    0.5180 O.3       1 <0>        -0.3310
      4 C3         -1.4915   -1.8722    0.2518 C.2       1 <0>         0.4766
      5 C4         -2.7589   -2.3987    0.1443 C.2       1 <0>        -0.3875
      6 C5         -2.9814   -3.8350   -0.2933 C.3       1 <0>         0.1934
      7 H1         -2.4565   -4.4884    0.4037 H         1 <0>         0.0631
      8 C6         -4.4280   -4.2886   -0.3701 C.2       1 <0>        -0.3646
      9 C7         -5.4065   -3.3615   -0.0376 C.2       1 <0>         0.3198
     10 N1         -5.1030   -2.1180    0.3363 N.2       1 <0>        -0.6299
     11 C8         -3.8895   -1.6338    0.4392 C.2       1 <0>         0.2954
     12 C9         -3.7088   -0.2052    0.8836 C.3       1 <0>        -0.1040
     13 C10        -6.8296   -3.7654   -0.1006 C.ar      1 <0>        -0.0166
     14 C11        -7.2935   -4.8211    0.6848 C.ar      1 <0>        -0.0459
     15 C12        -8.6207   -5.1927    0.6216 C.ar      1 <0>        -0.1310
     16 C13        -9.4909   -4.5209   -0.2184 C.ar      1 <0>        -0.1225
     17 C14        -9.0369   -3.4734   -1.0001 C.ar      1 <0>        -0.1337
     18 C15        -7.7134   -3.0882   -0.9413 C.ar      1 <0>        -0.0893
     19 C16        -4.7626   -5.5919   -0.7617 C.2       1 <0>         0.5274
     20 O2         -5.9309   -5.8991   -0.9211 O.2       1 <0>        -0.5401
     21 O3         -3.7897   -6.5078   -0.9627 O.3       1 <0>        -0.3495
     22 C17        -4.2030   -7.8166   -1.3607 C.3       1 <0>         0.1104
     23 C18        -2.9908   -8.6945   -1.5360 C.ar      1 <0>        -0.0810
     24 C19        -2.3606   -8.7656   -2.7646 C.ar      1 <0>        -0.0405
     25 C20        -1.2488   -9.5708   -2.9254 C.ar      1 <0>        -0.1182
     26 C21        -0.7666  -10.3048   -1.8577 C.ar      1 <0>        -0.0518
     27 C22        -1.3960  -10.2331   -0.6293 C.ar      1 <0>        -0.0532
     28 C23        -2.5056   -9.4243   -0.4673 C.ar      1 <0>        -0.0324
     29 N2         -0.8800  -11.0193    0.5138 N.pl3     1 <0>         0.0366
     30 O4          0.0920  -11.7243    0.3729 O.2       1 <0>        -0.1632
     31 O5         -1.4306  -10.9566    1.5883 O.3       1 <0>        -0.1584
     32 C24        -2.3781   -4.0086   -1.6247 C.1       1 <0>        -0.0536
     33 C25        -1.8968   -4.1470   -2.6865 C.1       1 <0>        -0.2326
     34 C26        -1.3098   -4.3158   -3.9817 C.ar      1 <0>         0.0640
     35 C27        -0.6688   -3.2448   -4.6054 C.ar      1 <0>        -0.1081
     36 C28        -0.1048   -3.4141   -5.8532 C.ar      1 <0>        -0.1190
     37 C29        -0.1739   -4.6425   -6.4859 C.ar      1 <0>        -0.1324
     38 C30        -0.8081   -5.7083   -5.8729 C.ar      1 <0>        -0.1182
     39 C31        -1.3714   -5.5536   -4.6230 C.ar      1 <0>        -0.1114
     40 O6         -0.4154   -2.6677    0.0910 O.3       1 <0>        -0.6360
     41 H2          1.0273    1.7813    0.9946 H         1 <0>         0.0702
     42 H3         -0.5137    1.9451    0.1189 H         1 <0>         0.0620
     43 H4         -0.5146    1.5911    1.8633 H         1 <0>         0.0628
     44 H5          0.5338   -0.2576   -0.3276 H         1 <0>         0.0584
     45 H6          0.5329   -0.6116    1.4168 H         1 <0>         0.0595
     46 H7         -3.1875    0.3538    0.1065 H         1 <0>         0.0824
     47 H8         -4.6848    0.2457    1.0629 H         1 <0>         0.0654
     48 H9         -3.1234   -0.1819    1.8028 H         1 <0>         0.0775
     49 H10        -6.6151   -5.3466    1.3406 H         1 <0>         0.1098
     50 H11        -8.9809   -6.0100    1.2288 H         1 <0>         0.1136
     51 H12       -10.5289   -4.8155   -0.2643 H         1 <0>         0.1117
     52 H13        -9.7211   -2.9531   -1.6540 H         1 <0>         0.1142
     53 H14        -7.3614   -2.2671   -1.5481 H         1 <0>         0.1162
     54 H15        -4.8516   -8.2415   -0.5946 H         1 <0>         0.0759
     55 H16        -4.7464   -7.7549   -2.3035 H         1 <0>         0.0768
     56 H17        -2.7373   -8.1922   -3.5987 H         1 <0>         0.1440
     57 H18        -0.7570   -9.6269   -3.8853 H         1 <0>         0.1493
     58 H19         0.1018  -10.9346   -1.9835 H         1 <0>         0.1529
     59 H20        -2.9952   -9.3653    0.4936 H         1 <0>         0.1544
     60 H21        -0.6145   -2.2853   -4.1127 H         1 <0>         0.1209
     61 H22         0.3913   -2.5859   -6.3372 H         1 <0>         0.1203
     62 H23         0.2688   -4.7698   -7.4627 H         1 <0>         0.1181
     63 H24        -0.8586   -6.6647   -6.3721 H         1 <0>         0.1206
     64 H25        -1.8623   -6.3876   -4.1435 H         1 <0>         0.1210
@<TRIPOS>BOND
     1    1    2 1
     2    1   41 1
     3    1   42 1
     4    1   43 1
     5    2    3 1
     6    2   44 1
     7    2   45 1
     8    3    4 1
     9    4    5 2
    10    4   40 1
    11    5   11 1
    12    5    6 1
    13    6    7 1
    14    6    8 1
    15    6   32 1
    16    8    9 2
    17    8   19 1
    18    9   10 1
    19    9   13 1
    20   10   11 2
    21   11   12 1
    22   12   46 1
    23   12   47 1
    24   12   48 1
    25   13   18 ar
    26   13   14 ar
    27   14   15 ar
    28   14   49 1
    29   15   16 ar
    30   15   50 1
    31   16   17 ar
    32   16   51 1
    33   17   18 ar
    34   17   52 1
    35   18   53 1
    36   19   20 2
    37   19   21 1
    38   21   22 1
    39   22   23 1
    40   22   54 1
    41   22   55 1
    42   23   28 ar
    43   23   24 ar
    44   24   25 ar
    45   24   56 1
    46   25   26 ar
    47   25   57 1
    48   26   27 ar
    49   26   58 1
    50   27   28 ar
    51   27   29 1
    52   28   59 1
    53   29   30 2
    54   29   31 1
    55   32   33 3
    56   33   34 1
    57   34   39 ar
    58   34   35 ar
    59   35   36 ar
    60   35   60 1
    61   36   37 ar
    62   36   61 1
    63   37   38 ar
    64   37   62 1
    65   38   39 ar
    66   38   63 1
    67   39   64 1
@<TRIPOS>MOLECULE
ZINC03918045
   64    67     0     0     0
SMALL
USER_CHARGES

@<TRIPOS>ATOM
      1 C1         -0.0187    1.5258    0.0104 C.3       1 <0>        -0.1674
      2 C2          0.0021   -0.0041    0.0020 C.3       1 <0>         0.1138
      3 N1         -1.3723   -0.5112    0.0124 N.am      1 <0>        -0.7285
      4 C3         -1.6006   -1.8394    0.0075 C.2       1 <0>         0.5161
      5 O1         -0.6682   -2.6149   -0.0056 O.2       1 <0>        -0.5030
      6 C4         -3.0144   -2.3611    0.0182 C.3       1 <0>         0.0322
      7 H1         -3.5805   -1.9494   -0.8174 H         1 <0>         0.1204
      8 C5         -3.7084   -2.0293    1.3638 C.3       1 <0>         0.0505
      9 H2         -3.0081   -2.1165    2.1945 H         1 <0>         0.0942
     10 C6         -4.8001   -3.1239    1.4442 C.3       1 <0>         0.0831
     11 H3         -4.8843   -3.5048    2.4620 H         1 <0>         0.0903
     12 C7         -4.2978   -4.2288    0.4946 C.3       1 <0>         0.3175
     13 H4         -5.0029   -4.3610   -0.3260 H         1 <0>         0.1284
     14 O2         -3.0242   -3.8042   -0.0230 O.3       1 <0>        -0.3269
     15 N2         -4.1477   -5.4871    1.2297 N.pl3     1 <0>        -0.4802
     16 C8         -3.0008   -5.9569    1.8003 C.2       1 <0>         0.2432
     17 N3         -3.2267   -7.1034    2.3721 N.2       1 <0>        -0.4481
     18 C9         -4.5290   -7.4419    2.2057 C.ar      1 <0>        -0.1569
     19 C10        -5.1358   -6.4064    1.4757 C.ar      1 <0>         0.3582
     20 N4         -6.4289   -6.4937    1.1805 N.ar      1 <0>        -0.6111
     21 C11        -7.1392   -7.5399    1.5700 C.ar      1 <0>         0.6334
     22 N5         -6.6075   -8.5385    2.2633 N.ar      1 <0>        -0.6206
     23 C12        -5.3210   -8.5359    2.5945 C.ar      1 <0>         0.5455
     24 N6         -4.7758   -9.5810    3.3191 N.pl3     1 <0>        -0.8154
     25 N7         -8.4842   -7.5943    1.2433 N.pl3     1 <0>        -0.6931
     26 C13        -9.2940   -8.7410    1.6621 C.3       1 <0>         0.1436
     27 C14       -10.7329   -8.5537    1.1769 C.3       1 <0>        -0.0856
     28 C15       -11.5659   -9.7334    1.6077 C.ar      1 <0>        -0.1035
     29 C16       -11.6726  -10.8406    0.7871 C.ar      1 <0>        -0.1102
     30 C17       -12.4367  -11.9227    1.1822 C.ar      1 <0>        -0.1197
     31 C18       -13.0937  -11.8977    2.3982 C.ar      1 <0>        -0.0611
     32 C19       -12.9862  -10.7908    3.2192 C.ar      1 <0>        -0.1198
     33 C20       -12.2187   -9.7105    2.8260 C.ar      1 <0>        -0.1103
     34 C21       -13.9275  -13.0770    2.8286 C.3       1 <0>        -0.0621
     35 C22       -13.0545  -14.0606    3.6104 C.3       1 <0>        -0.1744
     36 C23       -13.8883  -15.2399    4.0407 C.2       1 <0>         0.4893
     37 O3        -15.0711  -15.2890    3.7491 O.co2     1 <0>        -0.6989
     38 O4        -13.3800  -16.1448    4.6804 O.co2     1 <0>        -0.7061
     39 O5         -6.0569   -2.6106    0.9981 O.3       1 <0>        -0.5315
     40 O6         -4.2936   -0.7261    1.3280 O.3       1 <0>        -0.5367
     41 H5          1.0039    1.9031    0.0027 H         1 <0>         0.0782
     42 H6         -0.5459    1.8868   -0.8726 H         1 <0>         0.0641
     43 H7         -0.5289    1.8773    0.9072 H         1 <0>         0.0635
     44 H8          0.5123   -0.3556   -0.8948 H         1 <0>         0.0723
     45 H9          0.5293   -0.3651    0.8851 H         1 <0>         0.0723
     46 H10        -2.1181    0.1091    0.0229 H         1 <0>         0.3976
     47 H11        -2.0464   -5.4520    1.7797 H         1 <0>         0.2192
     48 H12        -3.8374   -9.5637    3.5640 H         1 <0>         0.4192
     49 H13        -5.3319  -10.3310    3.5820 H         1 <0>         0.4113
     50 H14        -8.8899   -6.8730    0.7372 H         1 <0>         0.4139
     51 H15        -8.8814   -9.6536    1.2319 H         1 <0>         0.0706
     52 H16        -9.2840   -8.8152    2.7495 H         1 <0>         0.0705
     53 H17       -11.1455   -7.6411    1.6071 H         1 <0>         0.0758
     54 H18       -10.7429   -8.4796    0.0895 H         1 <0>         0.0759
     55 H19       -11.1593  -10.8602   -0.1629 H         1 <0>         0.1169
     56 H20       -12.5206  -12.7875    0.5408 H         1 <0>         0.1208
     57 H21       -13.4998  -10.7711    4.1691 H         1 <0>         0.1207
     58 H22       -12.1317   -8.8472    3.4691 H         1 <0>         0.1168
     59 H23       -14.7441  -12.7324    3.4630 H         1 <0>         0.0703
     60 H24       -14.3358  -13.5737    1.9485 H         1 <0>         0.0703
     61 H25       -12.2379  -14.4052    2.9760 H         1 <0>         0.0570
     62 H26       -12.6461  -13.5639    4.4905 H         1 <0>         0.0569
     63 H27        -6.3912   -1.8738    1.5276 H         1 <0>         0.3949
     64 H28        -3.6563   -0.0124    1.1882 H         1 <0>         0.3823
@<TRIPOS>BOND
     1    1    2 1
     2    1   41 1
     3    1   42 1
     4    1   43 1
     5    2    3 1
     6    2   44 1
     7    2   45 1
     8    3    4 am
     9    3   46 1
    10    4    5 2
    11    4    6 1
    12    6    7 1
    13    6   14 1
    14    6    8 1
    15    8    9 1
    16    8   10 1
    17    8   40 1
    18   10   11 1
    19   10   12 1
    20   10   39 1
    21   12   13 1
    22   12   14 1
    23   12   15 1
    24   15   19 1
    25   15   16 1
    26   16   17 2
    27   16   47 1
    28   17   18 1
    29   18   23 ar
    30   18   19 ar
    31   19   20 ar
    32   20   21 ar
    33   21   22 ar
    34   21   25 1
    35   22   23 ar
    36   23   24 1
    37   24   48 1
    38   24   49 1
    39   25   26 1
    40   25   50 1
    41   26   27 1
    42   26   51 1
    43   26   52 1
    44   27   28 1
    45   27   53 1
    46   27   54 1
    47   28   33 ar
    48   28   29 ar
    49   29   30 ar
    50   29   55 1
    51   30   31 ar
    52   30   56 1
    53   31   32 ar
    54   31   34 1
    55   32   33 ar
    56   32   57 1
    57   33   58 1
    58   34   35 1
    59   34   59 1
    60   34   60 1
    61   35   36 1
    62   35   61 1
    63   35   62 1
    64   36   37 2
    65   36   38 1
    66   39   63 1
    67   40   64 1
@<TRIPOS>MOLECULE
ZINC04216929
   48    51     0     0     0
SMALL
USER_CHARGES
2-(hydroxymethyl)-5-[6-(o-tolylmethylamino)purin-9-yl]-tetrahydrofuran-3,4-diol
@<TRIPOS>ATOM
      1 C1          0.6153   -4.1515    2.4368 C.3       1 <0>        -0.1178
      2 C2          0.5231   -4.9269    1.1479 C.ar      1 <0>        -0.0762
      3 C3          0.7839   -6.2846    1.1378 C.ar      1 <0>        -0.1205
      4 C4          0.6989   -6.9958   -0.0442 C.ar      1 <0>        -0.1103
      5 C5          0.3531   -6.3496   -1.2165 C.ar      1 <0>        -0.1255
      6 C6          0.0872   -4.9933   -1.2054 C.ar      1 <0>        -0.0913
      7 C7          0.1774   -4.2808   -0.0240 C.ar      1 <0>        -0.0918
      8 C8         -0.1073   -2.8010   -0.0129 C.3       1 <0>         0.1160
      9 N1          1.1567   -2.0605   -0.0205 N.pl3     1 <0>        -0.5931
     10 C9          1.1480   -0.6767   -0.0126 C.ar      1 <0>         0.4334
     11 C10         2.3510    0.0501   -0.0202 C.ar      1 <0>        -0.0678
     12 C11         2.2784    1.4531   -0.0120 C.ar      1 <0>         0.3051
     13 N2          1.0849    2.0381    0.0026 N.ar      1 <0>        -0.5251
     14 C12        -0.0158    1.3165    0.0093 C.ar      1 <0>         0.3454
     15 N3          0.0021   -0.0041    0.0020 N.ar      1 <0>        -0.5698
     16 N4          3.5758    1.8991   -0.0225 N.pl3     1 <0>        -0.4716
     17 C13         4.3849    0.8021   -0.0364 C.2       1 <0>         0.2720
     18 N5          3.6643   -0.2817   -0.0350 N.2       1 <0>        -0.4540
     19 C14         4.0117    3.2977   -0.0189 C.3       1 <0>         0.3153
     20 H1          3.3283    3.9130   -0.6041 H         1 <0>         0.1239
     21 C15         4.1205    3.8318    1.4321 C.3       1 <0>         0.0782
     22 H2          4.5007    3.0612    2.1027 H         1 <0>         0.0905
     23 C16         5.1431    4.9837    1.2779 C.3       1 <0>         0.0456
     24 H3          5.8361    4.9939    2.1192 H         1 <0>         0.0884
     25 C17         5.8881    4.6548   -0.0304 C.3       1 <0>         0.0523
     26 H4          5.7180    5.4444   -0.7623 H         1 <0>         0.0995
     27 O1          5.3590    3.4117   -0.5253 O.3       1 <0>        -0.3477
     28 C18         7.3866    4.5152    0.2451 C.3       1 <0>         0.0771
     29 O2          8.0822    4.3261   -0.9887 O.3       1 <0>        -0.5627
     30 O3          4.4696    6.2395    1.1709 O.3       1 <0>        -0.5355
     31 O4          2.8602    4.3265    1.8892 O.3       1 <0>        -0.5210
     32 H5         -0.3545   -4.1568    2.9342 H         1 <0>         0.0754
     33 H6          1.3592   -4.6131    3.0861 H         1 <0>         0.0721
     34 H7          0.9080   -3.1236    2.2223 H         1 <0>         0.0555
     35 H8          1.0537   -6.7895    2.0536 H         1 <0>         0.1231
     36 H9          0.9023   -8.0565   -0.0521 H         1 <0>         0.1229
     37 H10         0.2863   -6.9054   -2.1401 H         1 <0>         0.1235
     38 H11        -0.1872   -4.4893   -2.1204 H         1 <0>         0.1240
     39 H12        -0.6721   -2.5464    0.8839 H         1 <0>         0.0650
     40 H13        -0.6888   -2.5363   -0.8960 H         1 <0>         0.0945
     41 H14         1.6902   -2.3034    0.7897 H         1 <0>         0.3651
     42 H15        -0.9695    1.8234    0.0165 H         1 <0>         0.2060
     43 H16         5.4645    0.8285   -0.0469 H         1 <0>         0.2253
     44 H17         7.7519    5.4186    0.7335 H         1 <0>         0.0667
     45 H18         7.5581    3.6565    0.8943 H         1 <0>         0.0592
     46 H19         9.0393    4.2298   -0.8899 H         1 <0>         0.3865
     47 H20         5.0628    6.9968    1.0722 H         1 <0>         0.3865
     48 H21         2.8773    4.6717    2.7923 H         1 <0>         0.3876
@<TRIPOS>BOND
     1    1    2 1
     2    1   32 1
     3    1   33 1
     4    1   34 1
     5    2    7 ar
     6    2    3 ar
     7    3    4 ar
     8    3   35 1
     9    4    5 ar
    10    4   36 1
    11    5    6 ar
    12    5   37 1
    13    6    7 ar
    14    6   38 1
    15    7    8 1
    16    8    9 1
    17    8   39 1
    18    8   40 1
    19    9   10 1
    20    9   41 1
    21   10   15 ar
    22   10   11 ar
    23   11   18 1
    24   11   12 ar
    25   12   13 ar
    26   12   16 1
    27   13   14 ar
    28   14   15 ar
    29   14   42 1
    30   16   17 1
    31   16   19 1
    32   17   18 2
    33   17   43 1
    34   19   20 1
    35   19   27 1
    36   19   21 1
    37   21   22 1
    38   21   23 1
    39   21   31 1
    40   23   24 1
    41   23   25 1
    42   23   30 1
    43   25   26 1
    44   25   27 1
    45   25   28 1
    46   28   29 1
    47   28   44 1
    48   28   45 1
    49   29   46 1
    50   30   47 1
    51   31   48 1
@<TRIPOS>MOLECULE
ZINC13470207
   34    36     0     0     0
SMALL
USER_CHARGES
(2R,3R,4S,5S)-4-amino-2-(6-aminopurin-9-yl)-5-(hydroxymethyl)tetrahydrofuran-3-ol
@<TRIPOS>ATOM
      1 C1         -0.0126    1.0758    0.0080 C.ar      1 <0>         0.3623
      2 N1         -1.1788    1.6956    0.0170 N.ar      1 <0>        -0.5678
      3 C2         -1.2529    3.0224    0.0287 C.ar      1 <0>         0.4609
      4 C3         -0.0565    3.7600    0.0219 C.ar      1 <0>        -0.0652
      5 C4          1.1579    3.0539    0.0070 C.ar      1 <0>         0.2893
      6 N2          1.1324    1.7249    0.0005 N.ar      1 <0>        -0.5529
      7 N3          2.1478    4.0038    0.0032 N.pl3     1 <0>        -0.4837
      8 C5          1.5422    5.2250    0.0154 C.2       1 <0>         0.2725
      9 N4          0.2490    5.0798    0.0264 N.2       1 <0>        -0.4385
     10 C6          3.5909    3.7519   -0.0105 C.3       1 <0>         0.2724
     11 H1          3.8304    2.8666    0.5785 H         1 <0>         0.1262
     12 C7          4.1037    3.5951   -1.4648 C.3       1 <0>         0.0515
     13 H2          3.5868    4.2812   -2.1357 H         1 <0>         0.1256
     14 C8          5.5970    3.9788   -1.3252 C.3       1 <0>         0.0103
     15 H3          5.9160    4.5850   -2.1731 H         1 <0>         0.1750
     16 C9          5.6558    4.8001   -0.0226 C.3       1 <0>         0.0736
     17 H4          6.2862    4.2926    0.7074 H         1 <0>         0.1133
     18 O1          4.3123    4.9012    0.4826 O.3       1 <0>        -0.3252
     19 C10         6.2144    6.1949   -0.3118 C.3       1 <0>         0.0733
     20 O2          6.3743    6.9079    0.9162 O.3       1 <0>        -0.5584
     21 O3          3.9638    2.2451   -1.9120 O.3       1 <0>        -0.5567
     22 N5         -2.4795    3.6629    0.0433 N.pl3     1 <0>        -0.7404
     23 H5          0.0021   -0.0041    0.0020 H         1 <0>         0.2127
     24 H6          2.0593    6.1732    0.0154 H         1 <0>         0.2298
     25 H7          7.1809    6.1036   -0.8074 H         1 <0>         0.0759
     26 H8          5.5239    6.7359   -0.9588 H         1 <0>         0.0718
     27 H9          6.7255    7.8025    0.8088 H         1 <0>         0.4015
     28 H10         7.4049    3.0149   -1.1229 H         1 <0>         0.4431
     29 H11         6.1267    2.1945   -0.4454 H         1 <0>         0.4407
     30 H12         3.0500    1.9293   -1.9295 H         1 <0>         0.4236
     31 H13        -2.5493    4.2306    0.8636 H         1 <0>         0.3762
     32 H14        -3.2982    3.1427    0.0479 H         1 <0>         0.3807
     33 N6          6.4245    2.7627   -1.2366 N.4       1 <0>        -0.6289
     34 H15         6.3168    2.2176   -2.1000 H         1 <0>         0.4556
@<TRIPOS>BOND
     1    1    6 ar
     2    1    2 ar
     3    1   23 1
     4    2    3 ar
     5    3    4 ar
     6    3   22 1
     7    4    9 1
     8    4    5 ar
     9    5    6 ar
    10    5    7 1
    11    7    8 1
    12    7   10 1
    13    8    9 2
    14    8   24 1
    15   10   11 1
    16   10   18 1
    17   10   12 1
    18   12   13 1
    19   12   14 1
    20   12   21 1
    21   14   15 1
    22   14   16 1
    23   14   33 1
    24   16   17 1
    25   16   18 1
    26   16   19 1
    27   19   20 1
    28   19   25 1
    29   19   26 1
    30   20   27 1
    31   21   30 1
    32   22   31 1
    33   22   32 1
    34   28   33 1
    35   29   33 1
    36   33   34 1
@<TRIPOS>MOLECULE
ZINC04245632
   35    37     0     0     0
SMALL
USER_CHARGES

@<TRIPOS>ATOM
      1 C1         -0.0178    1.4608    0.0101 C.3       1 <0>         0.0946
      2 N1          0.0021   -0.0041    0.0020 N.pl3     1 <0>        -0.6986
      3 C2          0.6007   -0.6822   -1.0453 C.ar      1 <0>         0.5042
      4 C3          0.6240   -2.0872   -1.0724 C.ar      1 <0>        -0.1080
      5 C4          1.2463   -2.7194   -2.1619 C.ar      1 <0>         0.3132
      6 N2          1.7859   -1.9726   -3.1200 N.ar      1 <0>        -0.5503
      7 C5          1.7399   -0.6589   -3.0527 C.ar      1 <0>         0.3648
      8 N3          1.1621   -0.0202   -2.0515 N.ar      1 <0>        -0.5876
      9 N4          1.1262   -4.0673   -1.9362 N.pl3     1 <0>        -0.4716
     10 C6          0.4585   -4.2265   -0.7585 C.2       1 <0>         0.2623
     11 N5          0.1647   -3.0636   -0.2533 N.2       1 <0>        -0.4608
     12 C7          1.6238   -5.1390   -2.8022 C.3       1 <0>         0.3139
     13 H1          1.5308   -4.8531   -3.8500 H         1 <0>         0.1231
     14 C8          3.0950   -5.4655   -2.4625 C.3       1 <0>         0.0796
     15 H2          3.3232   -5.1769   -1.4365 H         1 <0>         0.0852
     16 C9          3.1867   -6.9992   -2.6265 C.3       1 <0>         0.0473
     17 H3          3.4601   -7.4687   -1.6816 H         1 <0>         0.0871
     18 C10         1.7600   -7.4177   -3.0460 C.3       1 <0>         0.0504
     19 H4          1.6876   -7.4833   -4.1316 H         1 <0>         0.1002
     20 O1          0.9034   -6.3649   -2.5497 O.3       1 <0>        -0.3469
     21 C11         1.3882   -8.7570   -2.4065 C.3       1 <0>         0.0821
     22 O2          0.1154   -9.1823   -2.8975 O.3       1 <0>        -0.5635
     23 O3          4.1306   -7.3383   -3.6444 O.3       1 <0>        -0.5387
     24 O4          3.9773   -4.8081   -3.3743 O.3       1 <0>        -0.5253
     25 H5          1.0048    1.8381    0.0023 H         1 <0>         0.0632
     26 H6         -0.5450    1.8219   -0.8730 H         1 <0>         0.0632
     27 H7         -0.5280    1.8123    0.9069 H         1 <0>         0.0760
     28 H8         -0.4044   -0.4986    0.7308 H         1 <0>         0.4193
     29 H9          2.1883   -0.0817   -3.8478 H         1 <0>         0.2055
     30 H10         0.2099   -5.1773   -0.3107 H         1 <0>         0.2230
     31 H11         2.1426   -9.5022   -2.6593 H         1 <0>         0.0671
     32 H12         1.3399   -8.6417   -1.3237 H         1 <0>         0.0610
     33 H13        -0.1845  -10.0266   -2.5338 H         1 <0>         0.3868
     34 H14         4.2280   -8.2894   -3.7893 H         1 <0>         0.3873
     35 H15         4.9143   -4.9786   -3.2069 H         1 <0>         0.3906
@<TRIPOS>BOND
     1    1    2 1
     2    1   25 1
     3    1   26 1
     4    1   27 1
     5    2    3 1
     6    2   28 1
     7    3    8 ar
     8    3    4 ar
     9    4   11 1
    10    4    5 ar
    11    5    6 ar
    12    5    9 1
    13    6    7 ar
    14    7    8 ar
    15    7   29 1
    16    9   10 1
    17    9   12 1
    18   10   11 2
    19   10   30 1
    20   12   13 1
    21   12   20 1
    22   12   14 1
    23   14   15 1
    24   14   16 1
    25   14   24 1
    26   16   17 1
    27   16   18 1
    28   16   23 1
    29   18   19 1
    30   18   20 1
    31   18   21 1
    32   21   22 1
    33   21   31 1
    34   21   32 1
    35   22   33 1
    36   23   34 1
    37   24   35 1
@<TRIPOS>MOLECULE
ZINC01318428
   45    48     0     0     0
SMALL
USER_CHARGES

@<TRIPOS>ATOM
      1 C1         -0.0167    1.3781    0.0096 C.ar      1 <0>        -0.1100
      2 C2          1.1709    2.0855    0.0021 C.ar      1 <0>        -0.1223
      3 C3          2.3773    1.4107   -0.0130 C.ar      1 <0>        -0.0985
      4 C4          2.3960    0.0285   -0.0201 C.ar      1 <0>        -0.1141
      5 C5          1.2084   -0.6789   -0.0117 C.ar      1 <0>        -0.0982
      6 C6          0.0021   -0.0041    0.0020 C.ar      1 <0>        -0.1220
      7 C7          3.7112   -0.7071   -0.0376 C.3       1 <0>         0.1698
      8 N1          4.1518   -0.9524    1.3379 N.pl3     1 <0>        -0.6895
      9 C8          5.3418   -1.6178    1.5750 C.ar      1 <0>         0.5064
     10 C9          5.7772   -1.8669    2.8879 C.ar      1 <0>        -0.1066
     11 C10         6.9937   -2.5468    3.0655 C.ar      1 <0>         0.3136
     12 N2          7.6834   -2.9273    1.9949 N.ar      1 <0>        -0.5504
     13 C11         7.2363   -2.6726    0.7834 C.ar      1 <0>         0.3651
     14 N3          6.0968   -2.0410    0.5666 N.ar      1 <0>        -0.5883
     15 N4          7.1733   -2.6528    4.4215 N.pl3     1 <0>        -0.4716
     16 C12         6.1042   -2.0585    5.0231 C.2       1 <0>         0.2618
     17 N5          5.2862   -1.5981    4.1215 N.2       1 <0>        -0.4599
     18 C13         8.3061   -3.2886    5.0988 C.3       1 <0>         0.3140
     19 H1          8.6443   -4.1585    4.5358 H         1 <0>         0.1230
     20 C14         9.4624   -2.2795    5.2754 C.3       1 <0>         0.0797
     21 H2          9.0821   -1.2580    5.2693 H         1 <0>         0.0851
     22 C15        10.0566   -2.6277    6.6586 C.3       1 <0>         0.0473
     23 H3          9.9700   -1.7783    7.3362 H         1 <0>         0.0869
     24 C16         9.1890   -3.8059    7.1540 C.3       1 <0>         0.0504
     25 H4          9.6632   -4.7560    6.9078 H         1 <0>         0.1001
     26 O1          7.9385   -3.6711    6.4422 O.3       1 <0>        -0.3469
     27 C17         8.9603   -3.7013    8.6632 C.3       1 <0>         0.0821
     28 O2          8.2565   -4.8582    9.1197 O.3       1 <0>        -0.5634
     29 O3         11.4226   -3.0273    6.5305 O.3       1 <0>        -0.5387
     30 O4         10.4408   -2.4544    4.2487 O.3       1 <0>        -0.5252
     31 H5         -0.9591    1.9053    0.0259 H         1 <0>         0.1239
     32 H6          1.1563    3.1654    0.0076 H         1 <0>         0.1246
     33 H7          3.3051    1.9634   -0.0196 H         1 <0>         0.1239
     34 H8          1.2231   -1.7588   -0.0176 H         1 <0>         0.1241
     35 H9         -0.9258   -0.5567    0.0082 H         1 <0>         0.1248
     36 H10         3.5884   -1.6586   -0.5549 H         1 <0>         0.0799
     37 H11         4.4573   -0.1052   -0.5563 H         1 <0>         0.0799
     38 H12         3.6095   -0.6484    2.0824 H         1 <0>         0.4188
     39 H13         7.8213   -2.9952   -0.0651 H         1 <0>         0.2052
     40 H14         5.9575   -1.9811    6.0902 H         1 <0>         0.2226
     41 H15         9.9216   -3.6362    9.1727 H         1 <0>         0.0671
     42 H16         8.3727   -2.8093    8.8806 H         1 <0>         0.0609
     43 H17         8.0765   -4.8596   10.0698 H         1 <0>         0.3868
     44 H18        11.8453   -3.2574    7.3692 H         1 <0>         0.3873
     45 H19        11.1897   -1.8460    4.3114 H         1 <0>         0.3905
@<TRIPOS>BOND
     1    1    6 ar
     2    1    2 ar
     3    1   31 1
     4    2    3 ar
     5    2   32 1
     6    3    4 ar
     7    3   33 1
     8    4    5 ar
     9    4    7 1
    10    5    6 ar
    11    5   34 1
    12    6   35 1
    13    7    8 1
    14    7   36 1
    15    7   37 1
    16    8    9 1
    17    8   38 1
    18    9   14 ar
    19    9   10 ar
    20   10   17 1
    21   10   11 ar
    22   11   12 ar
    23   11   15 1
    24   12   13 ar
    25   13   14 ar
    26   13   39 1
    27   15   16 1
    28   15   18 1
    29   16   17 2
    30   16   40 1
    31   18   19 1
    32   18   26 1
    33   18   20 1
    34   20   21 1
    35   20   22 1
    36   20   30 1
    37   22   23 1
    38   22   24 1
    39   22   29 1
    40   24   25 1
    41   24   26 1
    42   24   27 1
    43   27   28 1
    44   27   41 1
    45   27   42 1
    46   28   43 1
    47   29   44 1
    48   30   45 1
@<TRIPOS>MOLECULE
ZINC04217017
   48    51     0     0     0
SMALL
USER_CHARGES

@<TRIPOS>ATOM
      1 C1         -0.0158    1.3119    0.0093 C.ar      1 <0>         0.3642
      2 N1          1.0888    2.0360    0.0026 N.ar      1 <0>        -0.5868
      3 C2          2.2875    1.4625   -0.0119 C.ar      1 <0>         0.5089
      4 C3          2.3582    0.0588   -0.0202 C.ar      1 <0>        -0.1086
      5 C4          1.1547   -0.6659   -0.0126 C.ar      1 <0>         0.3136
      6 N2          0.0021   -0.0041    0.0020 N.ar      1 <0>        -0.5514
      7 N3          1.5110   -1.9908   -0.0227 N.pl3     1 <0>        -0.4718
      8 C5          2.8729   -2.0476   -0.0358 C.2       1 <0>         0.2611
      9 N4          3.3680   -0.8441   -0.0343 N.2       1 <0>        -0.4600
     10 C6          0.5956   -3.1347   -0.0195 C.3       1 <0>         0.3142
     11 H1         -0.2832   -2.9148    0.5866 H         1 <0>         0.1228
     12 C7          0.1775   -3.4928   -1.4629 C.3       1 <0>         0.0797
     13 H2          0.9267   -3.1463   -2.1747 H         1 <0>         0.0850
     14 C8          0.1056   -5.0362   -1.4608 C.3       1 <0>         0.0473
     15 H3          0.8193   -5.4528   -2.1716 H         1 <0>         0.0869
     16 C9          0.4888   -5.4280   -0.0165 C.3       1 <0>         0.0504
     17 H4         -0.4066   -5.5617    0.5906 H         1 <0>         0.1001
     18 O1          1.2661   -4.3138    0.4763 O.3       1 <0>        -0.3470
     19 C10         1.3272   -6.7078   -0.0164 C.3       1 <0>         0.0821
     20 O2          1.5723   -7.1166    1.3308 O.3       1 <0>        -0.5634
     21 O3         -1.2191   -5.4762   -1.7672 O.3       1 <0>        -0.5387
     22 O4         -1.0998   -2.9297   -1.7685 O.3       1 <0>        -0.5252
     23 N5          3.4393    2.2295   -0.0193 N.pl3     1 <0>        -0.6901
     24 C11         3.3458    3.6915   -0.0110 C.3       1 <0>         0.1521
     25 C12         3.2018    4.1852    1.4300 C.3       1 <0>        -0.1279
     26 C13         3.1042    5.7121    1.4386 C.3       1 <0>        -0.1161
     27 C14         4.3704    6.3075    0.8197 C.3       1 <0>        -0.1232
     28 C15         4.5144    5.8139   -0.6213 C.3       1 <0>        -0.1145
     29 C16         4.6120    4.2870   -0.6300 C.3       1 <0>        -0.1286
     30 H5         -0.9693    1.8187    0.0257 H         1 <0>         0.2042
     31 H6          3.4551   -2.9572   -0.0459 H         1 <0>         0.2223
     32 H7          0.7880   -7.4954   -0.5427 H         1 <0>         0.0671
     33 H8          2.2767   -6.5201   -0.5176 H         1 <0>         0.0609
     34 H9          2.0996   -7.9235    1.4072 H         1 <0>         0.3867
     35 H10        -1.3212   -6.4377   -1.7794 H         1 <0>         0.3873
     36 H11        -1.4113   -3.1237   -2.6632 H         1 <0>         0.3905
     37 H12         4.3085    1.7992   -0.0299 H         1 <0>         0.4159
     38 H13         2.4769    4.0033   -0.5905 H         1 <0>         0.0947
     39 H14         2.2998    3.7610    1.8710 H         1 <0>         0.0687
     40 H15         4.0708    3.8734    2.0094 H         1 <0>         0.0607
     41 H16         2.2352    6.0239    0.8592 H         1 <0>         0.0660
     42 H17         3.0016    6.0638    2.4652 H         1 <0>         0.0643
     43 H18         4.3008    7.3953    0.8258 H         1 <0>         0.0642
     44 H19         5.2393    5.9957    1.3991 H         1 <0>         0.0620
     45 H20         3.6454    6.1257   -1.2008 H         1 <0>         0.0661
     46 H21         5.4164    6.2381   -1.0623 H         1 <0>         0.0672
     47 H22         5.4809    3.9752   -0.0505 H         1 <0>         0.0677
     48 H23         4.7146    3.9353   -1.6566 H         1 <0>         0.0684
@<TRIPOS>BOND
     1    1    6 ar
     2    1    2 ar
     3    1   30 1
     4    2    3 ar
     5    3    4 ar
     6    3   23 1
     7    4    9 1
     8    4    5 ar
     9    5    6 ar
    10    5    7 1
    11    7    8 1
    12    7   10 1
    13    8    9 2
    14    8   31 1
    15   10   11 1
    16   10   18 1
    17   10   12 1
    18   12   13 1
    19   12   14 1
    20   12   22 1
    21   14   15 1
    22   14   16 1
    23   14   21 1
    24   16   17 1
    25   16   18 1
    26   16   19 1
    27   19   20 1
    28   19   32 1
    29   19   33 1
    30   20   34 1
    31   21   35 1
    32   22   36 1
    33   23   24 1
    34   23   37 1
    35   24   29 1
    36   24   25 1
    37   24   38 1
    38   25   26 1
    39   25   39 1
    40   25   40 1
    41   26   27 1
    42   26   41 1
    43   26   42 1
    44   27   28 1
    45   27   43 1
    46   27   44 1
    47   28   29 1
    48   28   45 1
    49   28   46 1
    50   29   47 1
    51   29   48 1
@<TRIPOS>MOLECULE
ZINC03995401
   38    40     0     0     0
SMALL
USER_CHARGES

@<TRIPOS>ATOM
      1 C1         -0.0187    1.5258    0.0104 C.3       1 <0>        -0.1678
      2 C2          0.0021   -0.0041    0.0020 C.3       1 <0>         0.1135
      3 N1          0.6878   -0.4765   -1.2033 N.am      1 <0>        -0.7272
      4 C3          0.8268   -1.7986   -1.4250 C.2       1 <0>         0.5159
      5 O1          0.3843   -2.5972   -0.6267 O.2       1 <0>        -0.5034
      6 C4          1.5322   -2.2846   -2.6649 C.3       1 <0>         0.0319
      7 H1          2.5323   -1.8560   -2.7290 H         1 <0>         0.1223
      8 C5          0.7085   -1.9402   -3.9319 C.3       1 <0>         0.0508
      9 H2         -0.3595   -2.0480   -3.7427 H         1 <0>         0.0949
     10 C6          1.2015   -3.0074   -4.9392 C.3       1 <0>         0.0831
     11 H3          0.3680   -3.3897   -5.5285 H         1 <0>         0.0899
     12 C7          1.7901   -4.1212   -4.0517 C.3       1 <0>         0.3141
     13 H4          2.8552   -4.2328   -4.2545 H         1 <0>         0.1318
     14 O2          1.5952   -3.7270   -2.6817 O.3       1 <0>        -0.3269
     15 N2          1.0980   -5.3855   -4.3143 N.pl3     1 <0>        -0.4753
     16 C8          0.0390   -5.8854   -3.6166 C.2       1 <0>         0.2664
     17 N3         -0.3260   -7.0283   -4.1208 N.2       1 <0>        -0.4588
     18 C9          0.4732   -7.3336   -5.1712 C.ar      1 <0>        -0.1081
     19 C10         1.3931   -6.2806   -5.3114 C.ar      1 <0>         0.3101
     20 N4          2.2951   -6.3363   -6.2857 N.ar      1 <0>        -0.5540
     21 C11         2.3279   -7.3607   -7.1119 C.ar      1 <0>         0.3666
     22 N5          1.4828   -8.3713   -7.0218 N.ar      1 <0>        -0.5906
     23 C12         0.5516   -8.4074   -6.0740 C.ar      1 <0>         0.5098
     24 N6         -0.3304   -9.4704   -5.9882 N.pl3     1 <0>        -0.8164
     25 O3          2.2079   -2.4612   -5.7941 O.3       1 <0>        -0.5314
     26 O4          1.0116   -0.6227   -4.3947 O.3       1 <0>        -0.5362
     27 H5          1.0039    1.9031    0.0027 H         1 <0>         0.0645
     28 H6         -0.5459    1.8868   -0.8726 H         1 <0>         0.0637
     29 H7         -0.5289    1.8773    0.9072 H         1 <0>         0.0792
     30 H8          0.5293   -0.3651    0.8851 H         1 <0>         0.0731
     31 H9         -1.0205   -0.3814    0.0098 H         1 <0>         0.0727
     32 H10         1.0417    0.1622   -1.8418 H         1 <0>         0.3979
     33 H11        -0.4280   -5.4042   -2.7700 H         1 <0>         0.2249
     34 H12         3.0737   -7.3749   -7.8929 H         1 <0>         0.2070
     35 H13        -1.0129   -9.4799   -5.2989 H         1 <0>         0.4195
     36 H14        -0.2662  -10.2059   -6.6173 H         1 <0>         0.4114
     37 H15         1.9048   -1.7181   -6.3335 H         1 <0>         0.3970
     38 H16         0.8031    0.0753   -3.7587 H         1 <0>         0.3843
@<TRIPOS>BOND
     1    1    2 1
     2    1   27 1
     3    1   28 1
     4    1   29 1
     5    2    3 1
     6    2   30 1
     7    2   31 1
     8    3    4 am
     9    3   32 1
    10    4    5 2
    11    4    6 1
    12    6    7 1
    13    6   14 1
    14    6    8 1
    15    8    9 1
    16    8   10 1
    17    8   26 1
    18   10   11 1
    19   10   12 1
    20   10   25 1
    21   12   13 1
    22   12   14 1
    23   12   15 1
    24   15   19 1
    25   15   16 1
    26   16   17 2
    27   16   33 1
    28   17   18 1
    29   18   23 ar
    30   18   19 ar
    31   19   20 ar
    32   20   21 ar
    33   21   22 ar
    34   21   34 1
    35   22   23 ar
    36   23   24 1
    37   24   35 1
    38   24   36 1
    39   25   37 1
    40   26   38 1
@<TRIPOS>MOLECULE
ZINC02169830
   32    34     0     0     0
SMALL
USER_CHARGES

@<TRIPOS>ATOM
      1 C1         -0.0158    1.3119    0.0093 C.ar      1 <0>         0.3657
      2 N1          1.0888    2.0360    0.0026 N.ar      1 <0>        -0.5913
      3 C2          2.2875    1.4625   -0.0119 C.ar      1 <0>         0.5092
      4 C3          2.3582    0.0588   -0.0202 C.ar      1 <0>        -0.1099
      5 C4          1.1547   -0.6659   -0.0126 C.ar      1 <0>         0.3136
      6 N2          0.0021   -0.0041    0.0020 N.ar      1 <0>        -0.5494
      7 N3          1.5110   -1.9908   -0.0227 N.pl3     1 <0>        -0.4715
      8 C5          2.8729   -2.0476   -0.0358 C.2       1 <0>         0.2632
      9 N4          3.3680   -0.8441   -0.0343 N.2       1 <0>        -0.4603
     10 C6          0.5956   -3.1347   -0.0195 C.3       1 <0>         0.3137
     11 H1         -0.2832   -2.9148    0.5866 H         1 <0>         0.1234
     12 C7          0.1775   -3.4928   -1.4629 C.3       1 <0>         0.0796
     13 H2          0.9267   -3.1463   -2.1747 H         1 <0>         0.0853
     14 C8          0.1056   -5.0362   -1.4608 C.3       1 <0>         0.0473
     15 H3          0.8193   -5.4528   -2.1716 H         1 <0>         0.0872
     16 C9          0.4888   -5.4280   -0.0165 C.3       1 <0>         0.0504
     17 H4         -0.4066   -5.5617    0.5906 H         1 <0>         0.1003
     18 O1          1.2661   -4.3138    0.4763 O.3       1 <0>        -0.3469
     19 C10         1.3272   -6.7078   -0.0164 C.3       1 <0>         0.0821
     20 O2          1.5723   -7.1166    1.3308 O.3       1 <0>        -0.5635
     21 O3         -1.2191   -5.4762   -1.7672 O.3       1 <0>        -0.5387
     22 O4         -1.0998   -2.9297   -1.7685 O.3       1 <0>        -0.5254
     23 N5          3.4393    2.2295   -0.0193 N.pl3     1 <0>        -0.8172
     24 H5         -0.9693    1.8187    0.0257 H         1 <0>         0.2064
     25 H6          3.4551   -2.9572   -0.0459 H         1 <0>         0.2235
     26 H7          0.7880   -7.4954   -0.5427 H         1 <0>         0.0672
     27 H8          2.2767   -6.5201   -0.5176 H         1 <0>         0.0610
     28 H9          2.0996   -7.9235    1.4072 H         1 <0>         0.3868
     29 H10        -1.3212   -6.4377   -1.7794 H         1 <0>         0.3874
     30 H11        -1.4113   -3.1237   -2.6632 H         1 <0>         0.3908
     31 H12         3.3774    3.1975   -0.0138 H         1 <0>         0.4112
     32 H13         4.3085    1.7992   -0.0299 H         1 <0>         0.4190
@<TRIPOS>BOND
     1    1    6 ar
     2    1    2 ar
     3    1   24 1
     4    2    3 ar
     5    3    4 ar
     6    3   23 1
     7    4    9 1
     8    4    5 ar
     9    5    6 ar
    10    5    7 1
    11    7    8 1
    12    7   10 1
    13    8    9 2
    14    8   25 1
    15   10   11 1
    16   10   18 1
    17   10   12 1
    18   12   13 1
    19   12   14 1
    20   12   22 1
    21   14   15 1
    22   14   16 1
    23   14   21 1
    24   16   17 1
    25   16   18 1
    26   16   19 1
    27   19   20 1
    28   19   26 1
    29   19   27 1
    30   20   28 1
    31   21   29 1
    32   22   30 1
    33   23   31 1
    34   23   32 1
@<TRIPOS>MOLECULE
ZINC28404175
   40    41     0     0     0
SMALL
USER_CHARGES

@<TRIPOS>ATOM
      1 C1          0.0454    1.4791    0.3611 C.3       1 <0>        -0.1155
      2 C2          0.0341   -0.0166    0.1771 C.2       1 <0>         0.2460
      3 C3         -1.1315   -0.6888    0.2354 C.2       1 <0>        -0.2573
      4 C4         -1.1817   -2.1807    0.0663 C.3       1 <0>         0.0709
      5 H1         -2.0175   -2.4398   -0.5836 H         1 <0>         0.1036
      6 C5          0.0927   -2.6941   -0.5399 C.2       1 <0>        -0.1319
      7 C6          1.1868   -1.9663   -0.5725 C.2       1 <0>         0.2039
      8 N1          1.2052   -0.6804   -0.0532 N.pl3     1 <0>        -0.6260
      9 C7          2.4389   -2.5355   -1.1884 C.3       1 <0>        -0.1443
     10 N2          0.1175   -4.0574   -1.1161 N.pl3     1 <0>         0.0367
     11 O1          0.3205   -5.0118   -0.4023 O.2       1 <0>        -0.1317
     12 O2         -0.0652   -4.2165   -2.3006 O.3       1 <0>        -0.1413
     13 C8         -1.3833   -2.8255    1.4134 C.ar      1 <0>        -0.0350
     14 C9         -0.4579   -2.6257    2.4210 C.ar      1 <0>        -0.1024
     15 C10        -0.6428   -3.2170    3.6564 C.ar      1 <0>        -0.0849
     16 C11        -1.7534   -4.0081    3.8849 C.ar      1 <0>        -0.1141
     17 C12        -2.6790   -4.2072    2.8780 C.ar      1 <0>        -0.0695
     18 C13        -2.4962   -3.6121    1.6435 C.ar      1 <0>        -0.1626
     19 C14        -3.5082   -3.8249    0.5472 C.3       1 <0>         0.4968
     20 F1         -4.5364   -4.6500    1.0154 F         1 <0>        -0.1768
     21 F2         -4.0408   -2.5911    0.1583 F         1 <0>        -0.1496
     22 F3         -2.8867   -4.4311   -0.5498 F         1 <0>        -0.1793
     23 C15        -2.3302    0.0227    0.4604 C.2       1 <0>         0.5179
     24 O3         -2.3033    1.2316    0.5995 O.2       1 <0>        -0.5175
     25 O4         -3.5058   -0.6377    0.5213 O.3       1 <0>        -0.3335
     26 C16        -4.6787    0.1455    0.7517 C.3       1 <0>         0.0361
     27 H2          1.0678    1.8477    0.2775 H         1 <0>         0.0680
     28 H3         -0.5725    1.9443   -0.4070 H         1 <0>         0.1094
     29 H4         -0.3509    1.7270    1.3457 H         1 <0>         0.1067
     30 H5          2.0522   -0.2535    0.1498 H         1 <0>         0.4308
     31 H6          2.4305   -2.3533   -2.2630 H         1 <0>         0.1061
     32 H7          3.3120   -2.0562   -0.7454 H         1 <0>         0.0956
     33 H8          2.4800   -3.6087   -1.0021 H         1 <0>         0.0914
     34 H9          0.4097   -2.0077    2.2425 H         1 <0>         0.1220
     35 H10         0.0805   -3.0615    4.4432 H         1 <0>         0.1335
     36 H11        -1.8975   -4.4708    4.8501 H         1 <0>         0.1375
     37 H12        -3.5464   -4.8254    3.0563 H         1 <0>         0.1412
     38 H13        -4.5860    0.6670    1.7043 H         1 <0>         0.0590
     39 H14        -4.7930    0.8735   -0.0514 H         1 <0>         0.0598
     40 H15        -5.5517   -0.5066    0.7779 H         1 <0>         0.1002
@<TRIPOS>BOND
     1    1    2 1
     2    1   27 1
     3    1   28 1
     4    1   29 1
     5    2    8 1
     6    2    3 2
     7    3    4 1
     8    3   23 1
     9    4    5 1
    10    4    6 1
    11    4   13 1
    12    6    7 2
    13    6   10 1
    14    7    8 1
    15    7    9 1
    16    8   30 1
    17    9   31 1
    18    9   32 1
    19    9   33 1
    20   10   11 2
    21   10   12 1
    22   13   18 ar
    23   13   14 ar
    24   14   15 ar
    25   14   34 1
    26   15   16 ar
    27   15   35 1
    28   16   17 ar
    29   16   36 1
    30   17   18 ar
    31   17   37 1
    32   18   19 1
    33   19   20 1
    34   19   21 1
    35   19   22 1
    36   23   24 2
    37   23   25 1
    38   25   26 1
    39   26   38 1
    40   26   39 1
    41   26   40 1
@<TRIPOS>MOLECULE
ZINC28404175
   39    40     0     0     0
SMALL
USER_CHARGES

@<TRIPOS>ATOM
      1 C1          0.1040    1.4858    0.3250 C.3       1 <0>        -0.1103
      2 C2          0.0617   -0.0116    0.1600 C.2       1 <0>         0.2698
      3 C3         -1.1087   -0.6347    0.2916 C.2       1 <0>        -0.2529
      4 C4         -1.1344   -2.1419    0.1219 C.3       1 <0>         0.1039
      5 H1         -1.5261   -2.5808    1.0396 H         1 <0>         0.0581
      6 C5          0.1994   -2.7992   -0.1860 C.2       1 <0>        -0.3960
      7 C6          0.3070   -4.1438   -0.3605 C.2       1 <0>         0.4775
      8 O1          1.5251   -4.7140   -0.4765 O.3       1 <0>        -0.6483
      9 O2         -0.8043   -4.9080   -0.4178 O.3       1 <0>        -0.3227
     10 C7         -0.6169   -6.3126   -0.6027 C.3       1 <0>         0.0449
     11 C8          1.3186   -1.9522   -0.2829 C.2       1 <0>         0.3183
     12 N1          1.2075   -0.6616   -0.1197 N.2       1 <0>        -0.6269
     13 C9          2.6704   -2.5453   -0.5861 C.3       1 <0>        -0.0889
     14 C10        -2.0870   -2.4729   -0.9979 C.ar      1 <0>         0.0022
     15 C11        -1.8554   -1.9831   -2.2699 C.ar      1 <0>        -0.1115
     16 C12        -2.7291   -2.2866   -3.2970 C.ar      1 <0>        -0.0965
     17 C13        -3.8343   -3.0805   -3.0525 C.ar      1 <0>        -0.1370
     18 C14        -4.0653   -3.5709   -1.7811 C.ar      1 <0>        -0.0803
     19 C15        -3.1891   -3.2708   -0.7547 C.ar      1 <0>        -0.1516
     20 C16        -3.4381   -3.8098    0.6304 C.3       1 <0>         0.5017
     21 F1         -4.6037   -4.5834    0.6272 F         1 <0>        -0.1913
     22 F2         -2.3540   -4.6015    1.0246 F         1 <0>        -0.1610
     23 F3         -3.5876   -2.7450    1.5253 F         1 <0>        -0.1630
     24 N2         -2.3513    0.1240    0.5959 N.pl3     1 <0>         0.0816
     25 O3         -2.3093    1.3250    0.7277 O.2       1 <0>        -0.2404
     26 O4         -3.4034   -0.4604    0.7114 O.3       1 <0>        -0.2080
     27 H2          1.1256    1.8382    0.1832 H         1 <0>         0.0674
     28 H3         -0.5471    1.9514   -0.4148 H         1 <0>         0.0828
     29 H4         -0.2360    1.7506    1.3262 H         1 <0>         0.0829
     30 H5         -0.0917   -6.4885   -1.5415 H         1 <0>         0.0487
     31 H6         -0.0286   -6.7125    0.2231 H         1 <0>         0.0503
     32 H7         -1.5873   -6.8080   -0.6309 H         1 <0>         0.0814
     33 H8          2.6198   -3.1071   -1.5188 H         1 <0>         0.0816
     34 H9          3.4046   -1.7455   -0.6831 H         1 <0>         0.0522
     35 H10         2.9646   -3.2122    0.2243 H         1 <0>         0.0869
     36 H11        -0.9921   -1.3629   -2.4609 H         1 <0>         0.1192
     37 H12        -2.5486   -1.9034   -4.2904 H         1 <0>         0.1216
     38 H13        -4.5174   -3.3171   -3.8549 H         1 <0>         0.1244
     39 H14        -4.9289   -4.1907   -1.5901 H         1 <0>         0.1294
@<TRIPOS>BOND
     1    1    2 1
     2    1   27 1
     3    1   28 1
     4    1   29 1
     5    2   12 1
     6    2    3 2
     7    3    4 1
     8    3   24 1
     9    4    5 1
    10    4    6 1
    11    4   14 1
    12    6    7 2
    13    6   11 1
    14    7    8 1
    15    7    9 1
    16    9   10 1
    17   10   30 1
    18   10   31 1
    19   10   32 1
    20   11   12 2
    21   11   13 1
    22   13   33 1
    23   13   34 1
    24   13   35 1
    25   14   19 ar
    26   14   15 ar
    27   15   16 ar
    28   15   36 1
    29   16   17 ar
    30   16   37 1
    31   17   18 ar
    32   17   38 1
    33   18   19 ar
    34   18   39 1
    35   19   20 1
    36   20   21 1
    37   20   22 1
    38   20   23 1
    39   24   25 2
    40   24   26 1
@<TRIPOS>MOLECULE
ZINC04475116
   39    42     0     0     0
SMALL
USER_CHARGES

@<TRIPOS>ATOM
      1 C1         -0.0158    1.3119    0.0093 C.ar      1 <0>         0.3656
      2 N1          1.0888    2.0360    0.0026 N.ar      1 <0>        -0.5910
      3 C2          2.2875    1.4625   -0.0119 C.ar      1 <0>         0.5094
      4 C3          2.3582    0.0588   -0.0202 C.ar      1 <0>        -0.1091
      5 C4          1.1547   -0.6659   -0.0126 C.ar      1 <0>         0.3133
      6 N2          0.0021   -0.0041    0.0020 N.ar      1 <0>        -0.5496
      7 N3          1.5110   -1.9908   -0.0227 N.pl3     1 <0>        -0.4727
      8 C5          2.8729   -2.0476   -0.0358 C.2       1 <0>         0.2658
      9 N4          3.3680   -0.8441   -0.0343 N.2       1 <0>        -0.4592
     10 C6          0.5956   -3.1347   -0.0195 C.3       1 <0>         0.3146
     11 H1         -0.2832   -2.9148    0.5866 H         1 <0>         0.1283
     12 C7          0.1775   -3.4928   -1.4629 C.3       1 <0>         0.0815
     13 H2          0.9267   -3.1463   -2.1747 H         1 <0>         0.0895
     14 C8          0.1056   -5.0362   -1.4608 C.3       1 <0>         0.0509
     15 H3          0.8193   -5.4528   -2.1716 H         1 <0>         0.0915
     16 C9          0.4888   -5.4280   -0.0165 C.3       1 <0>         0.0331
     17 H4         -0.4066   -5.5617    0.5906 H         1 <0>         0.1214
     18 O1          1.2661   -4.3138    0.4763 O.3       1 <0>        -0.3270
     19 C10         1.3146   -6.6886   -0.0164 C.2       1 <0>         0.5225
     20 O2          2.4681   -6.6578    0.3568 O.2       1 <0>        -0.5011
     21 N5          0.7712   -7.8502   -0.4310 N.am      1 <0>        -0.6983
     22 C11         1.5740   -9.0756   -0.4308 C.3       1 <0>         0.0751
     23 C12         1.4712   -9.9876   -1.6550 C.3       1 <0>        -0.1897
     24 C13         0.8289  -10.4083   -0.3316 C.3       1 <0>        -0.1850
     25 O3         -1.2191   -5.4762   -1.7672 O.3       1 <0>        -0.5312
     26 O4         -1.0998   -2.9297   -1.7685 O.3       1 <0>        -0.5231
     27 N6          3.4393    2.2295   -0.0193 N.pl3     1 <0>        -0.8168
     28 H5         -0.9693    1.8187    0.0257 H         1 <0>         0.2064
     29 H6          3.4551   -2.9572   -0.0459 H         1 <0>         0.2258
     30 H7         -0.1514   -7.8748   -0.7294 H         1 <0>         0.3995
     31 H8          2.5430   -9.0028    0.0629 H         1 <0>         0.1418
     32 H9          0.8062   -9.6759   -2.4605 H         1 <0>         0.0986
     33 H10         2.3727  -10.5149   -1.9669 H         1 <0>         0.1062
     34 H11         1.3079  -11.2123    0.2272 H         1 <0>         0.1076
     35 H12        -0.2586  -10.3732   -0.2664 H         1 <0>         0.1000
     36 H13        -1.3212   -6.4377   -1.7794 H         1 <0>         0.3824
     37 H14        -1.4113   -3.1237   -2.6632 H         1 <0>         0.3921
     38 H15         3.3774    3.1975   -0.0138 H         1 <0>         0.4113
     39 H16         4.3085    1.7992   -0.0299 H         1 <0>         0.4193
@<TRIPOS>BOND
     1    1    6 ar
     2    1    2 ar
     3    1   28 1
     4    2    3 ar
     5    3    4 ar
     6    3   27 1
     7    4    9 1
     8    4    5 ar
     9    5    6 ar
    10    5    7 1
    11    7    8 1
    12    7   10 1
    13    8    9 2
    14    8   29 1
    15   10   11 1
    16   10   18 1
    17   10   12 1
    18   12   13 1
    19   12   14 1
    20   12   26 1
    21   14   15 1
    22   14   16 1
    23   14   25 1
    24   16   17 1
    25   16   18 1
    26   16   19 1
    27   19   20 2
    28   19   21 am
    29   21   22 1
    30   21   30 1
    31   22   24 1
    32   22   23 1
    33   22   31 1
    34   23   24 1
    35   23   32 1
    36   23   33 1
    37   24   34 1
    38   24   35 1
    39   25   36 1
    40   26   37 1
    41   27   38 1
    42   27   39 1
@<TRIPOS>MOLECULE
ZINC05163062
   39    42     0     0     0
SMALL
USER_CHARGES
(2S,3S,4R,5S)-5-(6-aminopurin-9-yl)-N-cyclopropyl-3,4-dihydroxy-tetrahydrofuran-2-carboxamide
@<TRIPOS>ATOM
      1 C1          8.6934   -4.3827   -1.6876 C.ar      1 <0>         0.3452
      2 N1          9.9544   -4.1683   -2.0167 N.ar      1 <0>        -0.5744
      3 C2         10.3497   -2.9951   -2.4997 C.ar      1 <0>         0.4472
      4 C3          9.3949   -1.9737   -2.6422 C.ar      1 <0>        -0.0604
      5 C4          8.0674   -2.2507   -2.2751 C.ar      1 <0>         0.2954
      6 N2          7.7647   -3.4579   -1.8084 N.ar      1 <0>        -0.5402
      7 N3          7.3603   -1.0999   -2.5161 N.pl3     1 <0>        -0.4596
      8 C5          8.2374   -0.1750   -2.9990 C.2       1 <0>         0.2968
      9 N4          9.4305   -0.6896   -3.0722 N.2       1 <0>        -0.4602
     10 C6          5.9267   -0.9000   -2.2899 C.3       1 <0>         0.3174
     11 H1          5.6070   -1.4139   -1.3834 H         1 <0>         0.1293
     12 C7          5.1080   -1.3884   -3.5120 C.3       1 <0>         0.0774
     13 H2          4.8945   -2.4546   -3.4361 H         1 <0>         0.0991
     14 C8          3.8096   -0.5547   -3.3867 C.3       1 <0>         0.0523
     15 H3          3.0268   -1.1382   -2.9021 H         1 <0>         0.0930
     16 C9          4.2134    0.6431   -2.5052 C.3       1 <0>         0.0413
     17 H4          4.0310    1.5751   -3.0402 H         1 <0>         0.1434
     18 O1          5.6151    0.5079   -2.2167 O.3       1 <0>        -0.3274
     19 C10         3.4222    0.6253   -1.2228 C.2       1 <0>         0.4937
     20 O2          3.9882    0.4572   -0.1634 O.2       1 <0>        -0.5082
     21 N5          2.0857    0.7962   -1.2531 N.am      1 <0>        -0.6981
     22 C11         1.3165    0.7789   -0.0063 C.3       1 <0>         0.0734
     23 C12        -0.0187    1.5258    0.0104 C.3       1 <0>        -0.1852
     24 C13         0.0021   -0.0041    0.0020 C.3       1 <0>        -0.1899
     25 O3          3.3772   -0.1060   -4.6727 O.3       1 <0>        -0.5383
     26 O4          5.7880   -1.0927   -4.7335 O.3       1 <0>        -0.5306
     27 N6         11.6735   -2.7794   -2.8404 N.pl3     1 <0>        -0.7426
     28 H5          8.4138   -5.3533   -1.3053 H         1 <0>         0.2066
     29 H6          7.9801    0.8357   -3.2797 H         1 <0>         0.2244
     30 H7          1.6330    0.9306   -2.1004 H         1 <0>         0.4008
     31 H8          1.9064    0.7818    0.9103 H         1 <0>         0.1406
     32 H9         -0.3248    2.0300   -0.9061 H         1 <0>         0.0993
     33 H10        -0.3072    2.0201    0.9381 H         1 <0>         0.1070
     34 H11        -0.2728   -0.5162    0.9241 H         1 <0>         0.1058
     35 H12        -0.2904   -0.5063   -0.9201 H         1 <0>         0.0983
     36 H13         2.6004    0.4693   -4.6479 H         1 <0>         0.3903
     37 H14         5.2766   -1.2981   -5.5281 H         1 <0>         0.3939
     38 H15        11.7331   -2.5361   -3.8085 H         1 <0>         0.3700
     39 H16        12.3232   -3.4923   -2.7375 H         1 <0>         0.3735
@<TRIPOS>BOND
     1    1    6 ar
     2    1    2 ar
     3    1   28 1
     4    2    3 ar
     5    3    4 ar
     6    3   27 1
     7    4    9 1
     8    4    5 ar
     9    5    6 ar
    10    5    7 1
    11    7    8 1
    12    7   10 1
    13    8    9 2
    14    8   29 1
    15   10   11 1
    16   10   18 1
    17   10   12 1
    18   12   13 1
    19   12   14 1
    20   12   26 1
    21   14   15 1
    22   14   16 1
    23   14   25 1
    24   16   17 1
    25   16   18 1
    26   16   19 1
    27   19   20 2
    28   19   21 am
    29   21   22 1
    30   21   30 1
    31   22   24 1
    32   22   23 1
    33   22   31 1
    34   23   24 1
    35   23   32 1
    36   23   33 1
    37   24   34 1
    38   24   35 1
    39   25   36 1
    40   26   37 1
    41   27   38 1
    42   27   39 1
@<TRIPOS>MOLECULE
ZINC13472701
   48    51     0     0     0
SMALL
USER_CHARGES
(2R,3R,4R,5R)-2-[6-(cyclopentylamino)purin-9-yl]-5-(hydroxymethyl)-3-methyl-tetrahydrofuran-3,4-diol
@<TRIPOS>ATOM
      1 C1         -0.4890    0.9397    2.4370 C.3       1 <0>        -0.1728
      2 C2         -0.6332    1.9830    1.3272 C.3       1 <0>         0.1055
      3 C3          0.1987    3.2426    1.6568 C.3       1 <0>         0.0529
      4 H1          0.7127    3.1221    2.6104 H         1 <0>         0.0878
      5 C4          1.2183    3.3324    0.4998 C.3       1 <0>         0.0497
      6 H2          0.8486    3.9969   -0.2811 H         1 <0>         0.0995
      7 O1          1.3291    1.9819    0.0000 O.3       1 <0>        -0.3453
      8 C5         -0.0178    1.4608    0.0101 C.3       1 <0>         0.3188
      9 H3         -0.5765    1.8367   -0.8470 H         1 <0>         0.1226
     10 N1          0.0021   -0.0041    0.0020 N.pl3     1 <0>        -0.4684
     11 C6          1.0268   -0.7992    0.4215 C.2       1 <0>         0.2726
     12 N2          0.7058   -2.0519    0.2762 N.2       1 <0>        -0.4531
     13 C7         -0.5385   -2.1402   -0.2524 C.ar      1 <0>        -0.0669
     14 C8         -1.0049   -0.8272   -0.4347 C.ar      1 <0>         0.3025
     15 N3         -2.2168   -0.6374   -0.9458 N.ar      1 <0>        -0.5289
     16 C9         -2.9726   -1.6626   -1.2788 C.ar      1 <0>         0.3456
     17 N4         -2.5778   -2.9134   -1.1262 N.ar      1 <0>        -0.5673
     18 C10        -1.3820   -3.2011   -0.6226 C.ar      1 <0>         0.4418
     19 N5         -0.9773   -4.5152   -0.4660 N.pl3     1 <0>        -0.5950
     20 C11        -1.8705   -5.6084   -0.8576 C.3       1 <0>         0.0851
     21 C12        -2.8087   -5.9692    0.3126 C.3       1 <0>        -0.1122
     22 C13        -2.9441   -7.5106    0.2286 C.3       1 <0>        -0.1252
     23 C14        -1.5186   -7.9580   -0.1797 C.3       1 <0>        -0.1204
     24 C15        -1.0507   -6.8724   -1.1709 C.3       1 <0>        -0.1284
     25 C16         2.5726    3.8217    1.0170 C.3       1 <0>         0.0823
     26 O2          3.4858    3.9389   -0.0759 O.3       1 <0>        -0.5626
     27 O3         -0.6341    4.4036    1.6816 O.3       1 <0>        -0.5391
     28 O4         -2.0072    2.3262    1.1364 O.3       1 <0>        -0.5219
     29 H4          0.5674    0.7264    2.6001 H         1 <0>         0.0741
     30 H5         -0.9281    1.3251    3.3572 H         1 <0>         0.0738
     31 H6         -1.0035    0.0245    2.1444 H         1 <0>         0.0709
     32 H7          1.9658   -0.4421    0.8181 H         1 <0>         0.2235
     33 H8         -3.9524   -1.4735   -1.6920 H         1 <0>         0.2054
     34 H9         -0.1494   -4.6753   -1.0036 H         1 <0>         0.3670
     35 H10        -2.4561   -5.3175   -1.7297 H         1 <0>         0.0759
     36 H11        -2.3627   -5.6768    1.2632 H         1 <0>         0.0732
     37 H12        -3.7804   -5.4925    0.1833 H         1 <0>         0.0678
     38 H13        -3.6706   -7.7929   -0.5334 H         1 <0>         0.0676
     39 H14        -3.2185   -7.9306    1.1963 H         1 <0>         0.0683
     40 H15        -1.5495   -8.9322   -0.6676 H         1 <0>         0.0672
     41 H16        -0.8638   -7.9871    0.6912 H         1 <0>         0.0689
     42 H17        -1.2391   -7.1954   -2.1947 H         1 <0>         0.0731
     43 H18         0.0118   -6.6722   -1.0323 H         1 <0>         0.0737
     44 H19         2.4497    4.7942    1.4936 H         1 <0>         0.0674
     45 H20         2.9637    3.1084    1.7425 H         1 <0>         0.0606
     46 H21         4.3669    4.2451    0.1789 H         1 <0>         0.3868
     47 H22        -0.1528    5.2299    1.8259 H         1 <0>         0.3871
     48 H23        -2.4434    2.6602    1.9322 H         1 <0>         0.3888
@<TRIPOS>BOND
     1    1    2 1
     2    1   29 1
     3    1   30 1
     4    1   31 1
     5    2    8 1
     6    2    3 1
     7    2   28 1
     8    3    4 1
     9    3    5 1
    10    3   27 1
    11    5    6 1
    12    5    7 1
    13    5   25 1
    14    7    8 1
    15    8    9 1
    16    8   10 1
    17   10   14 1
    18   10   11 1
    19   11   12 2
    20   11   32 1
    21   12   13 1
    22   13   18 ar
    23   13   14 ar
    24   14   15 ar
    25   15   16 ar
    26   16   17 ar
    27   16   33 1
    28   17   18 ar
    29   18   19 1
    30   19   20 1
    31   19   34 1
    32   20   24 1
    33   20   21 1
    34   20   35 1
    35   21   22 1
    36   21   36 1
    37   21   37 1
    38   22   23 1
    39   22   38 1
    40   22   39 1
    41   23   24 1
    42   23   40 1
    43   23   41 1
    44   24   42 1
    45   24   43 1
    46   25   26 1
    47   25   44 1
    48   25   45 1
    49   26   46 1
    50   27   47 1
    51   28   48 1
@<TRIPOS>MOLECULE
ZINC03779696
   52    54     0     0     0
SMALL
USER_CHARGES

@<TRIPOS>ATOM
      1 C1         -0.0187    1.5258    0.0104 C.3       1 <0>        -0.1548
      2 C2          0.0021   -0.0041    0.0020 C.3       1 <0>        -0.1251
      3 C3         -1.4333   -0.5336    0.0129 C.3       1 <0>        -0.1180
      4 C4         -1.4126   -2.0635    0.0045 C.3       1 <0>        -0.0123
      5 C5         -2.7935   -2.5730    0.0149 C.1       1 <0>        -0.0834
      6 C6         -3.8949   -2.9793    0.0232 C.1       1 <0>        -0.1295
      7 C7         -5.2384   -3.4750    0.0334 C.ar      1 <0>         0.5012
      8 N1         -6.2446   -2.6047    0.0423 N.ar      1 <0>        -0.5722
      9 C8         -7.5060   -3.0157    0.0519 C.ar      1 <0>         0.5145
     10 C9         -7.7634   -4.3990    0.0525 C.ar      1 <0>        -0.1032
     11 C10        -6.6687   -5.2815    0.0430 C.ar      1 <0>         0.3168
     12 N2         -5.4377   -4.7857    0.0283 N.ar      1 <0>        -0.5292
     13 N3         -7.2025   -6.5461    0.0459 N.pl3     1 <0>        -0.4710
     14 C11        -8.5595   -6.4163    0.0568 C.2       1 <0>         0.2699
     15 N4         -8.8860   -5.1563    0.0607 N.2       1 <0>        -0.4570
     16 C12        -6.4518   -7.8041    0.0383 C.3       1 <0>         0.3136
     17 H1         -5.5499   -7.7034   -0.5655 H         1 <0>         0.1284
     18 C13        -6.0894   -8.2229    1.4804 C.3       1 <0>         0.0807
     19 H2         -6.7858   -7.7808    2.1929 H         1 <0>         0.0898
     20 C14        -6.2288   -9.7617    1.4708 C.3       1 <0>         0.0517
     21 H3         -6.9941  -10.0803    2.1785 H         1 <0>         0.0913
     22 C15        -6.6589  -10.0906    0.0239 C.3       1 <0>         0.0317
     23 H4         -5.7889  -10.3423   -0.5826 H         1 <0>         0.1204
     24 O1         -7.2759   -8.8784   -0.4644 O.3       1 <0>        -0.3269
     25 C16        -7.6490  -11.2266    0.0164 C.2       1 <0>         0.5169
     26 O2         -8.7868  -11.0369   -0.3582 O.2       1 <0>        -0.5039
     27 N5         -7.2701  -12.4535    0.4259 N.am      1 <0>        -0.7269
     28 C17        -8.2326  -13.5579    0.4185 C.3       1 <0>         0.1138
     29 C18        -7.5522  -14.8308    0.9262 C.3       1 <0>        -0.1674
     30 O3         -4.9772  -10.3797    1.7767 O.3       1 <0>        -0.5314
     31 O4         -4.7478   -7.8409    1.7906 O.3       1 <0>        -0.5230
     32 N6         -8.5465   -2.1032    0.0615 N.pl3     1 <0>        -0.8142
     33 H5          1.0039    1.9031    0.0027 H         1 <0>         0.0551
     34 H6         -0.5459    1.8868   -0.8726 H         1 <0>         0.0543
     35 H7         -0.5289    1.8773    0.9072 H         1 <0>         0.0547
     36 H8          0.5123   -0.3556   -0.8948 H         1 <0>         0.0645
     37 H9          0.5293   -0.3651    0.8851 H         1 <0>         0.0647
     38 H10        -1.9435   -0.1821    0.9097 H         1 <0>         0.0696
     39 H11        -1.9605   -0.1726   -0.8702 H         1 <0>         0.0681
     40 H12        -0.9024   -2.4150   -0.8923 H         1 <0>         0.0952
     41 H13        -0.8854   -2.4246    0.8875 H         1 <0>         0.0959
     42 H14        -9.2604   -7.2380    0.0610 H         1 <0>         0.2280
     43 H15        -6.3601  -12.6052    0.7255 H         1 <0>         0.3984
     44 H16        -9.0731  -13.3117    1.0673 H         1 <0>         0.0723
     45 H17        -8.5929  -13.7190   -0.5975 H         1 <0>         0.0728
     46 H18        -7.1919  -14.6696    1.9422 H         1 <0>         0.0634
     47 H19        -8.2684  -15.6525    0.9207 H         1 <0>         0.0790
     48 H20        -6.7117  -15.0770    0.2774 H         1 <0>         0.0643
     49 H21        -5.0073  -11.3462    1.7843 H         1 <0>         0.3828
     50 H22        -4.4676   -8.0798    2.6847 H         1 <0>         0.3920
     51 H23        -8.3573   -1.1519    0.0613 H         1 <0>         0.4122
     52 H24        -9.4650   -2.4150    0.0685 H         1 <0>         0.4212
@<TRIPOS>BOND
     1    1    2 1
     2    1   33 1
     3    1   34 1
     4    1   35 1
     5    2    3 1
     6    2   36 1
     7    2   37 1
     8    3    4 1
     9    3   38 1
    10    3   39 1
    11    4    5 1
    12    4   40 1
    13    4   41 1
    14    5    6 3
    15    6    7 1
    16    7   12 ar
    17    7    8 ar
    18    8    9 ar
    19    9   10 ar
    20    9   32 1
    21   10   15 1
    22   10   11 ar
    23   11   12 ar
    24   11   13 1
    25   13   14 1
    26   13   16 1
    27   14   15 2
    28   14   42 1
    29   16   17 1
    30   16   24 1
    31   16   18 1
    32   18   19 1
    33   18   20 1
    34   18   31 1
    35   20   21 1
    36   20   22 1
    37   20   30 1
    38   22   23 1
    39   22   24 1
    40   22   25 1
    41   25   26 2
    42   25   27 am
    43   27   28 1
    44   27   43 1
    45   28   29 1
    46   28   44 1
    47   28   45 1
    48   29   46 1
    49   29   47 1
    50   29   48 1
    51   30   49 1
    52   31   50 1
    53   32   51 1
    54   32   52 1
@<TRIPOS>MOLECULE
ZINC02169849
   42    45     0     0     0
SMALL
USER_CHARGES

@<TRIPOS>ATOM
      1 C1         -0.0162    1.3409    0.0094 C.2       1 <0>        -0.2188
      2 C2          1.3313    1.7689   -0.0012 C.2       1 <0>        -0.1786
      3 C3          2.0923    0.6599   -0.0144 C.2       1 <0>        -0.0445
      4 O1          1.2819   -0.4111   -0.0124 O.3       1 <0>        -0.1709
      5 C4          0.0021   -0.0041    0.0020 C.2       1 <0>        -0.0250
      6 C5          3.5989    0.6249   -0.0294 C.3       1 <0>         0.2124
      7 N1          4.1006    0.6065    1.3469 N.pl3     1 <0>        -0.6931
      8 C6          5.4633    0.5737    1.5862 C.ar      1 <0>         0.5079
      9 C7          5.9623    0.5497    2.8999 C.ar      1 <0>        -0.1049
     10 C8          7.3553    0.5168    3.0797 C.ar      1 <0>         0.3142
     11 N2          8.1447    0.5092    2.0104 N.ar      1 <0>        -0.5482
     12 C9          7.6325    0.5321    0.7982 C.ar      1 <0>         0.3657
     13 N3          6.3303    0.5585    0.5792 N.ar      1 <0>        -0.5882
     14 N4          7.5612    0.4995    4.4360 N.pl3     1 <0>        -0.4714
     15 C10         6.3372    0.5213    5.0355 C.2       1 <0>         0.2637
     16 N5          5.4005    0.5507    4.1325 N.2       1 <0>        -0.4603
     17 C11         8.8587    0.4636    5.1154 C.3       1 <0>         0.3139
     18 H1          9.5655   -0.1438    4.5501 H         1 <0>         0.1233
     19 C12         9.4083    1.8954    5.3011 C.3       1 <0>         0.0797
     20 H2          8.5943    2.6203    5.2976 H         1 <0>         0.0853
     21 C13        10.0939    1.8578    6.6852 C.3       1 <0>         0.0474
     22 H3          9.6189    2.5642    7.3660 H         1 <0>         0.0870
     23 C14         9.8774    0.4078    7.1721 C.3       1 <0>         0.0504
     24 H4         10.7413   -0.2088    6.9239 H         1 <0>         0.1003
     25 O2          8.7103   -0.0539    6.4555 O.3       1 <0>        -0.3469
     26 C15         9.6236    0.3848    8.6807 C.3       1 <0>         0.0820
     27 O3          9.5420   -0.9695    9.1294 O.3       1 <0>        -0.5635
     28 O4         11.4883    2.1443    6.5612 O.3       1 <0>        -0.5387
     29 O5         10.3566    2.2043    4.2777 O.3       1 <0>        -0.5253
     30 H5         -0.8920    1.9726    0.0252 H         1 <0>         0.1517
     31 H6          1.6822    2.7903    0.0004 H         1 <0>         0.1512
     32 H7         -0.8653   -0.6475    0.0072 H         1 <0>         0.2060
     33 H8          3.9364   -0.2706   -0.5512 H         1 <0>         0.0891
     34 H9          3.9777    1.5089   -0.5424 H         1 <0>         0.1031
     35 H10         3.4778    0.6173    2.0904 H         1 <0>         0.4208
     36 H11         8.3020    0.5254   -0.0492 H         1 <0>         0.2065
     37 H12         6.1695    0.5150    6.1024 H         1 <0>         0.2232
     38 H13        10.4420    0.8891    9.1945 H         1 <0>         0.0671
     39 H14         8.6867    0.8971    8.8994 H         1 <0>         0.0610
     40 H15         9.3819   -1.0604   10.0787 H         1 <0>         0.3868
     41 H16        11.9682    2.1340    7.4007 H         1 <0>         0.3874
     42 H17        10.7339    3.0920    4.3461 H         1 <0>         0.3907
@<TRIPOS>BOND
     1    1    5 2
     2    1    2 1
     3    1   30 1
     4    2    3 2
     5    2   31 1
     6    3    4 1
     7    3    6 1
     8    4    5 1
     9    5   32 1
    10    6    7 1
    11    6   33 1
    12    6   34 1
    13    7    8 1
    14    7   35 1
    15    8   13 ar
    16    8    9 ar
    17    9   16 1
    18    9   10 ar
    19   10   11 ar
    20   10   14 1
    21   11   12 ar
    22   12   13 ar
    23   12   36 1
    24   14   15 1
    25   14   17 1
    26   15   16 2
    27   15   37 1
    28   17   18 1
    29   17   25 1
    30   17   19 1
    31   19   20 1
    32   19   21 1
    33   19   29 1
    34   21   22 1
    35   21   23 1
    36   21   28 1
    37   23   24 1
    38   23   25 1
    39   23   26 1
    40   26   27 1
    41   26   38 1
    42   26   39 1
    43   27   40 1
    44   28   41 1
    45   29   42 1
@<TRIPOS>MOLECULE
ZINC04475322
   51    54     0     0     0
SMALL
USER_CHARGES

@<TRIPOS>ATOM
      1 C1         -0.0187    1.5258    0.0104 C.3       1 <0>        -0.1631
      2 C2          0.0021   -0.0041    0.0020 C.3       1 <0>         0.1538
      3 H1          0.5293   -0.3651    0.8851 H         1 <0>         0.0970
      4 C3          0.7182   -0.4975   -1.2568 C.3       1 <0>        -0.0915
      5 C4          0.8473   -1.9981   -1.2057 C.ar      1 <0>        -0.0833
      6 C5          1.9579   -2.5768   -0.6205 C.ar      1 <0>        -0.1153
      7 C6          2.0763   -3.9532   -0.5737 C.ar      1 <0>        -0.1179
      8 C7          1.0839   -4.7510   -1.1116 C.ar      1 <0>        -0.1236
      9 C8         -0.0272   -4.1724   -1.6960 C.ar      1 <0>        -0.1166
     10 C9         -0.1477   -2.7959   -1.7390 C.ar      1 <0>        -0.1114
     11 N1         -1.3723   -0.5112    0.0124 N.pl3     1 <0>        -0.6847
     12 C10        -2.0462   -0.6591    1.2121 C.ar      1 <0>         0.5114
     13 C11        -3.3630   -1.1495    1.2414 C.ar      1 <0>        -0.1076
     14 C12        -3.9954   -1.2776    2.4893 C.ar      1 <0>         0.3133
     15 N2         -3.3315   -0.9338    3.5883 N.ar      1 <0>        -0.5521
     16 C13        -2.0986   -0.4792    3.5127 C.ar      1 <0>         0.3641
     17 N3         -1.4615   -0.3459    2.3635 N.ar      1 <0>        -0.5871
     18 N4         -5.2495   -1.7694    2.2292 N.pl3     1 <0>        -0.4716
     19 C14        -5.3550   -1.9261    0.8792 C.2       1 <0>         0.2599
     20 N5         -4.2472   -1.5619    0.3015 N.2       1 <0>        -0.4591
     21 C15        -6.2852   -2.0711    3.2205 C.3       1 <0>         0.3143
     22 H2         -5.8341   -2.4623    4.1324 H         1 <0>         0.1224
     23 C16        -7.1166   -0.8068    3.5314 C.3       1 <0>         0.0799
     24 H3         -7.0713   -0.1054    2.6982 H         1 <0>         0.0849
     25 C17        -8.5557   -1.3392    3.7133 C.3       1 <0>         0.0472
     26 H4         -9.2218   -0.9010    2.9700 H         1 <0>         0.0868
     27 C18        -8.4234   -2.8621    3.4907 C.3       1 <0>         0.0504
     28 H5         -8.3019   -3.3758    4.4444 H         1 <0>         0.1000
     29 O1         -7.2349   -3.0173    2.6833 O.3       1 <0>        -0.3469
     30 C19        -9.6487   -3.4004    2.7493 C.3       1 <0>         0.0822
     31 O2         -9.5620   -4.8238    2.6564 O.3       1 <0>        -0.5634
     32 O3         -9.0288   -1.0625    5.0330 O.3       1 <0>        -0.5387
     33 O4         -6.6539   -0.1861    4.7325 O.3       1 <0>        -0.5251
     34 H6          1.0039    1.9031    0.0027 H         1 <0>         0.0681
     35 H7         -0.5459    1.8868   -0.8726 H         1 <0>         0.0555
     36 H8         -0.5289    1.8773    0.9072 H         1 <0>         0.0645
     37 H9          0.1430   -0.2121   -2.1375 H         1 <0>         0.0786
     38 H10         1.7103   -0.0491   -1.3098 H         1 <0>         0.0924
     39 H11         2.7333   -1.9534   -0.2002 H         1 <0>         0.1218
     40 H12         2.9444   -4.4053   -0.1171 H         1 <0>         0.1212
     41 H13         1.1767   -5.8264   -1.0757 H         1 <0>         0.1199
     42 H14        -0.8025   -4.7957   -2.1166 H         1 <0>         0.1203
     43 H15        -1.0175   -2.3439   -2.1923 H         1 <0>         0.1175
     44 H16        -1.8100   -0.7432   -0.8215 H         1 <0>         0.4144
     45 H17        -1.5876   -0.2084    4.4248 H         1 <0>         0.2035
     46 H18        -6.2290   -2.2977    0.3649 H         1 <0>         0.2215
     47 H19       -10.5523   -3.1263    3.2938 H         1 <0>         0.0670
     48 H20        -9.6843   -2.9724    1.7475 H         1 <0>         0.0609
     49 H21       -10.3074   -5.2341    2.1971 H         1 <0>         0.3867
     50 H22        -9.9281   -1.3753    5.2020 H         1 <0>         0.3872
     51 H23        -7.1412    0.6131    4.9751 H         1 <0>         0.3903
@<TRIPOS>BOND
     1    1    2 1
     2    1   34 1
     3    1   35 1
     4    1   36 1
     5    2    3 1
     6    2    4 1
     7    2   11 1
     8    4    5 1
     9    4   37 1
    10    4   38 1
    11    5   10 ar
    12    5    6 ar
    13    6    7 ar
    14    6   39 1
    15    7    8 ar
    16    7   40 1
    17    8    9 ar
    18    8   41 1
    19    9   10 ar
    20    9   42 1
    21   10   43 1
    22   11   12 1
    23   11   44 1
    24   12   17 ar
    25   12   13 ar
    26   13   20 1
    27   13   14 ar
    28   14   15 ar
    29   14   18 1
    30   15   16 ar
    31   16   17 ar
    32   16   45 1
    33   18   19 1
    34   18   21 1
    35   19   20 2
    36   19   46 1
    37   21   22 1
    38   21   29 1
    39   21   23 1
    40   23   24 1
    41   23   25 1
    42   23   33 1
    43   25   26 1
    44   25   27 1
    45   25   32 1
    46   27   28 1
    47   27   29 1
    48   27   30 1
    49   30   31 1
    50   30   47 1
    51   30   48 1
    52   31   49 1
    53   32   50 1
    54   33   51 1
@<TRIPOS>MOLECULE
ZINC01999286
   31    33     0     0     0
SMALL
USER_CHARGES
2-(6-aminopurin-9-yl)-5-methyl-tetrahydrofuran-3,4-diol
@<TRIPOS>ATOM
      1 C1         -3.2603    2.2236   -1.3716 C.3       1 <0>        -0.1508
      2 C2         -1.9793    2.4081   -0.5557 C.3       1 <0>         0.0467
      3 H1         -1.7288    3.4661   -0.4781 H         1 <0>         0.0932
      4 C3         -0.8114    1.6231   -1.2006 C.3       1 <0>         0.0433
      5 H2         -1.1914    0.7988   -1.8041 H         1 <0>         0.0865
      6 C4         -0.0127    1.0858    0.0080 C.3       1 <0>         0.0766
      7 H3          0.0021   -0.0041    0.0020 H         1 <0>         0.0829
      8 C5         -0.7879    1.6099    1.2371 C.3       1 <0>         0.3156
      9 H4         -0.3528    2.5450    1.5898 H         1 <0>         0.1226
     10 O1         -2.1328    1.8300    0.7589 O.3       1 <0>        -0.3565
     11 N1         -0.7823    0.6101    2.3080 N.pl3     1 <0>        -0.4734
     12 C6         -1.7541   -0.3137    2.5541 C.2       1 <0>         0.2733
     13 N2         -1.4250   -1.0423    3.5810 N.2       1 <0>        -0.4542
     14 C7         -0.2246   -0.6337    4.0577 C.ar      1 <0>        -0.0675
     15 C8          0.2048    0.4279    3.2433 C.ar      1 <0>         0.3016
     16 N3          1.3668    1.0159    3.5081 N.ar      1 <0>        -0.5266
     17 C9          2.1130    0.6056    4.5120 C.ar      1 <0>         0.3465
     18 N4          1.7541   -0.3904    5.3011 N.ar      1 <0>        -0.5733
     19 C10         0.6066   -1.0353    5.1170 C.ar      1 <0>         0.4471
     20 N5          0.2389   -2.0779    5.9495 N.pl3     1 <0>        -0.7435
     21 O2          1.3192    1.6034   -0.0019 O.3       1 <0>        -0.5278
     22 O3          0.0020    2.4914   -1.9922 O.3       1 <0>        -0.5423
     23 H5         -4.0842    2.7366   -0.8754 H         1 <0>         0.0746
     24 H6         -3.1197    2.6417   -2.3684 H         1 <0>         0.0790
     25 H7         -3.4898    1.1611   -1.4524 H         1 <0>         0.0698
     26 H8         -2.6630   -0.4245    1.9814 H         1 <0>         0.2268
     27 H9          3.0541    1.1021    4.6970 H         1 <0>         0.2074
     28 H10        -0.6251   -1.8551    6.4009 H         1 <0>         0.3699
     29 H11         0.8213   -2.3459    6.6774 H         1 <0>         0.3739
     30 H12         1.8419    1.3296   -0.7680 H         1 <0>         0.3910
     31 H13        -0.4498    2.8576   -2.7648 H         1 <0>         0.3874
@<TRIPOS>BOND
     1    1    2 1
     2    1   23 1
     3    1   24 1
     4    1   25 1
     5    2    3 1
     6    2   10 1
     7    2    4 1
     8    4    5 1
     9    4    6 1
    10    4   22 1
    11    6    7 1
    12    6    8 1
    13    6   21 1
    14    8    9 1
    15    8   10 1
    16    8   11 1
    17   11   15 1
    18   11   12 1
    19   12   13 2
    20   12   26 1
    21   13   14 1
    22   14   19 ar
    23   14   15 ar
    24   15   16 ar
    25   16   17 ar
    26   17   18 ar
    27   17   27 1
    28   18   19 ar
    29   19   20 1
    30   20   28 1
    31   20   29 1
    32   21   30 1
    33   22   31 1
@<TRIPOS>MOLECULE
ZINC04475069
   50    53     0     0     0
SMALL
USER_CHARGES

@<TRIPOS>ATOM
      1 C1         -0.0178    1.4608    0.0101 C.3       1 <0>         0.0859
      2 N1          0.0021   -0.0041    0.0020 N.am      1 <0>        -0.7309
      3 C2          0.6044   -0.6754    1.0035 C.2       1 <0>         0.5150
      4 O1          1.1299   -0.0668    1.9115 O.2       1 <0>        -0.5024
      5 C3          0.6248   -2.1822    0.9953 C.3       1 <0>         0.0320
      6 H1          1.0638   -2.5538    0.0694 H         1 <0>         0.1223
      7 C4         -0.8052   -2.7485    1.1872 C.3       1 <0>         0.0506
      8 H2         -1.3738   -2.1392    1.8896 H         1 <0>         0.0947
      9 C5         -0.5219   -4.1517    1.7765 C.3       1 <0>         0.0833
     10 H3         -1.2339   -4.3838    2.5685 H         1 <0>         0.0899
     11 C6          0.9044   -4.0400    2.3492 C.3       1 <0>         0.3147
     12 H4          1.5682   -4.7296    1.8278 H         1 <0>         0.1312
     13 O2          1.3471   -2.6872    2.1389 O.3       1 <0>        -0.3272
     14 N2          0.8917   -4.3480    3.7814 N.pl3     1 <0>        -0.4757
     15 C7          0.7998   -3.4462    4.7996 C.2       1 <0>         0.2629
     16 N3          0.8166   -4.0649    5.9444 N.2       1 <0>        -0.4575
     17 C8          0.9202   -5.3992    5.7343 C.ar      1 <0>        -0.1061
     18 C9          0.9640   -5.5973    4.3438 C.ar      1 <0>         0.3098
     19 N4          1.0605   -6.8353    3.8704 N.ar      1 <0>        -0.5571
     20 C10         1.1117   -7.8647    4.6895 C.ar      1 <0>         0.3662
     21 N5          1.0704   -7.7286    6.0023 N.ar      1 <0>        -0.5881
     22 C11         0.9832   -6.5288    6.5676 C.ar      1 <0>         0.5067
     23 N6          0.9394   -6.3964    7.9444 N.pl3     1 <0>        -0.6873
     24 C12         1.0064   -7.5857    8.7972 C.3       1 <0>         0.1770
     25 C13         0.9400   -7.1705   10.2444 C.ar      1 <0>        -0.1749
     26 C14         2.1041   -6.8866   10.9347 C.ar      1 <0>        -0.0469
     27 C15         2.0468   -6.5058   12.2610 C.ar      1 <0>        -0.2015
     28 C16         0.8181   -6.4082   12.9015 C.ar      1 <0>         0.2259
     29 C17        -0.3494   -6.6941   12.2051 C.ar      1 <0>        -0.2018
     30 C18        -0.2853   -7.0688   10.8774 C.ar      1 <0>        -0.0472
     31 N7          0.7565   -6.0238   14.2429 N.pl3     1 <0>        -0.8769
     32 O3         -0.5754   -5.1452    0.7507 O.3       1 <0>        -0.5314
     33 O4         -1.4863   -2.8486   -0.0651 O.3       1 <0>        -0.5364
     34 H5          1.0048    1.8381    0.0023 H         1 <0>         0.0656
     35 H6         -0.5450    1.8219   -0.8730 H         1 <0>         0.0828
     36 H7         -0.5280    1.8123    0.9069 H         1 <0>         0.0652
     37 H8         -0.4183   -0.4908   -0.7241 H         1 <0>         0.3996
     38 H9          0.7244   -2.3761    4.6746 H         1 <0>         0.2234
     39 H10         1.1899   -8.8577    4.2720 H         1 <0>         0.2050
     40 H11         0.8644   -5.5161    8.3448 H         1 <0>         0.4186
     41 H12         0.1680   -8.2439    8.5692 H         1 <0>         0.0765
     42 H13         1.9426   -8.1126    8.6130 H         1 <0>         0.0763
     43 H14         3.0591   -6.9630   10.4362 H         1 <0>         0.1230
     44 H15         2.9564   -6.2846   12.7997 H         1 <0>         0.1215
     45 H16        -1.3063   -6.6195   12.7002 H         1 <0>         0.1214
     46 H17        -1.1928   -7.2870   10.3341 H         1 <0>         0.1227
     47 H18         1.5724   -5.8247   14.7283 H         1 <0>         0.3993
     48 H19        -0.1021   -5.9560   14.6891 H         1 <0>         0.3992
     49 H20        -1.4367   -5.2168    0.3170 H         1 <0>         0.3966
     50 H21        -1.6069   -2.0017   -0.5160 H         1 <0>         0.3842
@<TRIPOS>BOND
     1    1    2 1
     2    1   34 1
     3    1   35 1
     4    1   36 1
     5    2    3 am
     6    2   37 1
     7    3    4 2
     8    3    5 1
     9    5    6 1
    10    5   13 1
    11    5    7 1
    12    7    8 1
    13    7    9 1
    14    7   33 1
    15    9   10 1
    16    9   11 1
    17    9   32 1
    18   11   12 1
    19   11   13 1
    20   11   14 1
    21   14   18 1
    22   14   15 1
    23   15   16 2
    24   15   38 1
    25   16   17 1
    26   17   22 ar
    27   17   18 ar
    28   18   19 ar
    29   19   20 ar
    30   20   21 ar
    31   20   39 1
    32   21   22 ar
    33   22   23 1
    34   23   24 1
    35   23   40 1
    36   24   25 1
    37   24   41 1
    38   24   42 1
    39   25   30 ar
    40   25   26 ar
    41   26   27 ar
    42   26   43 1
    43   27   28 ar
    44   27   44 1
    45   28   29 ar
    46   28   31 1
    47   29   30 ar
    48   29   45 1
    49   30   46 1
    50   31   47 1
    51   31   48 1
    52   32   49 1
    53   33   50 1
@<TRIPOS>MOLECULE
ZINC08660486
   50    53     0     0     0
SMALL
USER_CHARGES
5-[6-[(4-amino-3-iodo-phenyl)methylamino]purin-9-yl]-3,4-dihydroxy-N-methyl-tetrahydrofuran-2-carboxamide
@<TRIPOS>ATOM
      1 C1          7.1879   -2.3345  -11.2516 C.3       1 <0>         0.0858
      2 N1          7.5223   -2.6124   -9.8526 N.am      1 <0>        -0.7307
      3 C2          7.1980   -1.7234   -8.8929 C.2       1 <0>         0.5155
      4 O1          6.6294   -0.6935   -9.1874 O.2       1 <0>        -0.5026
      5 C3          7.5419   -2.0093   -7.4538 C.3       1 <0>         0.0331
      6 H1          8.6150   -2.1631   -7.3401 H         1 <0>         0.1231
      7 C4          6.7563   -3.2424   -6.9394 C.3       1 <0>         0.0507
      8 H2          5.7467   -3.2594   -7.3500 H         1 <0>         0.0948
      9 C5          6.7272   -2.9943   -5.4116 C.3       1 <0>         0.0820
     10 H3          5.7525   -3.2574   -5.0008 H         1 <0>         0.0900
     11 C6          6.9816   -1.4810   -5.2698 C.3       1 <0>         0.3144
     12 H4          7.9085   -1.3107   -4.7222 H         1 <0>         0.1321
     13 O2          7.0880   -0.9394   -6.5971 O.3       1 <0>        -0.3274
     14 N2          5.8630   -0.8519   -4.5633 N.pl3     1 <0>        -0.4771
     15 C7          4.7850   -0.2460   -5.1371 C.2       1 <0>         0.2756
     16 N3          3.9848    0.2041   -4.2147 N.2       1 <0>        -0.4511
     17 C8          4.4940   -0.0886   -2.9939 C.ar      1 <0>        -0.0629
     18 C9          5.7081   -0.7646   -3.2029 C.ar      1 <0>         0.2978
     19 N4          6.4155   -1.1621   -2.1505 N.ar      1 <0>        -0.5326
     20 C10         5.9909   -0.9230   -0.9276 C.ar      1 <0>         0.3472
     21 N5          4.8599   -0.2875   -0.6815 N.ar      1 <0>        -0.5681
     22 C11         4.0856    0.1475   -1.6704 C.ar      1 <0>         0.4431
     23 N6          2.9019    0.8127   -1.4026 N.pl3     1 <0>        -0.5961
     24 C12         2.4894    1.0445   -0.0161 C.3       1 <0>         0.1166
     25 C13         1.1757    1.7827    0.0004 C.ar      1 <0>        -0.1498
     26 C14         1.1615    3.1656    0.0075 C.ar      1 <0>        -0.0399
     27 C15        -0.0405    3.8455    0.0226 C.ar      1 <0>        -0.1929
     28 C16        -1.2364    3.1389    0.0303 C.ar      1 <0>         0.2564
     29 C17        -1.2188    1.7496    0.0173 C.ar      1 <0>        -0.1816
     30 C18        -0.0126    1.0758    0.0080 C.ar      1 <0>        -0.0070
     31 I1         -3.0189    0.6778    0.0200 I         1 <0>        -0.0462
     32 N7         -2.4540    3.8235    0.0455 N.pl3     1 <0>        -0.8709
     33 O3          7.7599   -3.7381   -4.7617 O.3       1 <0>        -0.5311
     34 O4          7.4494   -4.4538   -7.2462 O.3       1 <0>        -0.5351
     35 H5          7.5259   -3.1608  -11.8770 H         1 <0>         0.0829
     36 H6          6.1085   -2.2211  -11.3516 H         1 <0>         0.0654
     37 H7          7.6807   -1.4148  -11.5672 H         1 <0>         0.0657
     38 H8          7.9770   -3.4362   -9.6171 H         1 <0>         0.3997
     39 H9          4.6192   -0.1536   -6.2002 H         1 <0>         0.2267
     40 H10         6.5898   -1.2596   -0.0943 H         1 <0>         0.2069
     41 H11         2.9373    1.7294   -1.8006 H         1 <0>         0.3688
     42 H12         3.2470    1.6396    0.4937 H         1 <0>         0.0645
     43 H13         2.3751    0.0878    0.4937 H         1 <0>         0.0910
     44 H14         2.0916    3.7145    0.0016 H         1 <0>         0.1280
     45 H15        -0.0506    4.9254    0.0289 H         1 <0>         0.1306
     46 H16         0.0021   -0.0041    0.0020 H         1 <0>         0.1295
     47 H17        -2.4650    4.7935    0.0508 H         1 <0>         0.4032
     48 H18        -3.2885    3.3290    0.0509 H         1 <0>         0.4010
     49 H19         7.6499   -4.6971   -4.8197 H         1 <0>         0.3969
     50 H20         7.4942   -4.6528   -8.1915 H         1 <0>         0.3843
@<TRIPOS>BOND
     1    1    2 1
     2    1   35 1
     3    1   36 1
     4    1   37 1
     5    2    3 am
     6    2   38 1
     7    3    4 2
     8    3    5 1
     9    5    6 1
    10    5   13 1
    11    5    7 1
    12    7    8 1
    13    7    9 1
    14    7   34 1
    15    9   10 1
    16    9   11 1
    17    9   33 1
    18   11   12 1
    19   11   13 1
    20   11   14 1
    21   14   18 1
    22   14   15 1
    23   15   16 2
    24   15   39 1
    25   16   17 1
    26   17   22 ar
    27   17   18 ar
    28   18   19 ar
    29   19   20 ar
    30   20   21 ar
    31   20   40 1
    32   21   22 ar
    33   22   23 1
    34   23   24 1
    35   23   41 1
    36   24   25 1
    37   24   42 1
    38   24   43 1
    39   25   30 ar
    40   25   26 ar
    41   26   27 ar
    42   26   44 1
    43   27   28 ar
    44   27   45 1
    45   28   29 ar
    46   28   32 1
    47   29   30 ar
    48   29   31 1
    49   30   46 1
    50   32   47 1
    51   32   48 1
    52   33   49 1
    53   34   50 1
@<TRIPOS>MOLECULE
ZINC12405570
   51    54     0     0     0
SMALL
USER_CHARGES
(2S,3S,4R,5R)-5-[6-(benzylamino)purin-9-yl]-N-ethyl-3,4-dihydroxy-tetrahydrofuran-2-carboxamide
@<TRIPOS>ATOM
      1 C1         -8.5907   -4.1260  -11.7377 C.3       1 <0>        -0.1674
      2 C2         -7.2762   -3.8648  -10.9996 C.3       1 <0>         0.1137
      3 N1         -7.4937   -3.9885   -9.5561 N.am      1 <0>        -0.7267
      4 C3         -6.4688   -3.7992   -8.7015 C.2       1 <0>         0.5164
      5 O1         -5.3665   -3.5265   -9.1275 O.2       1 <0>        -0.5036
      6 C4         -6.6925   -3.9264   -7.2167 C.3       1 <0>         0.0314
      7 H1         -7.1412   -4.8918   -6.9826 H         1 <0>         0.1196
      8 C5         -7.5904   -2.7780   -6.7054 C.3       1 <0>         0.0523
      9 H2         -7.5288   -1.9188   -7.3732 H         1 <0>         0.0915
     10 C6         -7.0053   -2.4333   -5.3155 C.3       1 <0>         0.0811
     11 H3         -6.6530   -1.4020   -5.2950 H         1 <0>         0.0898
     12 C7         -5.8216   -3.4129   -5.1555 C.3       1 <0>         0.3141
     13 H4         -6.1348   -4.2998   -4.6048 H         1 <0>         0.1282
     14 O2         -5.4463   -3.7654   -6.5048 O.3       1 <0>        -0.3273
     15 N2         -4.7053   -2.7563   -4.4707 N.pl3     1 <0>        -0.4740
     16 C8         -3.6541   -2.1238   -5.0650 C.2       1 <0>         0.2761
     17 N3         -2.8474   -1.6541   -4.1582 N.2       1 <0>        -0.4523
     18 C9         -3.3312   -1.9494   -2.9278 C.ar      1 <0>        -0.0636
     19 C10        -4.5261   -2.6653   -3.1135 C.ar      1 <0>         0.3015
     20 N4         -5.2026   -3.0803   -2.0476 N.ar      1 <0>        -0.5274
     21 C11        -4.7602   -2.8309   -0.8331 C.ar      1 <0>         0.3461
     22 N5         -3.6411   -2.1669   -0.6089 N.ar      1 <0>        -0.5685
     23 C12        -2.8974   -1.7127   -1.6124 C.ar      1 <0>         0.4418
     24 N6         -1.7259   -1.0177   -1.3675 N.pl3     1 <0>        -0.5955
     25 C13        -1.2926   -0.7753    0.0108 C.3       1 <0>         0.1082
     26 C14         0.0021   -0.0041    0.0020 C.ar      1 <0>        -0.0935
     27 C15        -0.0167    1.3781    0.0096 C.ar      1 <0>        -0.0922
     28 C16         1.1710    2.0855    0.0021 C.ar      1 <0>        -0.1213
     29 C17         2.3773    1.4107   -0.0145 C.ar      1 <0>        -0.1137
     30 C18         2.3960    0.0285   -0.0217 C.ar      1 <0>        -0.1205
     31 C19         1.2084   -0.6789   -0.0132 C.ar      1 <0>        -0.1098
     32 O3         -7.9781   -2.6520   -4.2919 O.3       1 <0>        -0.5238
     33 O4         -8.9442   -3.2181   -6.5813 O.3       1 <0>        -0.5323
     34 H5         -8.4288   -4.0339  -12.8116 H         1 <0>         0.0791
     35 H6         -8.9426   -5.1317  -11.5081 H         1 <0>         0.0643
     36 H7         -9.3370   -3.3983  -11.4190 H         1 <0>         0.0635
     37 H8         -6.9242   -2.8590  -11.2291 H         1 <0>         0.0724
     38 H9         -6.5298   -4.5924  -11.3182 H         1 <0>         0.0729
     39 H10        -8.3753   -4.2066   -9.2154 H         1 <0>         0.3988
     40 H11        -3.5120   -2.0263   -6.1312 H         1 <0>         0.2282
     41 H12        -5.3342   -3.1824    0.0115 H         1 <0>         0.2069
     42 H13        -0.9566   -1.5052   -1.7805 H         1 <0>         0.3688
     43 H14        -1.1443   -1.7285    0.5181 H         1 <0>         0.0643
     44 H15        -2.0550   -0.1993    0.5353 H         1 <0>         0.0924
     45 H16        -0.9592    1.9054    0.0170 H         1 <0>         0.1235
     46 H17         1.1563    3.1654    0.0077 H         1 <0>         0.1236
     47 H18         3.3051    1.9634   -0.0205 H         1 <0>         0.1226
     48 H19         3.3385   -0.4987   -0.0335 H         1 <0>         0.1234
     49 H20         1.2231   -1.7588   -0.0188 H         1 <0>         0.1210
     50 H21        -8.7436   -2.0635   -4.3446 H         1 <0>         0.3926
     51 H22        -9.3424   -3.5050   -7.4145 H         1 <0>         0.3831
@<TRIPOS>BOND
     1    1    2 1
     2    1   34 1
     3    1   35 1
     4    1   36 1
     5    2    3 1
     6    2   37 1
     7    2   38 1
     8    3    4 am
     9    3   39 1
    10    4    5 2
    11    4    6 1
    12    6    7 1
    13    6   14 1
    14    6    8 1
    15    8    9 1
    16    8   10 1
    17    8   33 1
    18   10   11 1
    19   10   12 1
    20   10   32 1
    21   12   13 1
    22   12   14 1
    23   12   15 1
    24   15   19 1
    25   15   16 1
    26   16   17 2
    27   16   40 1
    28   17   18 1
    29   18   23 ar
    30   18   19 ar
    31   19   20 ar
    32   20   21 ar
    33   21   22 ar
    34   21   41 1
    35   22   23 ar
    36   23   24 1
    37   24   25 1
    38   24   42 1
    39   25   26 1
    40   25   43 1
    41   25   44 1
    42   26   31 ar
    43   26   27 ar
    44   27   28 ar
    45   27   45 1
    46   28   29 ar
    47   28   46 1
    48   29   30 ar
    49   29   47 1
    50   30   31 ar
    51   30   48 1
    52   31   49 1
    53   32   50 1
    54   33   51 1
@<TRIPOS>MOLECULE
ZINC07992852
   48    51     0     0     0
SMALL
USER_CHARGES

@<TRIPOS>ATOM
      1 C1         -0.0187    1.5258    0.0104 C.3       1 <0>        -0.1723
      2 C2          0.0021   -0.0041    0.0020 C.3       1 <0>         0.1052
      3 C3          0.8355   -0.5277   -1.1890 C.3       1 <0>         0.0527
      4 H1          1.2327    0.3034   -1.7719 H         1 <0>         0.0877
      5 C4          1.9830   -1.3202   -0.5246 C.3       1 <0>         0.0503
      6 H2          1.7288   -2.3785   -0.4657 H         1 <0>         0.1004
      7 O1          2.1017   -0.7570    0.8000 O.3       1 <0>        -0.3457
      8 C5          0.7447   -0.5422    1.2451 C.3       1 <0>         0.3187
      9 H3          0.3006   -1.4812    1.5755 H         1 <0>         0.1234
     10 N1          0.7130    0.4464    2.3258 N.pl3     1 <0>        -0.4638
     11 C6          1.6771    1.3697    2.6032 C.2       1 <0>         0.2687
     12 N2          1.3234    2.0871    3.6296 N.2       1 <0>        -0.4558
     13 C7          0.1133    1.6712    4.0751 C.ar      1 <0>        -0.1045
     14 C8         -0.2951    0.6169    3.2407 C.ar      1 <0>         0.3265
     15 N3         -1.4663    0.0307    3.4663 N.ar      1 <0>        -0.5350
     16 C9         -2.2381    0.4316    4.4562 C.ar      1 <0>         0.4311
     17 N4         -1.8975    1.4200    5.2648 N.ar      1 <0>        -0.5725
     18 C10        -0.7418    2.0601    5.1200 C.ar      1 <0>         0.5223
     19 N5         -0.3945    3.0949    5.9708 N.pl3     1 <0>        -0.6802
     20 C11        -1.2987    3.4867    7.0548 C.3       1 <0>         0.1433
     21 C12        -2.3106    4.5342    6.5464 C.3       1 <0>        -0.1339
     22 C13        -2.4905    5.5007    7.7433 C.3       1 <0>        -0.1246
     23 C14        -1.0593    5.5899    8.3288 C.3       1 <0>        -0.1247
     24 C15        -0.5031    4.1579    8.1881 C.3       1 <0>        -0.1333
     25 Cl1        -3.7586   -0.3676    4.7073 Cl        1 <0>         0.0344
     26 C16         3.2845   -1.1288   -1.3059 C.3       1 <0>         0.0825
     27 O2          4.3032   -1.9594   -0.7452 O.3       1 <0>        -0.5632
     28 O3          0.0446   -1.3843   -2.0154 O.3       1 <0>        -0.5387
     29 O4         -1.3290   -0.5213   -0.0489 O.3       1 <0>        -0.5199
     30 H4          1.0039    1.9031    0.0027 H         1 <0>         0.0734
     31 H5         -0.5459    1.8868   -0.8726 H         1 <0>         0.0736
     32 H6         -0.5289    1.8773    0.9072 H         1 <0>         0.0703
     33 H7          2.5986    1.4880    2.0524 H         1 <0>         0.2247
     34 H8          0.4476    3.5607    5.8493 H         1 <0>         0.4193
     35 H9         -1.8255    2.6118    7.4359 H         1 <0>         0.0998
     36 H10        -1.9085    5.0658    5.6839 H         1 <0>         0.0682
     37 H11        -3.2583    4.0583    6.2946 H         1 <0>         0.0746
     38 H12        -2.8301    6.4787    7.4024 H         1 <0>         0.0690
     39 H13        -3.1822    5.0841    8.4756 H         1 <0>         0.0710
     40 H14        -0.4552    6.2920    7.7541 H         1 <0>         0.0669
     41 H15        -1.0939    5.8844    9.3777 H         1 <0>         0.0695
     42 H16        -0.6445    3.6093    9.1193 H         1 <0>         0.0779
     43 H17         0.5557    4.1921    7.9315 H         1 <0>         0.0716
     44 H18         3.1257   -1.4026   -2.3490 H         1 <0>         0.0672
     45 H19         3.5934   -0.0852   -1.2472 H         1 <0>         0.0609
     46 H20         5.1580   -1.8893   -1.1919 H         1 <0>         0.3869
     47 H21         0.5186   -1.7415   -2.7788 H         1 <0>         0.3873
     48 H22        -1.8314   -0.2387   -0.8254 H         1 <0>         0.3888
@<TRIPOS>BOND
     1    1    2 1
     2    1   30 1
     3    1   31 1
     4    1   32 1
     5    2    8 1
     6    2    3 1
     7    2   29 1
     8    3    4 1
     9    3    5 1
    10    3   28 1
    11    5    6 1
    12    5    7 1
    13    5   26 1
    14    7    8 1
    15    8    9 1
    16    8   10 1
    17   10   14 1
    18   10   11 1
    19   11   12 2
    20   11   33 1
    21   12   13 1
    22   13   18 ar
    23   13   14 ar
    24   14   15 ar
    25   15   16 ar
    26   16   17 ar
    27   16   25 1
    28   17   18 ar
    29   18   19 1
    30   19   20 1
    31   19   34 1
    32   20   24 1
    33   20   21 1
    34   20   35 1
    35   21   22 1
    36   21   36 1
    37   21   37 1
    38   22   23 1
    39   22   38 1
    40   22   39 1
    41   23   24 1
    42   23   40 1
    43   23   41 1
    44   24   42 1
    45   24   43 1
    46   26   27 1
    47   26   44 1
    48   26   45 1
    49   27   46 1
    50   28   47 1
    51   29   48 1
@<TRIPOS>MOLECULE
ZINC08660412
   50    53     0     0     0
SMALL
USER_CHARGES
2-[6-[2-(4-aminophenyl)ethylamino]purin-9-yl]-5-(hydroxymethyl)tetrahydrofuran-3,4-diol
@<TRIPOS>ATOM
      1 C1         12.2018   -1.4652   -1.3959 C.ar      1 <0>        -0.0643
      2 C2         13.3433   -1.8388   -2.0776 C.ar      1 <0>        -0.1977
      3 C3         14.0321   -0.9041   -2.8403 C.ar      1 <0>         0.2142
      4 C4         13.5666    0.4023   -2.9190 C.ar      1 <0>        -0.1971
      5 C5         12.4213    0.7677   -2.2393 C.ar      1 <0>        -0.0621
      6 C6         11.7380   -0.1652   -1.4810 C.ar      1 <0>        -0.1419
      7 C7         10.4886    0.2373   -0.7407 C.3       1 <0>        -0.0709
      8 C8          9.2704    0.0208   -1.6407 C.3       1 <0>         0.0803
      9 N1          8.0559    0.4120   -0.9210 N.pl3     1 <0>        -0.5997
     10 C9          6.8214    0.3037   -1.5370 C.ar      1 <0>         0.4360
     11 C10         5.6458    0.6744   -0.8618 C.ar      1 <0>        -0.0675
     12 C11         4.4216    0.5374   -1.5373 C.ar      1 <0>         0.3014
     13 N2          4.4186    0.0644   -2.7795 N.ar      1 <0>        -0.5279
     14 C12         5.5445   -0.2747   -3.3709 C.ar      1 <0>         0.3458
     15 N3          6.7185   -0.1666   -2.7757 N.ar      1 <0>        -0.5683
     16 N4          3.4565    0.9675   -0.6622 N.pl3     1 <0>        -0.4732
     17 C13         4.0848    1.3366    0.4899 C.2       1 <0>         0.2725
     18 N5          5.3692    1.1639    0.3707 N.2       1 <0>        -0.4534
     19 C14         2.0146    1.0153   -0.9168 C.3       1 <0>         0.3136
     20 H1          1.8217    1.3114   -1.9480 H         1 <0>         0.1230
     21 C15         1.3706   -0.3575   -0.6221 C.3       1 <0>         0.0796
     22 H2          1.9790   -0.9208    0.0855 H         1 <0>         0.0856
     23 C16         0.0021   -0.0041    0.0020 C.3       1 <0>         0.0468
     24 H3         -0.0661   -0.3925    1.0182 H         1 <0>         0.0878
     25 C17        -0.0189    1.5406    0.0105 C.3       1 <0>         0.0502
     26 H4         -0.5253    1.9181   -0.8778 H         1 <0>         0.1005
     27 O1          1.3722    1.9285   -0.0007 O.3       1 <0>        -0.3462
     28 C18        -0.7057    2.0570    1.2764 C.3       1 <0>         0.0819
     29 O2         -0.8186    3.4800    1.2104 O.3       1 <0>        -0.5634
     30 O3         -1.0642   -0.5149   -0.8005 O.3       1 <0>        -0.5404
     31 O4          1.1932   -1.0974   -1.8317 O.3       1 <0>        -0.5261
     32 N6         15.1903   -1.2771   -3.5260 N.pl3     1 <0>        -0.8798
     33 H5         11.6684   -2.1901   -0.7989 H         1 <0>         0.1198
     34 H6         13.7025   -2.8553   -2.0143 H         1 <0>         0.1187
     35 H7         14.1000    1.1315   -3.5108 H         1 <0>         0.1192
     36 H8         12.0591    1.7834   -2.2998 H         1 <0>         0.1217
     37 H9         10.5534    1.2896   -0.4638 H         1 <0>         0.0808
     38 H10        10.3880   -0.3696    0.1591 H         1 <0>         0.0711
     39 H11         9.2057   -1.0315   -1.9175 H         1 <0>         0.0546
     40 H12         9.3710    0.6277   -2.5405 H         1 <0>         0.0862
     41 H13         7.9637   -0.1448   -0.0955 H         1 <0>         0.3653
     42 H14         5.5069   -0.6561   -4.3806 H         1 <0>         0.2056
     43 H15         3.5898    1.7166    1.3713 H         1 <0>         0.2256
     44 H16        -1.6997    1.6169    1.3558 H         1 <0>         0.0673
     45 H17        -0.1148    1.7795    2.1493 H         1 <0>         0.0616
     46 H18        -1.2456    3.8769    1.9819 H         1 <0>         0.3872
     47 H19        -1.9453   -0.2710   -0.4854 H         1 <0>         0.3886
     48 H20         0.7383   -1.9425   -1.7128 H         1 <0>         0.3913
     49 H21        15.6706   -0.6235   -4.0580 H         1 <0>         0.3980
     50 H22        15.5144   -2.1896   -3.4703 H         1 <0>         0.3979
@<TRIPOS>BOND
     1    1    6 ar
     2    1    2 ar
     3    1   33 1
     4    2    3 ar
     5    2   34 1
     6    3    4 ar
     7    3   32 1
     8    4    5 ar
     9    4   35 1
    10    5    6 ar
    11    5   36 1
    12    6    7 1
    13    7    8 1
    14    7   37 1
    15    7   38 1
    16    8    9 1
    17    8   39 1
    18    8   40 1
    19    9   10 1
    20    9   41 1
    21   10   15 ar
    22   10   11 ar
    23   11   18 1
    24   11   12 ar
    25   12   13 ar
    26   12   16 1
    27   13   14 ar
    28   14   15 ar
    29   14   42 1
    30   16   17 1
    31   16   19 1
    32   17   18 2
    33   17   43 1
    34   19   20 1
    35   19   27 1
    36   19   21 1
    37   21   22 1
    38   21   23 1
    39   21   31 1
    40   23   24 1
    41   23   25 1
    42   23   30 1
    43   25   26 1
    44   25   27 1
    45   25   28 1
    46   28   29 1
    47   28   44 1
    48   28   45 1
    49   29   46 1
    50   30   47 1
    51   31   48 1
    52   32   49 1
    53   32   50 1
@<TRIPOS>MOLECULE
ZINC06530699
   31    33     0     0     0
SMALL
USER_CHARGES

@<TRIPOS>ATOM
      1 C1         -0.0178    1.4608    0.0101 C.3       1 <0>         0.0850
      2 N1          0.0021   -0.0041    0.0020 N.am      1 <0>        -0.5111
      3 C2         -1.1897   -0.7124    0.0038 C.2       1 <0>         0.3278
      4 C3         -1.1428   -2.1029   -0.0044 C.2       1 <0>        -0.1445
      5 C4          0.1120   -2.7482   -0.0141 C.2       1 <0>         0.5940
      6 O1          0.1791   -3.9644   -0.0218 O.2       1 <0>        -0.5118
      7 N2          1.2366   -2.0029   -0.0150 N.am      1 <0>        -0.5508
      8 C5          1.1775   -0.6601   -0.0127 C.2       1 <0>         0.7084
      9 O2          2.2123   -0.0215   -0.0188 O.2       1 <0>        -0.5295
     10 C6          2.5422   -2.6674   -0.0245 C.3       1 <0>         0.0827
     11 N3         -2.4535   -2.5389   -0.0001 N.pl3     1 <0>        -0.5140
     12 H1         -2.7564   -3.4603   -0.0033 H         1 <0>         0.4370
     13 C7         -3.2382   -1.4264    0.0105 C.2       1 <0>         0.3432
     14 N4         -2.4728   -0.3531    0.0126 N.2       1 <0>        -0.4818
     15 C8         -4.7165   -1.4227    0.0178 C.ar      1 <0>        -0.0394
     16 C9         -5.4205   -2.6279    0.0200 C.ar      1 <0>        -0.0979
     17 C10        -6.8000   -2.6174    0.0273 C.ar      1 <0>        -0.1167
     18 C11        -7.4857   -1.4156    0.0321 C.ar      1 <0>        -0.0955
     19 C12        -6.7939   -0.2174    0.0300 C.ar      1 <0>        -0.1189
     20 C13        -5.4143   -0.2138    0.0285 C.ar      1 <0>        -0.0634
     21 H2          1.0048    1.8381    0.0023 H         1 <0>         0.1040
     22 H3         -0.5450    1.8219   -0.8730 H         1 <0>         0.0801
     23 H4         -0.5280    1.8123    0.9069 H         1 <0>         0.0802
     24 H5          2.3999   -3.7480   -0.0298 H         1 <0>         0.1040
     25 H6          3.0951   -2.3694   -0.9154 H         1 <0>         0.0835
     26 H7          3.1031   -2.3791    0.8645 H         1 <0>         0.0835
     27 H8         -4.8865   -3.5666    0.0155 H         1 <0>         0.1227
     28 H9         -7.3460   -3.5492    0.0290 H         1 <0>         0.1327
     29 H10        -8.5657   -1.4129    0.0371 H         1 <0>         0.1306
     30 H11        -7.3351    0.7173    0.0338 H         1 <0>         0.1342
     31 H12        -4.8755    0.7221    0.0310 H         1 <0>         0.1417
@<TRIPOS>BOND
     1    1    2 1
     2    1   21 1
     3    1   22 1
     4    1   23 1
     5    2    8 am
     6    2    3 1
     7    3   14 1
     8    3    4 2
     9    4    5 1
    10    4   11 1
    11    5    6 2
    12    5    7 am
    13    7    8 am
    14    7   10 1
    15    8    9 2
    16   10   24 1
    17   10   25 1
    18   10   26 1
    19   11   12 1
    20   11   13 1
    21   13   14 2
    22   13   15 1
    23   15   20 ar
    24   15   16 ar
    25   16   17 ar
    26   16   27 1
    27   17   18 ar
    28   17   28 1
    29   18   19 ar
    30   18   29 1
    31   19   20 ar
    32   19   30 1
    33   20   31 1
@<TRIPOS>MOLECULE
ZINC03995996
   45    48     0     0     0
SMALL
USER_CHARGES

@<TRIPOS>ATOM
      1 C1         -0.0158    1.3119    0.0093 C.ar      1 <0>         0.3644
      2 N1          1.0888    2.0360    0.0026 N.ar      1 <0>        -0.5872
      3 C2          2.2875    1.4625   -0.0119 C.ar      1 <0>         0.5077
      4 C3          2.3582    0.0588   -0.0202 C.ar      1 <0>        -0.1088
      5 C4          1.1547   -0.6659   -0.0126 C.ar      1 <0>         0.3137
      6 N2          0.0021   -0.0041    0.0020 N.ar      1 <0>        -0.5515
      7 N3          1.5110   -1.9908   -0.0227 N.pl3     1 <0>        -0.4718
      8 C5          2.8729   -2.0476   -0.0358 C.2       1 <0>         0.2611
      9 N4          3.3680   -0.8441   -0.0343 N.2       1 <0>        -0.4603
     10 C6          0.5956   -3.1347   -0.0195 C.3       1 <0>         0.3142
     11 H1         -0.2832   -2.9148    0.5866 H         1 <0>         0.1228
     12 C7          0.1775   -3.4928   -1.4629 C.3       1 <0>         0.0798
     13 H2          0.9267   -3.1463   -2.1747 H         1 <0>         0.0850
     14 C8          0.1056   -5.0362   -1.4608 C.3       1 <0>         0.0473
     15 H3          0.8193   -5.4528   -2.1716 H         1 <0>         0.0869
     16 C9          0.4888   -5.4280   -0.0165 C.3       1 <0>         0.0504
     17 H4         -0.4066   -5.5617    0.5906 H         1 <0>         0.1001
     18 O1          1.2661   -4.3138    0.4763 O.3       1 <0>        -0.3470
     19 C10         1.3272   -6.7078   -0.0164 C.3       1 <0>         0.0821
     20 O2          1.5723   -7.1166    1.3308 O.3       1 <0>        -0.5634
     21 O3         -1.2191   -5.4762   -1.7672 O.3       1 <0>        -0.5387
     22 O4         -1.0998   -2.9297   -1.7685 O.3       1 <0>        -0.5252
     23 N5          3.4393    2.2295   -0.0193 N.pl3     1 <0>        -0.6872
     24 C11         3.3458    3.6915   -0.0110 C.3       1 <0>         0.1462
     25 C12         3.2434    4.2227   -1.4557 C.3       1 <0>        -0.1335
     26 C13         4.0688    5.5332   -1.4380 C.3       1 <0>        -0.1249
     27 C14         5.2562    5.1767   -0.5095 C.3       1 <0>        -0.1248
     28 C15         4.6256    4.2981    0.5906 C.3       1 <0>        -0.1339
     29 H5         -0.9693    1.8187    0.0257 H         1 <0>         0.2043
     30 H6          3.4551   -2.9572   -0.0459 H         1 <0>         0.2223
     31 H7          0.7880   -7.4954   -0.5427 H         1 <0>         0.0671
     32 H8          2.2767   -6.5201   -0.5176 H         1 <0>         0.0609
     33 H9          2.0996   -7.9235    1.4072 H         1 <0>         0.3867
     34 H10        -1.3212   -6.4377   -1.7794 H         1 <0>         0.3873
     35 H11        -1.4113   -3.1237   -2.6632 H         1 <0>         0.3905
     36 H12         4.3085    1.7992   -0.0299 H         1 <0>         0.4159
     37 H13         2.4764    4.0065    0.5660 H         1 <0>         0.0983
     38 H14         3.6762    3.5086   -2.1563 H         1 <0>         0.0673
     39 H15         2.2046    4.4296   -1.7133 H         1 <0>         0.0735
     40 H16         4.4221    5.7807   -2.4391 H         1 <0>         0.0683
     41 H17         3.4840    6.3525   -1.0200 H         1 <0>         0.0706
     42 H18         6.0141    4.6167   -1.0573 H         1 <0>         0.0665
     43 H19         5.6864    6.0798   -0.0766 H         1 <0>         0.0690
     44 H20         4.3771    4.9082    1.4590 H         1 <0>         0.0768
     45 H21         5.3162    3.5047    0.8764 H         1 <0>         0.0709
@<TRIPOS>BOND
     1    1    6 ar
     2    1    2 ar
     3    1   29 1
     4    2    3 ar
     5    3    4 ar
     6    3   23 1
     7    4    9 1
     8    4    5 ar
     9    5    6 ar
    10    5    7 1
    11    7    8 1
    12    7   10 1
    13    8    9 2
    14    8   30 1
    15   10   11 1
    16   10   18 1
    17   10   12 1
    18   12   13 1
    19   12   14 1
    20   12   22 1
    21   14   15 1
    22   14   16 1
    23   14   21 1
    24   16   17 1
    25   16   18 1
    26   16   19 1
    27   19   20 1
    28   19   31 1
    29   19   32 1
    30   20   33 1
    31   21   34 1
    32   22   35 1
    33   23   24 1
    34   23   36 1
    35   24   28 1
    36   24   25 1
    37   24   37 1
    38   25   26 1
    39   25   38 1
    40   25   39 1
    41   26   27 1
    42   26   40 1
    43   26   41 1
    44   27   28 1
    45   27   42 1
    46   27   43 1
    47   28   44 1
    48   28   45 1
@<TRIPOS>MOLECULE
ZINC26577575
   63    66     0     0     0
SMALL
USER_CHARGES

@<TRIPOS>ATOM
      1 C1          0.7310   -1.2669    2.0730 C.3       1 <0>        -0.1517
      2 C2          0.0336   -1.2473    0.7113 C.3       1 <0>         0.0560
      3 O1          0.9139   -1.7761   -0.2824 O.3       1 <0>        -0.3471
      4 C3          0.4481   -1.8292   -1.5478 C.2       1 <0>         0.5392
      5 O2         -0.6759   -1.4365   -1.7994 O.2       1 <0>        -0.4936
      6 C4          1.2660   -2.3410   -2.5813 C.2       1 <0>        -0.2402
      7 C5          1.3742   -3.6718   -2.7318 C.2       1 <0>         0.2019
      8 N1          2.1611   -4.2083   -3.7128 N.pl3     1 <0>        -0.6272
      9 C6          3.1262   -3.4391   -4.3243 C.2       1 <0>         0.2452
     10 C7          3.0861   -2.0832   -4.2361 C.2       1 <0>        -0.2235
     11 C8          1.9862   -1.3830   -3.4862 C.3       1 <0>         0.1769
     12 H1          1.2767   -0.9582   -4.1963 H         1 <0>         0.1108
     13 C9          2.5691   -0.2993   -2.6785 C.1       1 <0>        -0.1665
     14 C10         3.0340    0.5651   -2.0343 C.1       1 <0>        -0.1121
     15 C11         3.6011    1.6194   -1.2485 C.ar      1 <0>         0.0179
     16 C12         3.4370    1.6266    0.1372 C.ar      1 <0>        -0.0938
     17 C13         3.9863    2.6450    0.8887 C.ar      1 <0>        -0.1180
     18 C14         4.6984    3.6577    0.2712 C.ar      1 <0>        -0.1105
     19 C15         4.8647    3.6565   -1.1023 C.ar      1 <0>        -0.1176
     20 C16         4.3249    2.6409   -1.8646 C.ar      1 <0>        -0.0970
     21 C17         4.0904   -1.3201   -4.8630 C.2       1 <0>         0.5425
     22 O3          3.8400   -0.7057   -5.8839 O.2       1 <0>        -0.4983
     23 O4          5.3307   -1.2700   -4.3318 O.3       1 <0>        -0.3346
     24 C18         6.2688   -0.3911   -4.9560 C.3       1 <0>         0.1066
     25 C19         7.6166   -0.5470   -4.3002 C.ar      1 <0>        -0.0954
     26 C20         7.9136    0.1650   -3.1532 C.ar      1 <0>        -0.0915
     27 C21         9.1499    0.0219   -2.5516 C.ar      1 <0>        -0.1219
     28 C22        10.0891   -0.8335   -3.0968 C.ar      1 <0>        -0.1092
     29 C23         9.7917   -1.5462   -4.2433 C.ar      1 <0>        -0.1230
     30 C24         8.5538   -1.4064   -4.8425 C.ar      1 <0>        -0.0944
     31 C25         4.2132   -4.0924   -5.0810 C.ar      1 <0>        -0.0832
     32 C26         4.9299   -5.1465   -4.5104 C.ar      1 <0>        -0.0854
     33 C27         5.9440   -5.7521   -5.2229 C.ar      1 <0>        -0.1171
     34 C28         6.2517   -5.3174   -6.5001 C.ar      1 <0>        -0.0976
     35 C29         5.5456   -4.2735   -7.0715 C.ar      1 <0>        -0.1153
     36 C30         4.5253   -3.6626   -6.3727 C.ar      1 <0>        -0.0933
     37 C31         0.6169   -4.5873   -1.8046 C.3       1 <0>        -0.1350
     38 H2          0.9959   -2.2923    2.3308 H         1 <0>         0.0667
     39 H3          1.6345   -0.6589    2.0273 H         1 <0>         0.0657
     40 H4          0.0596   -0.8635    2.8310 H         1 <0>         0.0803
     41 H5         -0.8699   -1.8554    0.7571 H         1 <0>         0.0682
     42 H6         -0.2312   -0.2219    0.4535 H         1 <0>         0.0676
     43 H7          2.0396   -5.1332   -3.9787 H         1 <0>         0.4228
     44 H8          2.8810    0.8368    0.6204 H         1 <0>         0.1256
     45 H9          3.8597    2.6519    1.9612 H         1 <0>         0.1279
     46 H10         5.1261    4.4529    0.8638 H         1 <0>         0.1260
     47 H11         5.4217    4.4499   -1.5783 H         1 <0>         0.1280
     48 H12         4.4593    2.6387   -2.9362 H         1 <0>         0.1237
     49 H13         6.3491   -0.6379   -6.0147 H         1 <0>         0.0769
     50 H14         5.9291    0.6390   -4.8479 H         1 <0>         0.0746
     51 H15         7.1799    0.8333   -2.7272 H         1 <0>         0.1229
     52 H16         9.3823    0.5787   -1.6558 H         1 <0>         0.1249
     53 H17        11.0552   -0.9447   -2.6271 H         1 <0>         0.1241
     54 H18        10.5255   -2.2143   -4.6694 H         1 <0>         0.1247
     55 H19         8.3201   -1.9660   -5.7361 H         1 <0>         0.1221
     56 H20         4.6910   -5.4865   -3.5136 H         1 <0>         0.1274
     57 H21         6.4993   -6.5672   -4.7828 H         1 <0>         0.1303
     58 H22         7.0469   -5.7949   -7.0533 H         1 <0>         0.1286
     59 H23         5.7910   -3.9393   -8.0688 H         1 <0>         0.1306
     60 H24         3.9719   -2.8512   -6.8217 H         1 <0>         0.1340
     61 H25        -0.3574   -4.8166   -2.2362 H         1 <0>         0.0941
     62 H26         1.1795   -5.5106   -1.6663 H         1 <0>         0.0882
     63 H27         0.4810   -4.0968   -0.8408 H         1 <0>         0.0912
@<TRIPOS>BOND
     1    1    2 1
     2    1   38 1
     3    1   39 1
     4    1   40 1
     5    2    3 1
     6    2   41 1
     7    2   42 1
     8    3    4 1
     9    4    5 2
    10    4    6 1
    11    6   11 1
    12    6    7 2
    13    7    8 1
    14    7   37 1
    15    8    9 1
    16    8   43 1
    17    9   10 2
    18    9   31 1
    19   10   11 1
    20   10   21 1
    21   11   12 1
    22   11   13 1
    23   13   14 3
    24   14   15 1
    25   15   20 ar
    26   15   16 ar
    27   16   17 ar
    28   16   44 1
    29   17   18 ar
    30   17   45 1
    31   18   19 ar
    32   18   46 1
    33   19   20 ar
    34   19   47 1
    35   20   48 1
    36   21   22 2
    37   21   23 1
    38   23   24 1
    39   24   25 1
    40   24   49 1
    41   24   50 1
    42   25   30 ar
    43   25   26 ar
    44   26   27 ar
    45   26   51 1
    46   27   28 ar
    47   27   52 1
    48   28   29 ar
    49   28   53 1
    50   29   30 ar
    51   29   54 1
    52   30   55 1
    53   31   36 ar
    54   31   32 ar
    55   32   33 ar
    56   32   56 1
    57   33   34 ar
    58   33   57 1
    59   34   35 ar
    60   34   58 1
    61   35   36 ar
    62   35   59 1
    63   36   60 1
    64   37   61 1
    65   37   62 1
    66   37   63 1
@<TRIPOS>MOLECULE
ZINC26577576
   62    65     0     0     0
SMALL
USER_CHARGES

@<TRIPOS>ATOM
      1 C1         -0.8155    1.4128   -0.4279 C.3       1 <0>        -0.1492
      2 C2         -0.5353   -0.0854   -0.2941 C.3       1 <0>         0.0604
      3 O1          0.2279   -0.5295   -1.4176 O.3       1 <0>        -0.3315
      4 C3          0.5612   -1.8350   -1.4534 C.2       1 <0>         0.4761
      5 C4          1.2958   -2.3291   -2.5075 C.2       1 <0>        -0.3889
      6 C5          1.8084   -3.7579   -2.5101 C.3       1 <0>         0.1940
      7 H1          0.9527   -4.4266   -2.4171 H         1 <0>         0.0633
      8 C6          2.6049   -4.1748   -3.7332 C.2       1 <0>        -0.3604
      9 C7          2.7915   -3.2245   -4.7282 C.2       1 <0>         0.3147
     10 N1          2.2967   -1.9904   -4.6275 N.2       1 <0>        -0.6308
     11 C8          1.5935   -1.5372   -3.6186 C.2       1 <0>         0.2947
     12 C9          1.0962   -0.1151   -3.6557 C.3       1 <0>        -0.1033
     13 C10         3.5635   -3.5924   -5.9369 C.ar      1 <0>        -0.0144
     14 C11         3.1315   -4.6388   -6.7523 C.ar      1 <0>        -0.0454
     15 C12         3.8553   -4.9768   -7.8772 C.ar      1 <0>        -0.1315
     16 C13         5.0072   -4.2804   -8.1973 C.ar      1 <0>        -0.1233
     17 C14         5.4410   -3.2419   -7.3925 C.ar      1 <0>        -0.1339
     18 C15         4.7227   -2.8902   -6.2683 C.ar      1 <0>        -0.0899
     19 C16         3.1316   -5.4678   -3.8532 C.2       1 <0>         0.5252
     20 O2          3.8582   -5.7451   -4.7912 O.2       1 <0>        -0.5428
     21 O3          2.8337   -6.4072   -2.9287 O.3       1 <0>        -0.3471
     22 C17         3.4053   -7.7037   -3.1137 C.3       1 <0>         0.1117
     23 C18         2.9651   -8.6112   -1.9940 C.ar      1 <0>        -0.0850
     24 C19         3.7151   -8.6938   -0.8358 C.ar      1 <0>        -0.0918
     25 C20         3.3113   -9.5262    0.1913 C.ar      1 <0>        -0.1228
     26 C21         2.1572  -10.2757    0.0603 C.ar      1 <0>        -0.1169
     27 C22         1.4067  -10.1925   -1.0975 C.ar      1 <0>        -0.1255
     28 C23         1.8082   -9.3568   -2.1229 C.ar      1 <0>        -0.0970
     29 C24         2.6626   -3.9419   -1.3255 C.1       1 <0>        -0.0544
     30 C25         3.3439   -4.0886   -0.3808 C.1       1 <0>        -0.2310
     31 C26         4.1749   -4.2676    0.7716 C.ar      1 <0>         0.0644
     32 C27         4.3780   -3.2108    1.6599 C.ar      1 <0>        -0.1121
     33 C28         5.1795   -3.3899    2.7686 C.ar      1 <0>        -0.1197
     34 C29         5.7811   -4.6139    3.0006 C.ar      1 <0>        -0.1329
     35 C30         5.5837   -5.6656    2.1237 C.ar      1 <0>        -0.1192
     36 C31         4.7803   -5.5011    1.0141 C.ar      1 <0>        -0.1050
     37 O4          0.1752   -2.6567   -0.4572 O.3       1 <0>        -0.6369
     38 H2          0.1282    1.9570   -0.4640 H         1 <0>         0.0619
     39 H3         -1.3765    1.5971   -1.3440 H         1 <0>         0.0625
     40 H4         -1.3976    1.7515    0.4291 H         1 <0>         0.0698
     41 H5          0.0257   -0.2697    0.6221 H         1 <0>         0.0582
     42 H6         -1.4790   -0.6297   -0.2579 H         1 <0>         0.0591
     43 H7          1.4999    0.4334   -2.8047 H         1 <0>         0.0820
     44 H8          1.4216    0.3596   -4.5814 H         1 <0>         0.0647
     45 H9          0.0072   -0.1097   -3.6080 H         1 <0>         0.0768
     46 H10         2.2327   -5.1834   -6.5033 H         1 <0>         0.1094
     47 H11         3.5222   -5.7869   -8.5091 H         1 <0>         0.1130
     48 H12         5.5703   -4.5487   -9.0790 H         1 <0>         0.1113
     49 H13         6.3411   -2.7023   -7.6475 H         1 <0>         0.1139
     50 H14         5.0594   -2.0761   -5.6437 H         1 <0>         0.1160
     51 H15         3.0726   -8.1149   -4.0668 H         1 <0>         0.0671
     52 H16         4.4925   -7.6252   -3.1116 H         1 <0>         0.0661
     53 H17         4.6168   -8.1082   -0.7335 H         1 <0>         0.1212
     54 H18         3.8977   -9.5912    1.0959 H         1 <0>         0.1213
     55 H19         1.8421  -10.9266    0.8625 H         1 <0>         0.1198
     56 H20         0.5052  -10.7783   -1.2000 H         1 <0>         0.1215
     57 H21         1.2198   -9.2889   -3.0260 H         1 <0>         0.1223
     58 H22         3.9092   -2.2547    1.4798 H         1 <0>         0.1203
     59 H23         5.3378   -2.5727    3.4568 H         1 <0>         0.1198
     60 H24         6.4078   -4.7489    3.8697 H         1 <0>         0.1173
     61 H25         6.0562   -6.6187    2.3104 H         1 <0>         0.1199
     62 H26         4.6234   -6.3243    0.3328 H         1 <0>         0.1230
@<TRIPOS>BOND
     1    1    2 1
     2    1   38 1
     3    1   39 1
     4    1   40 1
     5    2    3 1
     6    2   41 1
     7    2   42 1
     8    3    4 1
     9    4    5 2
    10    4   37 1
    11    5   11 1
    12    5    6 1
    13    6    7 1
    14    6    8 1
    15    6   29 1
    16    8    9 2
    17    8   19 1
    18    9   10 1
    19    9   13 1
    20   10   11 2
    21   11   12 1
    22   12   43 1
    23   12   44 1
    24   12   45 1
    25   13   18 ar
    26   13   14 ar
    27   14   15 ar
    28   14   46 1
    29   15   16 ar
    30   15   47 1
    31   16   17 ar
    32   16   48 1
    33   17   18 ar
    34   17   49 1
    35   18   50 1
    36   19   20 2
    37   19   21 1
    38   21   22 1
    39   22   23 1
    40   22   51 1
    41   22   52 1
    42   23   28 ar
    43   23   24 ar
    44   24   25 ar
    45   24   53 1
    46   25   26 ar
    47   25   54 1
    48   26   27 ar
    49   26   55 1
    50   27   28 ar
    51   27   56 1
    52   28   57 1
    53   29   30 3
    54   30   31 1
    55   31   36 ar
    56   31   32 ar
    57   32   33 ar
    58   32   58 1
    59   33   34 ar
    60   33   59 1
    61   34   35 ar
    62   34   60 1
    63   35   36 ar
    64   35   61 1
    65   36   62 1
@<TRIPOS>MOLECULE
ZINC05647151
   27    29     0     0     0
SMALL
USER_CHARGES
2-phenyl-1H-1,8-naphthyridin-4-one
@<TRIPOS>ATOM
      1 C1          0.1326    8.4185    0.0488 C.ar      1 <0>        -0.0972
      2 C2         -1.0884    7.7677    0.0569 C.ar      1 <0>        -0.1163
      3 C3         -1.1388    6.3892    0.0491 C.ar      1 <0>        -0.0798
      4 C4          0.0458    5.6506    0.0333 C.ar      1 <0>        -0.0819
      5 C5          1.2745    6.3136    0.0310 C.ar      1 <0>        -0.1014
      6 C6          1.3105    7.6926    0.0331 C.ar      1 <0>        -0.1157
      7 C7         -0.0005    4.1736    0.0254 C.2       1 <0>         0.2586
      8 C8         -1.2140    3.5534    0.0341 C.2       1 <0>        -0.3007
      9 C9         -1.2829    2.1444    0.0319 C.2       1 <0>         0.4230
     10 O1         -2.3581    1.5668    0.0440 O.2       1 <0>        -0.4900
     11 C10        -0.0169    1.3923    0.0097 C.ar      1 <0>        -0.2436
     12 C11         0.0021   -0.0041    0.0020 C.ar      1 <0>         0.0146
     13 C12         1.2321   -0.6360   -0.0131 C.ar      1 <0>        -0.2134
     14 C13         2.3894    0.1273   -0.0200 C.ar      1 <0>         0.1729
     15 N1          2.3476    1.4432   -0.0130 N.ar      1 <0>        -0.5265
     16 C14         1.1966    2.1027    0.0019 C.ar      1 <0>         0.3872
     17 N2          1.1733    3.4778    0.0100 N.pl3     1 <0>        -0.5965
     18 H1          2.0120    3.9651    0.0049 H         1 <0>         0.4209
     19 H2          0.1665    9.4980    0.0542 H         1 <0>         0.1306
     20 H3         -2.0041    8.3403    0.0691 H         1 <0>         0.1341
     21 H4         -2.0926    5.8825    0.0548 H         1 <0>         0.1381
     22 H5          2.1946    5.7481    0.0229 H         1 <0>         0.1232
     23 H6          2.2602    8.2068    0.0272 H         1 <0>         0.1319
     24 H7         -2.1210    4.1395    0.0467 H         1 <0>         0.1582
     25 H8         -0.9158   -0.5731    0.0081 H         1 <0>         0.1521
     26 H9          1.2906   -1.7144   -0.0198 H         1 <0>         0.1476
     27 H10         3.3483   -0.3695   -0.0318 H         1 <0>         0.1700
@<TRIPOS>BOND
     1    1    6 ar
     2    1    2 ar
     3    1   19 1
     4    2    3 ar
     5    2   20 1
     6    3    4 ar
     7    3   21 1
     8    4    5 ar
     9    4    7 1
    10    5    6 ar
    11    5   22 1
    12    6   23 1
    13    7   17 1
    14    7    8 2
    15    8    9 1
    16    8   24 1
    17    9   10 2
    18    9   11 1
    19   11   16 ar
    20   11   12 ar
    21   12   13 ar
    22   12   25 1
    23   13   14 ar
    24   13   26 1
    25   14   15 ar
    26   14   27 1
    27   15   16 ar
    28   16   17 1
    29   17   18 1
@<TRIPOS>MOLECULE
ZINC08582290
   27    29     0     0     0
SMALL
USER_CHARGES

@<TRIPOS>ATOM
      1 C1         -0.0167    1.3795    0.0096 C.ar      1 <0>        -0.0959
      2 C2          1.1683    2.0937    0.0021 C.ar      1 <0>        -0.1162
      3 C3          2.3774    1.4297   -0.0134 C.ar      1 <0>        -0.0788
      4 C4          2.4036    0.0339   -0.0212 C.ar      1 <0>        -0.0832
      5 C5          1.2042   -0.6806   -0.0131 C.ar      1 <0>        -0.1007
      6 C6          0.0021   -0.0041    0.0020 C.ar      1 <0>        -0.1154
      7 C7          3.6951   -0.6841   -0.0384 C.2       1 <0>         0.2598
      8 C8          4.8499    0.0392   -0.0408 C.2       1 <0>        -0.2969
      9 C9          6.0947   -0.6246   -0.0566 C.2       1 <0>         0.4255
     10 C10         6.0907   -2.0970   -0.0701 C.ar      1 <0>        -0.2424
     11 C11         7.2804   -2.8293   -0.0856 C.ar      1 <0>         0.0298
     12 C12         7.1931   -4.2084   -0.0971 C.ar      1 <0>        -0.1952
     13 C13         5.9428   -4.8120   -0.0930 C.ar      1 <0>         0.2453
     14 N1          4.8338   -4.1005   -0.0786 N.ar      1 <0>        -0.5233
     15 C14         4.8584   -2.7742   -0.0667 C.ar      1 <0>         0.4100
     16 N2          3.6901   -2.0489   -0.0457 N.pl3     1 <0>        -0.5950
     17 Cl1         5.8380   -6.5448   -0.1075 Cl        1 <0>        -0.0101
     18 O1          7.1422    0.0020   -0.0595 O.2       1 <0>        -0.4841
     19 H1         -0.9605    1.9042    0.0260 H         1 <0>         0.1310
     20 H2          1.1467    3.1735    0.0082 H         1 <0>         0.1345
     21 H3          3.3017    1.9884   -0.0200 H         1 <0>         0.1385
     22 H4          1.2174   -1.7605   -0.0191 H         1 <0>         0.1232
     23 H5         -0.9265   -0.5555    0.0083 H         1 <0>         0.1323
     24 H6          4.8123    1.1185   -0.0310 H         1 <0>         0.1610
     25 H7          8.2394   -2.3326   -0.0889 H         1 <0>         0.1644
     26 H8          8.0892   -4.8111   -0.1097 H         1 <0>         0.1588
     27 H9          2.8416   -2.5188   -0.0394 H         1 <0>         0.4231
@<TRIPOS>BOND
     1    1    6 ar
     2    1    2 ar
     3    1   19 1
     4    2    3 ar
     5    2   20 1
     6    3    4 ar
     7    3   21 1
     8    4    5 ar
     9    4    7 1
    10    5    6 ar
    11    5   22 1
    12    6   23 1
    13    7   16 1
    14    7    8 2
    15    8    9 1
    16    8   24 1
    17    9   10 1
    18    9   18 2
    19   10   15 ar
    20   10   11 ar
    21   11   12 ar
    22   11   25 1
    23   12   13 ar
    24   12   26 1
    25   13   14 ar
    26   13   17 1
    27   14   15 ar
    28   15   16 1
    29   16   27 1
@<TRIPOS>MOLECULE
ZINC08582290
   26    28     0     0     0
SMALL
USER_CHARGES

@<TRIPOS>ATOM
      1 C1         -0.0167    1.3791    0.0096 C.ar      1 <0>        -0.1217
      2 C2          1.1686    2.0923    0.0021 C.ar      1 <0>        -0.1330
      3 C3          2.3774    1.4266   -0.0135 C.ar      1 <0>        -0.0799
      4 C4          2.4025    0.0330   -0.0212 C.ar      1 <0>        -0.0332
      5 C5          1.2049   -0.6804   -0.0131 C.ar      1 <0>        -0.0981
      6 C6          0.0021   -0.0041    0.0020 C.ar      1 <0>        -0.1304
      7 C7          3.6981   -0.6880   -0.0385 C.ar      1 <0>         0.2459
      8 C8          3.7001   -2.0873   -0.0517 C.ar      1 <0>        -0.3446
      9 C9          4.9031   -2.7661   -0.0679 C.ar      1 <0>         0.3252
     10 C10         6.0949   -2.0057   -0.0703 C.ar      1 <0>        -0.2471
     11 C11         7.3553   -2.6242   -0.0869 C.ar      1 <0>         0.0215
     12 C12         8.4659   -1.8269   -0.0887 C.ar      1 <0>        -0.2363
     13 C13         8.3231   -0.4410   -0.0742 C.ar      1 <0>         0.2364
     14 N1          7.1417    0.1315   -0.0588 N.ar      1 <0>        -0.4948
     15 C14         6.0162   -0.5919   -0.0562 C.ar      1 <0>         0.3727
     16 N2          4.8216    0.0067   -0.0463 N.ar      1 <0>        -0.5626
     17 Cl1         9.7449    0.5551   -0.0761 Cl        1 <0>        -0.0566
     18 O1          4.9397   -4.1213   -0.0805 O.3       1 <0>        -0.6782
     19 H1         -0.9603    1.9042    0.0260 H         1 <0>         0.1164
     20 H2          1.1480    3.1721    0.0082 H         1 <0>         0.1193
     21 H3          3.3022    1.9845   -0.0200 H         1 <0>         0.1362
     22 H4          1.2184   -1.7603   -0.0194 H         1 <0>         0.1294
     23 H5         -0.9264   -0.5557    0.0079 H         1 <0>         0.1201
     24 H6          2.7678   -2.6326   -0.0490 H         1 <0>         0.1178
     25 H7          7.4450   -3.7005   -0.0976 H         1 <0>         0.1418
     26 H8          9.4508   -2.2699   -0.1009 H         1 <0>         0.1337
@<TRIPOS>BOND
     1    1    6 ar
     2    1    2 ar
     3    1   19 1
     4    2    3 ar
     5    2   20 1
     6    3    4 ar
     7    3   21 1
     8    4    5 ar
     9    4    7 1
    10    5    6 ar
    11    5   22 1
    12    6   23 1
    13    7   16 ar
    14    7    8 ar
    15    8    9 ar
    16    8   24 1
    17    9   10 ar
    18    9   18 1
    19   10   15 ar
    20   10   11 ar
    21   11   12 ar
    22   11   25 1
    23   12   13 ar
    24   12   26 1
    25   13   14 ar
    26   13   17 1
    27   14   15 ar
    28   15   16 ar
