@<TRIPOS>MOLECULE
ZINC00537795
   57    59     0     0     0
SMALL
USER_CHARGES

@<TRIPOS>ATOM
      1 C1         -0.0184    1.5028    0.0103 C.3       1 <0>        -0.1061
      2 C2          0.0021   -0.0041    0.0020 C.ar      1 <0>         0.1023
      3 C3          0.0058   -0.6893   -1.2048 C.ar      1 <0>         0.0509
      4 N1          0.0236   -2.0068   -1.2170 N.ar      1 <0>        -0.4092
      5 C4          0.0386   -2.6811   -0.0703 C.ar      1 <0>         0.0196
      6 C5          0.0353   -1.9898    1.1402 C.ar      1 <0>         0.1186
      7 N2          0.0219   -0.6688    1.1435 N.ar      1 <0>        -0.4418
      8 C6          0.0582   -4.1624   -0.0798 C.2       1 <0>         0.5744
      9 O1          0.0718   -4.7766    0.9687 O.2       1 <0>        -0.5229
     10 N3          0.0609   -4.8289   -1.2512 N.am      1 <0>        -0.7086
     11 C7          0.0802   -6.2937   -1.2606 C.3       1 <0>         0.1206
     12 C8          0.0793   -6.7946   -2.7063 C.3       1 <0>        -0.0915
     13 C9          0.0992   -8.3014   -2.7159 C.ar      1 <0>        -0.0518
     14 C10         1.3054   -8.9767   -2.7209 C.ar      1 <0>        -0.1387
     15 C11         1.3237  -10.3588   -2.7297 C.ar      1 <0>        -0.0199
     16 C12         0.1358  -11.0658   -2.7331 C.ar      1 <0>        -0.6261
     17 C13        -1.0704  -10.3905   -2.7272 C.ar      1 <0>        -0.0200
     18 C14        -1.0887   -9.0084   -2.7140 C.ar      1 <0>        -0.1387
     19 S1          0.1591  -12.8276   -2.7455 S.o2      1 <0>         2.6734
     20 O2         -1.0815  -13.2463   -3.2976 O.2       1 <0>        -1.0097
     21 O3          1.4090  -13.2133   -3.3007 O.2       1 <0>        -1.0095
     22 N4          0.1677  -13.3283   -1.1670 N.2       1 <0>        -1.1046
     23 C15         0.1849  -14.5988   -0.8877 C.2       1 <0>         0.6849
     24 O4          0.1957  -15.5097   -1.8853 O.3       1 <0>        -0.7479
     25 N5          0.1920  -15.0141    0.4214 N.pl3     1 <0>        -0.7202
     26 C16         0.2113  -16.4448    0.7360 C.3       1 <0>         0.1652
     27 C17         1.6551  -16.9508    0.7209 C.3       1 <0>        -0.1304
     28 C18         1.6753  -18.4450    1.0494 C.3       1 <0>        -0.1163
     29 C19         1.0704  -18.6704    2.4366 C.3       1 <0>        -0.1184
     30 C20        -0.3735  -18.1644    2.4516 C.3       1 <0>        -0.1141
     31 C21        -0.3937  -16.6702    2.1231 C.3       1 <0>        -0.1258
     32 H1          1.0042    1.8801    0.0026 H         1 <0>         0.0882
     33 H2         -0.5455    1.8639   -0.8728 H         1 <0>         0.0844
     34 H3         -0.5286    1.8543    0.9071 H         1 <0>         0.0844
     35 H4         -0.0064   -0.1417   -2.1356 H         1 <0>         0.1778
     36 H5          0.0473   -2.5331    2.0735 H         1 <0>         0.1848
     37 H6          0.0500   -4.3386   -2.0882 H         1 <0>         0.4105
     38 H7          0.9777   -6.6484   -0.7538 H         1 <0>         0.0775
     39 H8         -0.8021   -6.6720   -0.7444 H         1 <0>         0.0776
     40 H9         -0.8181   -6.4398   -3.2131 H         1 <0>         0.0822
     41 H10         0.9617   -6.4162   -3.2224 H         1 <0>         0.0823
     42 H11         2.2335   -8.4243   -2.7182 H         1 <0>         0.1262
     43 H12         2.2661  -10.8864   -2.7343 H         1 <0>         0.1379
     44 H13        -1.9985  -10.9429   -2.7302 H         1 <0>         0.1380
     45 H14        -2.0310   -8.4808   -2.7057 H         1 <0>         0.1263
     46 H15         0.1842  -14.3600    1.1377 H         1 <0>         0.3913
     47 H16        -0.3719  -16.9881   -0.0075 H         1 <0>         0.0816
     48 H17         2.0861  -16.7902   -0.2673 H         1 <0>         0.0710
     49 H18         2.2384  -16.4074    1.4644 H         1 <0>         0.0553
     50 H19         1.0921  -18.9883    0.3060 H         1 <0>         0.0624
     51 H20         2.7039  -18.8055    1.0387 H         1 <0>         0.0572
     52 H21         1.0847  -19.7349    2.6706 H         1 <0>         0.0565
     53 H22         1.6536  -18.1270    3.1800 H         1 <0>         0.0590
     54 H23        -0.9567  -18.7077    1.7082 H         1 <0>         0.0632
     55 H24        -0.8045  -18.3250    3.4398 H         1 <0>         0.0595
     56 H25         0.1896  -16.1268    2.8665 H         1 <0>         0.0623
     57 H26        -1.4223  -16.3097    2.1338 H         1 <0>         0.0650
@<TRIPOS>BOND
     1    1    2 1
     2    1   32 1
     3    1   33 1
     4    1   34 1
     5    2    7 ar
     6    2    3 ar
     7    3    4 ar
     8    3   35 1
     9    4    5 ar
    10    5    6 ar
    11    5    8 1
    12    6    7 ar
    13    6   36 1
    14    8    9 2
    15    8   10 am
    16   10   11 1
    17   10   37 1
    18   11   12 1
    19   11   38 1
    20   11   39 1
    21   12   13 1
    22   12   40 1
    23   12   41 1
    24   13   18 ar
    25   13   14 ar
    26   14   15 ar
    27   14   42 1
    28   15   16 ar
    29   15   43 1
    30   16   17 ar
    31   16   19 1
    32   17   18 ar
    33   17   44 1
    34   18   45 1
    35   19   20 2
    36   19   21 2
    37   19   22 1
    38   22   23 2
    39   23   24 1
    40   23   25 1
    41   25   26 1
    42   25   46 1
    43   26   31 1
    44   26   27 1
    45   26   47 1
    46   27   28 1
    47   27   48 1
    48   27   49 1
    49   28   29 1
    50   28   50 1
    51   28   51 1
    52   29   30 1
    53   29   52 1
    54   29   53 1
    55   30   31 1
    56   30   54 1
    57   30   55 1
    58   31   56 1
    59   31   57 1
@<TRIPOS>MOLECULE
ZINC00537805
   60    62     0     0     0
SMALL
USER_CHARGES

@<TRIPOS>ATOM
      1 C1         -0.0173    1.4248    0.0099 C.3       1 <0>         0.0182
      2 O1          0.0021   -0.0041    0.0020 O.3       1 <0>        -0.2748
      3 C2          0.6248   -0.6173    1.0397 C.ar      1 <0>         0.1920
      4 C3          1.2017    0.1376    2.0502 C.ar      1 <0>        -0.2078
      5 C4          1.8351   -0.4872    3.1057 C.ar      1 <0>        -0.0422
      6 C5          1.9003   -1.8709    3.1645 C.ar      1 <0>        -0.0840
      7 C6          1.3321   -2.6365    2.1684 C.ar      1 <0>        -0.0380
      8 C7          0.6827   -2.0162    1.0981 C.ar      1 <0>        -0.1597
      9 C8          0.0667   -2.8292    0.0322 C.2       1 <0>         0.5595
     10 O2         -0.4933   -2.2858   -0.9002 O.2       1 <0>        -0.5093
     11 N1          0.1246   -4.1744    0.0921 N.am      1 <0>        -0.7295
     12 C9         -0.4871   -4.9818   -0.9663 C.3       1 <0>         0.1248
     13 C10        -0.2807   -6.4663   -0.6591 C.3       1 <0>        -0.0921
     14 C11        -0.9099   -7.2969   -1.7479 C.ar      1 <0>        -0.0513
     15 C12        -2.2308   -7.6903   -1.6410 C.ar      1 <0>        -0.1388
     16 C13        -2.8080   -8.4521   -2.6397 C.ar      1 <0>        -0.0201
     17 C14        -2.0644   -8.8201   -3.7454 C.ar      1 <0>        -0.6264
     18 C15        -0.7438   -8.4259   -3.8527 C.ar      1 <0>        -0.0200
     19 C16        -0.1679   -7.6605   -2.8560 C.ar      1 <0>        -0.1388
     20 S1         -2.7998   -9.7921   -5.0179 S.o2      1 <0>         2.6734
     21 O3         -1.7374  -10.4617   -5.6828 O.2       1 <0>        -1.0097
     22 O4         -3.8845  -10.4894   -4.4207 O.2       1 <0>        -1.0098
     23 N2         -3.4590   -8.7429   -6.1164 N.2       1 <0>        -1.1046
     24 C17        -4.0714   -9.2023   -7.1683 C.2       1 <0>         0.6850
     25 O5         -4.1695  -10.5353   -7.3644 O.3       1 <0>        -0.7480
     26 N3         -4.6181   -8.3321   -8.0794 N.pl3     1 <0>        -0.7202
     27 C18        -5.3077   -8.8494   -9.2639 C.3       1 <0>         0.1652
     28 C19        -4.2854   -9.1312  -10.3668 C.3       1 <0>        -0.1304
     29 C20        -5.0055   -9.6715  -11.6039 C.3       1 <0>        -0.1163
     30 C21        -6.0168   -8.6353  -12.0985 C.3       1 <0>        -0.1184
     31 C22        -7.0391   -8.3536  -10.9956 C.3       1 <0>        -0.1141
     32 C23        -6.3189   -7.8133   -9.7585 C.3       1 <0>        -0.1258
     33 Cl1         2.7012   -2.6426    4.4974 Cl        1 <0>        -0.0634
     34 H1          1.0053    1.8021    0.0021 H         1 <0>         0.0584
     35 H2         -0.5445    1.7859   -0.8732 H         1 <0>         0.1066
     36 H3         -0.5275    1.7763    0.9067 H         1 <0>         0.0584
     37 H4          1.1556    1.2159    2.0109 H         1 <0>         0.1455
     38 H5          2.2828    0.1052    3.8899 H         1 <0>         0.1414
     39 H6          1.3849   -3.7141    2.2178 H         1 <0>         0.1433
     40 H7          0.5714   -4.6080    0.8360 H         1 <0>         0.3973
     41 H8         -1.5543   -4.7662   -1.0169 H         1 <0>         0.0750
     42 H9         -0.0220   -4.7405   -1.9221 H         1 <0>         0.0750
     43 H10         0.7866   -6.6820   -0.6085 H         1 <0>         0.0813
     44 H11        -0.7458   -6.7077    0.2967 H         1 <0>         0.0814
     45 H12        -2.8117   -7.4028   -0.7772 H         1 <0>         0.1262
     46 H13        -3.8397   -8.7601   -2.5559 H         1 <0>         0.1378
     47 H14        -0.1628   -8.7137   -4.7164 H         1 <0>         0.1377
     48 H15         0.8628   -7.3493   -2.9416 H         1 <0>         0.1261
     49 H16        -4.5477   -7.3750   -7.9386 H         1 <0>         0.3913
     50 H17        -5.8287   -9.7718   -9.0072 H         1 <0>         0.0815
     51 H18        -3.7644   -8.2088  -10.6236 H         1 <0>         0.0553
     52 H19        -3.5649   -9.8694  -10.0144 H         1 <0>         0.0710
     53 H20        -4.2772   -9.8722  -12.3896 H         1 <0>         0.0572
     54 H21        -5.5265  -10.5939  -11.3471 H         1 <0>         0.0624
     55 H22        -5.4958   -7.7129  -12.3552 H         1 <0>         0.0590
     56 H23        -6.5298   -9.0202  -12.9798 H         1 <0>         0.0564
     57 H24        -7.7595   -7.6154  -11.3480 H         1 <0>         0.0595
     58 H25        -7.5601   -9.2759  -10.7388 H         1 <0>         0.0632
     59 H26        -7.0473   -7.6126   -8.9728 H         1 <0>         0.0650
     60 H27        -5.7980   -6.8909  -10.0153 H         1 <0>         0.0622
@<TRIPOS>BOND
     1    1    2 1
     2    1   34 1
     3    1   35 1
     4    1   36 1
     5    2    3 1
     6    3    8 ar
     7    3    4 ar
     8    4    5 ar
     9    4   37 1
    10    5    6 ar
    11    5   38 1
    12    6    7 ar
    13    6   33 1
    14    7    8 ar
    15    7   39 1
    16    8    9 1
    17    9   10 2
    18    9   11 am
    19   11   12 1
    20   11   40 1
    21   12   13 1
    22   12   41 1
    23   12   42 1
    24   13   14 1
    25   13   43 1
    26   13   44 1
    27   14   19 ar
    28   14   15 ar
    29   15   16 ar
    30   15   45 1
    31   16   17 ar
    32   16   46 1
    33   17   18 ar
    34   17   20 1
    35   18   19 ar
    36   18   47 1
    37   19   48 1
    38   20   21 2
    39   20   22 2
    40   20   23 1
    41   23   24 2
    42   24   25 1
    43   24   26 1
    44   26   27 1
    45   26   49 1
    46   27   32 1
    47   27   28 1
    48   27   50 1
    49   28   29 1
    50   28   51 1
    51   28   52 1
    52   29   30 1
    53   29   53 1
    54   29   54 1
    55   30   31 1
    56   30   55 1
    57   30   56 1
    58   31   32 1
    59   31   57 1
    60   31   58 1
    61   32   59 1
    62   32   60 1
