@<TRIPOS>MOLECULE
ZINC00014006
   39    41     0     0     0
SMALL
USER_CHARGES

@<TRIPOS>ATOM
      1 C1         -0.0259    1.5233    0.0027 C.3       1 <0>        -0.1915
      2 C2         -0.0037   -0.0065   -0.0063 C.3       1 <0>         0.0849
      3 C3          0.6310   -0.5063   -1.3103 C.3       1 <0>         0.0686
      4 H1          0.0054   -0.2215   -2.1562 H         1 <0>         0.0801
      5 C4          2.0123    0.1382   -1.4500 C.3       1 <0>         0.2115
      6 H2          2.5632   -0.3545   -2.2512 H         1 <0>         0.1033
      7 C5          2.7729   -0.0057   -0.1558 C.ar      1 <0>        -0.1494
      8 C6          4.1438    0.1612   -0.1717 C.ar      1 <0>         0.0071
      9 C7          4.8798    0.0387    1.0080 C.ar      1 <0>        -0.0639
     10 C8          4.2222   -0.2529    2.2065 C.ar      1 <0>        -0.0269
     11 C9          2.8569   -0.4189    2.2142 C.ar      1 <0>        -0.1521
     12 C10         2.1244   -0.2987    1.0341 C.ar      1 <0>         0.1885
     13 O1          0.7804   -0.4825    1.0882 O.3       1 <0>        -0.2951
     14 C11         6.3013    0.2104    0.9905 C.1       1 <0>         0.2605
     15 N1          7.4290    0.3466    0.9765 N.1       1 <0>        -0.4255
     16 N2          1.8571    1.5599   -1.7678 N.am      1 <0>        -0.6201
     17 C12         1.1602    2.0720   -2.9535 C.3       1 <0>         0.0971
     18 C13         0.8699    3.5588   -2.6509 C.3       1 <0>        -0.1329
     19 C14         1.9835    3.8965   -1.6327 C.3       1 <0>        -0.1580
     20 C15         2.3296    2.5629   -1.0079 C.2       1 <0>         0.5201
     21 O2          2.9460    2.4196    0.0267 O.2       1 <0>        -0.5047
     22 O3          0.7643   -1.9284   -1.2671 O.3       1 <0>        -0.5446
     23 C16        -1.4317   -0.5431    0.1113 C.3       1 <0>        -0.1444
     24 H3          0.9577    1.8992    0.2843 H         1 <0>         0.0845
     25 H4         -0.2837    1.8888   -0.9913 H         1 <0>         0.0744
     26 H5         -0.7675    1.8717    0.7216 H         1 <0>         0.0654
     27 H6          4.6479    0.3868   -1.0998 H         1 <0>         0.1253
     28 H7          4.7845   -0.3478    3.1236 H         1 <0>         0.1383
     29 H8          2.3491   -0.6443    3.1403 H         1 <0>         0.1398
     30 H9          1.7976    1.9836   -3.8333 H         1 <0>         0.0787
     31 H10         0.2274    1.5292   -3.1067 H         1 <0>         0.0795
     32 H11         0.9669    4.1662   -3.5508 H         1 <0>         0.0948
     33 H12        -0.1169    3.6806   -2.2043 H         1 <0>         0.0840
     34 H13         2.8496    4.3202   -2.1411 H         1 <0>         0.1070
     35 H14         1.6109    4.5848   -0.8740 H         1 <0>         0.1038
     36 H15        -0.0739   -2.3990   -1.1616 H         1 <0>         0.3854
     37 H16        -2.0247   -0.1852   -0.7304 H         1 <0>         0.0809
     38 H17        -1.4120   -1.6329    0.1045 H         1 <0>         0.0690
     39 H18        -1.8757   -0.1935    1.0433 H         1 <0>         0.0766
@<TRIPOS>BOND
     1    1    2 1
     2    1   24 1
     3    1   25 1
     4    1   26 1
     5    2   13 1
     6    2    3 1
     7    2   23 1
     8    3    4 1
     9    3    5 1
    10    3   22 1
    11    5    6 1
    12    5    7 1
    13    5   16 1
    14    7   12 ar
    15    7    8 ar
    16    8    9 ar
    17    8   27 1
    18    9   10 ar
    19    9   14 1
    20   10   11 ar
    21   10   28 1
    22   11   12 ar
    23   11   29 1
    24   12   13 1
    25   14   15 3
    26   16   20 am
    27   16   17 1
    28   17   18 1
    29   17   30 1
    30   17   31 1
    31   18   19 1
    32   18   32 1
    33   18   33 1
    34   19   20 1
    35   19   34 1
    36   19   35 1
    37   20   21 2
    38   22   36 1
    39   23   37 1
    40   23   38 1
    41   23   39 1
@<TRIPOS>MOLECULE
ZINC13579814
   34    34     0     0     0
SMALL
USER_CHARGES

@<TRIPOS>ATOM
      1 C1          1.9438    0.3643    1.6625 C.3       1 <0>        -0.1572
      2 C2          1.7348   -0.9767    0.9561 C.3       1 <0>        -0.0924
      3 C3          2.1962   -0.8643   -0.4983 C.3       1 <0>         0.1131
      4 C4          1.3825    0.2188   -1.2093 C.3       1 <0>        -0.1825
      5 C5          3.6803   -0.4941   -0.5354 C.3       1 <0>        -0.1750
      6 N1          1.9961   -2.1484   -1.1747 N.2       1 <0>        -0.5891
      7 C6          2.3273   -2.2833   -2.4271 C.2       1 <0>         0.6214
      8 N2          2.7770   -1.1929   -3.1431 N.pl3     1 <0>        -0.6312
      9 C7          2.9841   -1.2976   -4.4780 C.1       1 <0>         0.3876
     10 N3          3.1577   -1.3854   -5.5973 N.1       1 <0>        -0.3942
     11 N4          2.2287   -3.5134   -3.0363 N.pl3     1 <0>        -0.6556
     12 C8          1.6522   -4.5887   -2.3518 C.ar      1 <0>         0.1206
     13 C9          2.1143   -5.8866   -2.5572 C.ar      1 <0>        -0.1071
     14 C10         1.5119   -6.9181   -1.8561 C.ar      1 <0>        -0.1508
     15 C11         0.4801   -6.6285   -0.9823 C.ar      1 <0>         0.0784
     16 N5          0.0658   -5.3886   -0.8103 N.ar      1 <0>        -0.4656
     17 C12         0.6148   -4.3773   -1.4534 C.ar      1 <0>         0.1127
     18 H1          3.0011    0.6280    1.6361 H         1 <0>         0.0563
     19 H2          1.3641    1.1360    1.1560 H         1 <0>         0.0568
     20 H3          1.6151    0.2842    2.6987 H         1 <0>         0.0579
     21 H4          2.3146   -1.7484    1.4626 H         1 <0>         0.0678
     22 H5          0.6776   -1.2404    0.9826 H         1 <0>         0.0693
     23 H6          1.6411    1.1952   -0.7996 H         1 <0>         0.0729
     24 H7          1.6074    0.2011   -2.2756 H         1 <0>         0.0561
     25 H8          0.3192    0.0318   -1.0591 H         1 <0>         0.0717
     26 H9          4.2520   -1.2275    0.0332 H         1 <0>         0.0702
     27 H10         4.0268   -0.4853   -1.5689 H         1 <0>         0.0504
     28 H11         3.8193    0.4941   -0.0971 H         1 <0>         0.0743
     29 H12         2.9449   -0.3514   -2.6907 H         1 <0>         0.4466
     30 H13         2.5590   -3.6349   -3.9402 H         1 <0>         0.4160
     31 H14         2.9220   -6.0839   -3.2464 H         1 <0>         0.1350
     32 H15         1.8441   -7.9369   -1.9906 H         1 <0>         0.1385
     33 H16         0.0067   -7.4291   -0.4334 H         1 <0>         0.1567
     34 H17         0.2513   -3.3747   -1.2828 H         1 <0>         0.1705
@<TRIPOS>BOND
     1    1    2 1
     2    1   18 1
     3    1   19 1
     4    1   20 1
     5    2    3 1
     6    2   21 1
     7    2   22 1
     8    3    4 1
     9    3    5 1
    10    3    6 1
    11    4   23 1
    12    4   24 1
    13    4   25 1
    14    5   26 1
    15    5   27 1
    16    5   28 1
    17    6    7 2
    18    7    8 1
    19    7   11 1
    20    8    9 1
    21    8   29 1
    22    9   10 3
    23   11   12 1
    24   11   30 1
    25   12   17 ar
    26   12   13 ar
    27   13   14 ar
    28   13   31 1
    29   14   15 ar
    30   14   32 1
    31   15   16 ar
    32   15   33 1
    33   16   17 ar
    34   17   34 1
@<TRIPOS>MOLECULE
ZINC13579814
   34    34     0     0     0
SMALL
USER_CHARGES

@<TRIPOS>ATOM
      1 C1          2.1096    1.4458    0.3359 C.3       1 <0>        -0.1565
      2 C2          1.3592    0.1281    0.1326 C.3       1 <0>        -0.1217
      3 C3          2.0167   -0.6640   -0.9993 C.3       1 <0>         0.1613
      4 C4          1.9676    0.1554   -2.2905 C.3       1 <0>        -0.1762
      5 C5          3.4738   -0.9576   -0.6367 C.3       1 <0>        -0.1814
      6 N1          1.2981   -1.9257   -1.1939 N.pl3     1 <0>        -0.6941
      7 C6          1.7781   -2.8594   -2.0777 C.2       1 <0>         0.6592
      8 N2          1.1863   -4.0253   -2.1860 N.2       1 <0>        -0.6028
      9 C7          1.4515   -4.8309   -3.2619 C.ar      1 <0>         0.0829
     10 C8          2.0330   -6.0917   -3.0811 C.ar      1 <0>        -0.0954
     11 C9          2.2804   -6.8661   -4.2005 C.ar      1 <0>        -0.1373
     12 C10         1.9488   -6.3752   -5.4507 C.ar      1 <0>         0.0845
     13 N3          1.4018   -5.1833   -5.5913 N.ar      1 <0>        -0.4610
     14 C11         1.1414   -4.4110   -4.5566 C.ar      1 <0>         0.0565
     15 N4          2.8808   -2.5726   -2.8510 N.pl3     1 <0>        -0.6312
     16 C12         3.4413   -3.5397   -3.6169 C.1       1 <0>         0.4001
     17 N5          3.9112   -4.3505   -4.2590 N.1       1 <0>        -0.3779
     18 H1          3.1477    1.2366    0.5942 H         1 <0>         0.0627
     19 H2          2.0747    2.0295   -0.5839 H         1 <0>         0.0631
     20 H3          1.6412    2.0100    1.1423 H         1 <0>         0.0635
     21 H4          1.3942   -0.4556    1.0525 H         1 <0>         0.0760
     22 H5          0.3211    0.3373   -0.1257 H         1 <0>         0.0762
     23 H6          2.4275    1.1289   -2.1207 H         1 <0>         0.0853
     24 H7          2.5104   -0.3709   -3.0756 H         1 <0>         0.0544
     25 H8          0.9299    0.2919   -2.5949 H         1 <0>         0.0749
     26 H9          3.5067   -1.6139    0.2329 H         1 <0>         0.0727
     27 H10         3.9666   -1.4446   -1.4783 H         1 <0>         0.0603
     28 H11         3.9863   -0.0235   -0.4065 H         1 <0>         0.0844
     29 H12         0.4831   -2.1011   -0.6981 H         1 <0>         0.4280
     30 H13         2.2822   -6.4502   -2.0933 H         1 <0>         0.1304
     31 H14         2.7282   -7.8437   -4.0994 H         1 <0>         0.1336
     32 H15         2.1414   -6.9778   -6.3260 H         1 <0>         0.1527
     33 H16         0.6881   -3.4431   -4.7115 H         1 <0>         0.1442
     34 H17         3.2564   -1.6783   -2.8474 H         1 <0>         0.4285
@<TRIPOS>BOND
     1    1    2 1
     2    1   18 1
     3    1   19 1
     4    1   20 1
     5    2    3 1
     6    2   21 1
     7    2   22 1
     8    3    4 1
     9    3    5 1
    10    3    6 1
    11    4   23 1
    12    4   24 1
    13    4   25 1
    14    5   26 1
    15    5   27 1
    16    5   28 1
    17    6    7 1
    18    6   29 1
    19    7    8 2
    20    7   15 1
    21    8    9 1
    22    9   14 ar
    23    9   10 ar
    24   10   11 ar
    25   10   30 1
    26   11   12 ar
    27   11   31 1
    28   12   13 ar
    29   12   32 1
    30   13   14 ar
    31   14   33 1
    32   15   16 1
    33   15   34 1
    34   16   17 3
@<TRIPOS>MOLECULE
ZINC18096411
   37    37     0     0     0
SMALL
USER_CHARGES

@<TRIPOS>ATOM
      1 C1          0.0251    1.6822   -0.3666 C.3       1 <0>        -0.1689
      2 C2          0.1528    0.1586   -0.4230 C.3       1 <0>         0.1613
      3 H1          0.4951   -0.1409   -1.4136 H         1 <0>         0.0969
      4 C3          1.1622   -0.3078    0.6279 C.3       1 <0>        -0.0772
      5 C4          0.6818    0.1125    2.0184 C.3       1 <0>        -0.1475
      6 C5          1.2899   -1.8315    0.5715 C.3       1 <0>        -0.1411
      7 C6          2.5243    0.3290    0.3448 C.3       1 <0>        -0.1421
      8 N1         -1.1514   -0.4512   -0.1519 N.pl3     1 <0>        -0.6857
      9 C7         -2.0577   -0.6213   -1.1744 C.2       1 <0>         0.6560
     10 N2         -1.7484   -0.2313   -2.4109 N.2       1 <0>        -0.5853
     11 C8         -2.6276   -0.4276   -3.4231 C.1       1 <0>         0.3925
     12 N3         -3.3648   -0.5921   -4.2716 N.1       1 <0>        -0.4899
     13 N4         -3.2431   -1.1756   -0.9280 N.2       1 <0>        -0.6470
     14 C9         -3.5287   -2.3945   -1.4143 C.2       1 <0>         0.3260
     15 C10        -2.5425   -3.1516   -2.0873 C.2       1 <0>        -0.2651
     16 C11        -2.8613   -4.3758   -2.5655 C.2       1 <0>         0.1540
     17 N5         -4.1104   -4.8774   -2.4055 N.pl3     1 <0>        -0.5807
     18 C12        -5.0776   -4.1760   -1.7650 C.2       1 <0>         0.1354
     19 C13        -4.8197   -2.9488   -1.2586 C.2       1 <0>        -0.1959
     20 H2          0.9954    2.1359   -0.5683 H         1 <0>         0.0683
     21 H3         -0.6940    2.0145   -1.1153 H         1 <0>         0.0655
     22 H4         -0.3172    1.9817    0.6240 H         1 <0>         0.0575
     23 H5         -0.2886   -0.3411    2.2201 H         1 <0>         0.0512
     24 H6          1.4009   -0.2197    2.7671 H         1 <0>         0.0596
     25 H7          0.5908    1.1980    2.0585 H         1 <0>         0.0638
     26 H8          1.6322   -2.1310   -0.4191 H         1 <0>         0.0569
     27 H9          2.0090   -2.1637    1.3202 H         1 <0>         0.0573
     28 H10         0.3196   -2.2851    0.7732 H         1 <0>         0.0532
     29 H11         2.4333    1.4144    0.3850 H         1 <0>         0.0628
     30 H12         3.2434   -0.0033    1.0935 H         1 <0>         0.0594
     31 H13         2.8665    0.0295   -0.6458 H         1 <0>         0.0591
     32 H14        -1.3764   -0.7350    0.7479 H         1 <0>         0.4096
     33 H15        -1.5459   -2.7567   -2.2183 H         1 <0>         0.1475
     34 H16        -2.1129   -4.9597   -3.0806 H         1 <0>         0.1724
     35 H17        -6.0631   -4.6036   -1.6539 H         1 <0>         0.1774
     36 H18        -5.5929   -2.3965   -0.7452 H         1 <0>         0.1567
     37 H19        -4.3168   -5.7574   -2.7573 H         1 <0>         0.4258
@<TRIPOS>BOND
     1    1    2 1
     2    1   20 1
     3    1   21 1
     4    1   22 1
     5    2    3 1
     6    2    4 1
     7    2    8 1
     8    4    5 1
     9    4    6 1
    10    4    7 1
    11    5   23 1
    12    5   24 1
    13    5   25 1
    14    6   26 1
    15    6   27 1
    16    6   28 1
    17    7   29 1
    18    7   30 1
    19    7   31 1
    20    8    9 1
    21    8   32 1
    22    9   10 2
    23    9   13 1
    24   10   11 1
    25   11   12 3
    26   13   14 2
    27   14   19 1
    28   14   15 1
    29   15   16 2
    30   15   33 1
    31   16   17 1
    32   16   34 1
    33   17   18 1
    34   17   37 1
    35   18   19 2
    36   18   35 1
    37   19   36 1
@<TRIPOS>MOLECULE
ZINC18096411
   37    37     0     0     0
SMALL
USER_CHARGES

@<TRIPOS>ATOM
      1 C1          0.0184    1.4742   -0.0263 C.3       1 <0>        -0.1802
      2 C2         -0.0134   -0.0554   -0.0128 C.3       1 <0>         0.1371
      3 H1         -1.0481   -0.3972    0.0138 H         1 <0>         0.0834
      4 C3          0.6682   -0.5909   -1.2737 C.3       1 <0>        -0.0718
      5 C4          2.1206   -0.1112   -1.3111 C.3       1 <0>        -0.1487
      6 C5          0.6364   -2.1205   -1.2602 C.3       1 <0>        -0.1452
      7 C6         -0.0709   -0.0763   -2.5105 C.3       1 <0>        -0.1445
      8 N1          0.6943   -0.5482    1.1715 N.pl3     1 <0>        -0.7331
      9 C7          0.0353   -0.6548    2.3686 C.2       1 <0>         0.6607
     10 N2         -1.2686   -0.2298    2.4763 N.pl3     1 <0>        -0.5852
     11 C8         -1.9200   -0.3353    3.6597 C.1       1 <0>         0.4282
     12 N3         -2.4662   -0.4237    4.6518 N.1       1 <0>        -0.3830
     13 N4          0.6488   -1.1630    3.4131 N.2       1 <0>        -0.6104
     14 C9          1.9779   -1.4708    3.3418 C.ar      1 <0>         0.1920
     15 C10         2.9244   -0.5001    2.9850 C.ar      1 <0>        -0.2384
     16 C11         4.2540   -0.8544    2.9260 C.ar      1 <0>         0.1209
     17 N5          4.6403   -2.0873    3.1992 N.ar      1 <0>        -0.5050
     18 C12         3.7826   -3.0321    3.5393 C.ar      1 <0>         0.1196
     19 C13         2.4344   -2.7649    3.6289 C.ar      1 <0>        -0.1875
     20 H2          1.0531    1.8159   -0.0530 H         1 <0>         0.0714
     21 H3         -0.5082    1.8407   -0.9075 H         1 <0>         0.0791
     22 H4         -0.4672    1.8556    0.8719 H         1 <0>         0.0594
     23 H5          2.6471   -0.4778   -0.4299 H         1 <0>         0.0513
     24 H6          2.6061   -0.4927   -2.2093 H         1 <0>         0.0645
     25 H7          2.1432    0.9785   -1.3207 H         1 <0>         0.0655
     26 H8         -0.3983   -2.4622   -1.2335 H         1 <0>         0.0582
     27 H9          1.1220   -2.5019   -2.1584 H         1 <0>         0.0624
     28 H10         1.1629   -2.4871   -0.3790 H         1 <0>         0.0546
     29 H11        -0.0483    1.0134   -2.5202 H         1 <0>         0.0640
     30 H12         0.4147   -0.4577   -3.4088 H         1 <0>         0.0638
     31 H13        -1.1056   -0.4180   -2.4839 H         1 <0>         0.0596
     32 H14         1.6292   -0.7989    1.1085 H         1 <0>         0.4221
     33 H15         2.6156    0.5100    2.7595 H         1 <0>         0.1300
     34 H16         4.9908   -0.1138    2.6521 H         1 <0>         0.1536
     35 H17         4.1437   -4.0269    3.7542 H         1 <0>         0.1567
     36 H18         1.7392   -3.5414    3.9118 H         1 <0>         0.1352
     37 H19        -1.7216    0.1454    1.7050 H         1 <0>         0.4396
@<TRIPOS>BOND
     1    1    2 1
     2    1   20 1
     3    1   21 1
     4    1   22 1
     5    2    3 1
     6    2    4 1
     7    2    8 1
     8    4    5 1
     9    4    6 1
    10    4    7 1
    11    5   23 1
    12    5   24 1
    13    5   25 1
    14    6   26 1
    15    6   27 1
    16    6   28 1
    17    7   29 1
    18    7   30 1
    19    7   31 1
    20    8    9 1
    21    8   32 1
    22    9   10 1
    23    9   13 2
    24   10   11 1
    25   10   37 1
    26   11   12 3
    27   13   14 1
    28   14   19 ar
    29   14   15 ar
    30   15   16 ar
    31   15   33 1
    32   16   17 ar
    33   16   34 1
    34   17   18 ar
    35   18   19 ar
    36   18   35 1
    37   19   36 1
@<TRIPOS>MOLECULE
ZINC18189761
   37    37     0     0     0
SMALL
USER_CHARGES

@<TRIPOS>ATOM
      1 C1          0.4316    1.5630   -0.5340 C.3       1 <0>        -0.1658
      2 C2          0.2760    0.0480   -0.3876 C.3       1 <0>         0.1595
      3 H1          0.8678   -0.4537   -1.1532 H         1 <0>         0.0984
      4 C3         -1.1971   -0.3316   -0.5513 C.3       1 <0>        -0.0780
      5 C4         -1.6839    0.0996   -1.9362 C.3       1 <0>        -0.1420
      6 C5         -1.3526   -1.8466   -0.4049 C.3       1 <0>        -0.1429
      7 C6         -2.0277    0.3726    0.5234 C.3       1 <0>        -0.1464
      8 N1          0.7422   -0.3649    0.9385 N.pl3     1 <0>        -0.6856
      9 C7          2.0795   -0.6144    1.1512 C.2       1 <0>         0.6558
     10 N2          2.9499   -0.4803    0.1506 N.2       1 <0>        -0.5852
     11 C8          4.2700   -0.6954    0.3677 C.1       1 <0>         0.3925
     12 N3          5.3767   -0.8756    0.5496 N.1       1 <0>        -0.4899
     13 N4          2.5032   -0.9897    2.3565 N.2       1 <0>        -0.6472
     14 C9          3.2620   -0.1592    3.0903 C.2       1 <0>         0.3262
     15 C10         3.5207    1.1592    2.6505 C.2       1 <0>        -0.2652
     16 C11         4.2886    1.9711    3.4120 C.2       1 <0>         0.1540
     17 N5          4.8081    1.5324    4.5847 N.pl3     1 <0>        -0.5807
     18 C12         4.5783    0.2740    5.0333 C.2       1 <0>         0.1355
     19 C13         3.8134   -0.5838    4.3208 C.2       1 <0>        -0.1960
     20 H2          1.4810    1.8335   -0.4173 H         1 <0>         0.0619
     21 H3          0.0847    1.8702   -1.5206 H         1 <0>         0.0702
     22 H4         -0.1602    2.0647    0.2317 H         1 <0>         0.0569
     23 H5         -1.0922   -0.4020   -2.7019 H         1 <0>         0.0595
     24 H6         -2.7334   -0.1708   -2.0529 H         1 <0>         0.0594
     25 H7         -1.5731    1.1790   -2.0405 H         1 <0>         0.0617
     26 H8         -1.0058   -2.1538    0.5817 H         1 <0>         0.0555
     27 H9         -2.4021   -2.1170   -0.5216 H         1 <0>         0.0571
     28 H10        -0.7609   -2.3483   -1.1706 H         1 <0>         0.0579
     29 H11        -1.9169    1.4519    0.4191 H         1 <0>         0.0624
     30 H12        -3.0772    0.1022    0.4067 H         1 <0>         0.0598
     31 H13        -1.6808    0.0654    1.5100 H         1 <0>         0.0508
     32 H14         0.1088   -0.4625    1.6666 H         1 <0>         0.4097
     33 H15         3.1099    1.5138    1.7168 H         1 <0>         0.1476
     34 H16         4.4903    2.9796    3.0822 H         1 <0>         0.1725
     35 H17         5.0067   -0.0452    5.9719 H         1 <0>         0.1774
     36 H18         3.6298   -1.5838    4.6853 H         1 <0>         0.1568
     37 H19         5.3567    2.1320    5.1143 H         1 <0>         0.4259
@<TRIPOS>BOND
     1    1    2 1
     2    1   20 1
     3    1   21 1
     4    1   22 1
     5    2    3 1
     6    2    4 1
     7    2    8 1
     8    4    5 1
     9    4    6 1
    10    4    7 1
    11    5   23 1
    12    5   24 1
    13    5   25 1
    14    6   26 1
    15    6   27 1
    16    6   28 1
    17    7   29 1
    18    7   30 1
    19    7   31 1
    20    8    9 1
    21    8   32 1
    22    9   10 2
    23    9   13 1
    24   10   11 1
    25   11   12 3
    26   13   14 2
    27   14   19 1
    28   14   15 1
    29   15   16 2
    30   15   33 1
    31   16   17 1
    32   16   34 1
    33   17   18 1
    34   17   37 1
    35   18   19 2
    36   18   35 1
    37   19   36 1
@<TRIPOS>MOLECULE
ZINC18189761
   37    37     0     0     0
SMALL
USER_CHARGES

@<TRIPOS>ATOM
      1 C1         -0.3001    1.3038    0.1761 C.3       1 <0>        -0.1808
      2 C2         -0.0255   -0.1954    0.0427 C.3       1 <0>         0.1370
      3 H1         -0.9704   -0.7388    0.0372 H         1 <0>         0.0845
      4 C3          0.8260   -0.6650    1.2239 C.3       1 <0>        -0.0711
      5 C4          0.0767   -0.3982    2.5308 C.3       1 <0>        -0.1446
      6 C5          1.1007   -2.1643    1.0904 C.3       1 <0>        -0.1472
      7 C6          2.1524    0.0977    1.2315 C.3       1 <0>        -0.1485
      8 N1          0.6920   -0.4510   -1.2088 N.pl3     1 <0>        -0.7330
      9 C7         -0.0048   -0.6081   -2.3785 C.2       1 <0>         0.6606
     10 N2         -1.3673   -0.4192   -2.3982 N.pl3     1 <0>        -0.5854
     11 C8         -2.0562   -0.5745   -3.5546 C.1       1 <0>         0.4281
     12 N3         -2.6337   -0.7047   -4.5241 N.1       1 <0>        -0.3832
     13 N4          0.6283   -0.9391   -3.4809 N.2       1 <0>        -0.6097
     14 C9          1.9586   -1.2472   -3.4383 C.ar      1 <0>         0.1898
     15 C10         2.4390   -2.2510   -2.5857 C.ar      1 <0>        -0.2346
     16 C11         3.7879   -2.5289   -2.5756 C.ar      1 <0>         0.1196
     17 N5          4.6233   -1.8646   -3.3533 N.ar      1 <0>        -0.5045
     18 C12         4.2134   -0.9119   -4.1709 C.ar      1 <0>         0.1185
     19 C13         2.8811   -0.5723   -4.2502 C.ar      1 <0>        -0.1866
     20 H2          0.6448    1.8472    0.1816 H         1 <0>         0.0709
     21 H3         -0.9068    1.6384   -0.6654 H         1 <0>         0.0589
     22 H4         -0.8340    1.4939    1.1072 H         1 <0>         0.0790
     23 H5         -0.8682   -0.9415    2.5253 H         1 <0>         0.0597
     24 H6          0.6833   -0.7327    3.3723 H         1 <0>         0.0639
     25 H7         -0.1190    0.6699    2.6259 H         1 <0>         0.0635
     26 H8          1.6345   -2.3544    0.1593 H         1 <0>         0.0575
     27 H9          1.7073   -2.4988    1.9319 H         1 <0>         0.0627
     28 H10         0.1558   -2.7077    1.0849 H         1 <0>         0.0582
     29 H11         1.9567    1.1658    1.3266 H         1 <0>         0.0644
     30 H12         2.7590   -0.2369    2.0730 H         1 <0>         0.0649
     31 H13         2.6862   -0.0925    0.3004 H         1 <0>         0.0508
     32 H14         1.6603   -0.5090   -1.2095 H         1 <0>         0.4217
     33 H15         1.7618   -2.7979   -1.9464 H         1 <0>         0.1305
     34 H16         4.1678   -3.3004   -1.9223 H         1 <0>         0.1531
     35 H17         4.9325   -0.3949   -4.7890 H         1 <0>         0.1567
     36 H18         2.5525    0.2049   -4.9243 H         1 <0>         0.1354
     37 H19        -1.8348   -0.1747   -1.5842 H         1 <0>         0.4393
@<TRIPOS>BOND
     1    1    2 1
     2    1   20 1
     3    1   21 1
     4    1   22 1
     5    2    3 1
     6    2    4 1
     7    2    8 1
     8    4    5 1
     9    4    6 1
    10    4    7 1
    11    5   23 1
    12    5   24 1
    13    5   25 1
    14    6   26 1
    15    6   27 1
    16    6   28 1
    17    7   29 1
    18    7   30 1
    19    7   31 1
    20    8    9 1
    21    8   32 1
    22    9   10 1
    23    9   13 2
    24   10   11 1
    25   10   37 1
    26   11   12 3
    27   13   14 1
    28   14   19 ar
    29   14   15 ar
    30   15   16 ar
    31   15   33 1
    32   16   17 ar
    33   16   34 1
    34   17   18 ar
    35   18   19 ar
    36   18   35 1
    37   19   36 1
@<TRIPOS>MOLECULE
ZINC18189761
   37    37     0     0     0
SMALL
USER_CHARGES

@<TRIPOS>ATOM
      1 C1          0.3783    1.9817   -0.3927 C.3       1 <0>        -0.1775
      2 C2          0.1732    0.4752   -0.2215 C.3       1 <0>         0.1251
      3 H1         -0.8939    0.2558   -0.1839 H         1 <0>         0.0985
      4 C3          0.8346    0.0151    1.0792 C.3       1 <0>        -0.0697
      5 C4          0.2034    0.7534    2.2613 C.3       1 <0>        -0.1430
      6 C5          0.6295   -1.4914    1.2505 C.3       1 <0>        -0.1448
      7 C6          2.3323    0.3231    1.0264 C.3       1 <0>        -0.1487
      8 N1          0.7775   -0.2317   -1.3534 N.pl3     1 <0>        -0.6935
      9 C7          0.0450   -0.4596   -2.4892 C.2       1 <0>         0.6660
     10 N2         -1.2106    0.0871   -2.6190 N.pl3     1 <0>        -0.6274
     11 C8         -1.6744    0.9493   -1.6822 C.1       1 <0>         0.4038
     12 N3         -2.0631    1.6722   -0.8969 N.1       1 <0>        -0.3894
     13 N4          0.5419   -1.2000   -3.4538 N.2       1 <0>        -0.5990
     14 C9         -0.2153   -1.4865   -4.5542 C.ar      1 <0>         0.1858
     15 C10        -1.4890   -2.0575   -4.4239 C.ar      1 <0>        -0.2513
     16 C11        -2.2179   -2.3293   -5.5604 C.ar      1 <0>         0.1251
     17 N5         -1.7322   -2.0600   -6.7585 N.ar      1 <0>        -0.5051
     18 C12        -0.5377   -1.5225   -6.9266 C.ar      1 <0>         0.1220
     19 C13         0.2572   -1.2125   -5.8454 C.ar      1 <0>        -0.1847
     20 H2          1.4453    2.2011   -0.4303 H         1 <0>         0.0677
     21 H3         -0.0930    2.3095   -1.3193 H         1 <0>         0.0578
     22 H4         -0.0714    2.5077    0.4494 H         1 <0>         0.0829
     23 H5         -0.8636    0.5339    2.2989 H         1 <0>         0.0585
     24 H6          0.6747    0.4256    3.1879 H         1 <0>         0.0641
     25 H7          0.3496    1.8266    2.1393 H         1 <0>         0.0632
     26 H8          1.0792   -2.0174    0.4083 H         1 <0>         0.0596
     27 H9          1.1007   -1.8192    2.1771 H         1 <0>         0.0625
     28 H10        -0.4375   -1.7109    1.2881 H         1 <0>         0.0549
     29 H11         2.4785    1.3964    0.9044 H         1 <0>         0.0639
     30 H12         2.8036   -0.0047    1.9530 H         1 <0>         0.0643
     31 H13         2.7820   -0.2029    0.1842 H         1 <0>         0.0550
     32 H14         1.6961   -0.5386   -1.2990 H         1 <0>         0.4263
     33 H15        -1.8923   -2.2810   -3.4473 H         1 <0>         0.1318
     34 H16        -3.2002   -2.7691   -5.4705 H         1 <0>         0.1555
     35 H17        -0.1809   -1.3194   -7.9255 H         1 <0>         0.1580
     36 H18         1.2313   -0.7691   -5.9902 H         1 <0>         0.1378
     37 H19        -1.7640   -0.1446   -3.3812 H         1 <0>         0.4439
@<TRIPOS>BOND
     1    1    2 1
     2    1   20 1
     3    1   21 1
     4    1   22 1
     5    2    3 1
     6    2    4 1
     7    2    8 1
     8    4    5 1
     9    4    6 1
    10    4    7 1
    11    5   23 1
    12    5   24 1
    13    5   25 1
    14    6   26 1
    15    6   27 1
    16    6   28 1
    17    7   29 1
    18    7   30 1
    19    7   31 1
    20    8    9 1
    21    8   32 1
    22    9   10 1
    23    9   13 2
    24   10   11 1
    25   10   37 1
    26   11   12 3
    27   13   14 1
    28   14   19 ar
    29   14   15 ar
    30   15   16 ar
    31   15   33 1
    32   16   17 ar
    33   16   34 1
    34   17   18 ar
    35   18   19 ar
    36   18   35 1
    37   19   36 1
@<TRIPOS>MOLECULE
ZINC03995738
   39    40     0     0     0
SMALL
USER_CHARGES

@<TRIPOS>ATOM
      1 C1          0.7857   -1.3467   -1.6547 C.3       1 <0>        -0.1492
      2 C2          1.8563   -0.3352   -1.2405 C.3       1 <0>         0.0846
      3 C3          2.5808   -0.8420   -0.0201 C.2       1 <0>         0.4937
      4 O1          3.6200   -1.4553   -0.1429 O.2       1 <0>        -0.4805
      5 N1          2.0741   -0.6137    1.2077 N.am      1 <0>        -0.6588
      6 C4          2.6938   -1.1660    2.3341 C.ar      1 <0>         0.1956
      7 C5          1.9276   -1.5927    3.4108 C.ar      1 <0>        -0.1585
      8 C6          2.5424   -2.1374    4.5212 C.ar      1 <0>        -0.0004
      9 C7          3.9193   -2.2579    4.5616 C.ar      1 <0>        -0.6706
     10 C8          4.6852   -1.8335    3.4912 C.ar      1 <0>         0.0001
     11 C9          4.0761   -1.2937    2.3754 C.ar      1 <0>        -0.1402
     12 S1          4.6997   -2.9533    5.9800 S.o2      1 <0>         2.5832
     13 O2          6.0303   -2.4547    5.9969 O.2       1 <0>        -0.9342
     14 O3          3.8036   -2.7700    7.0675 O.2       1 <0>        -0.9348
     15 C10         4.8165   -4.6908    5.7112 C.ar      1 <0>        -0.6588
     16 C11         3.7895   -5.5232    6.1152 C.ar      1 <0>        -0.0227
     17 C12         3.8811   -6.8863    5.9042 C.ar      1 <0>        -0.1393
     18 C13         4.9995   -7.4169    5.2889 C.ar      1 <0>        -0.0622
     19 C14         6.0261   -6.5843    4.8841 C.ar      1 <0>        -0.1385
     20 C15         5.9326   -5.2208    5.0912 C.ar      1 <0>        -0.0219
     21 C16         2.8538   -0.1505   -2.3858 C.3       1 <0>         0.4425
     22 F1          2.1812    0.3200   -3.5187 F         1 <0>        -0.1654
     23 F2          3.8328    0.7744   -2.0071 F         1 <0>        -0.1764
     24 F3          3.4596   -1.3770   -2.6789 F         1 <0>        -0.1588
     25 O4          1.2376    0.9176   -0.9411 O.3       1 <0>        -0.5164
     26 H1          0.0751   -1.4782   -0.8387 H         1 <0>         0.0945
     27 H2          0.2616   -0.9801   -2.5374 H         1 <0>         0.0984
     28 H3          1.2577   -2.3023   -1.8831 H         1 <0>         0.0962
     29 H4          1.2797   -0.0666    1.3105 H         1 <0>         0.4241
     30 H5          0.8522   -1.4985    3.3801 H         1 <0>         0.1410
     31 H6          1.9471   -2.4691    5.3591 H         1 <0>         0.1497
     32 H7          5.7604   -1.9287    3.5259 H         1 <0>         0.1485
     33 H8          4.6744   -0.9672    1.5377 H         1 <0>         0.1504
     34 H9          2.9158   -5.1087    6.5959 H         1 <0>         0.1425
     35 H10         3.0791   -7.5368    6.2205 H         1 <0>         0.1351
     36 H11         5.0714   -8.4819    5.1248 H         1 <0>         0.1328
     37 H12         6.9000   -6.9989    4.4037 H         1 <0>         0.1353
     38 H13         6.7329   -4.5699    4.7715 H         1 <0>         0.1428
     39 H14         1.8581    1.6081   -0.6704 H         1 <0>         0.3963
@<TRIPOS>BOND
     1    1    2 1
     2    1   26 1
     3    1   27 1
     4    1   28 1
     5    2    3 1
     6    2   21 1
     7    2   25 1
     8    3    4 2
     9    3    5 am
    10    5    6 1
    11    5   29 1
    12    6   11 ar
    13    6    7 ar
    14    7    8 ar
    15    7   30 1
    16    8    9 ar
    17    8   31 1
    18    9   10 ar
    19    9   12 1
    20   10   11 ar
    21   10   32 1
    22   11   33 1
    23   12   13 2
    24   12   14 2
    25   12   15 1
    26   15   20 ar
    27   15   16 ar
    28   16   17 ar
    29   16   34 1
    30   17   18 ar
    31   17   35 1
    32   18   19 ar
    33   18   36 1
    34   19   20 ar
    35   19   37 1
    36   20   38 1
    37   21   22 1
    38   21   23 1
    39   21   24 1
    40   25   39 1
@<TRIPOS>MOLECULE
ZINC03995739
   39    40     0     0     0
SMALL
USER_CHARGES

@<TRIPOS>ATOM
      1 C1         -2.7716   -0.3342    0.9031 C.3       1 <0>        -0.1501
      2 C2         -1.7058    0.6876    1.3043 C.3       1 <0>         0.0840
      3 C3         -0.9718    0.1950    2.5248 C.2       1 <0>         0.4938
      4 O1         -1.3200    0.5566    3.6289 O.2       1 <0>        -0.4806
      5 N1          0.0715   -0.6474    2.3895 N.am      1 <0>        -0.6585
      6 C4          0.8135   -1.0283    3.5130 C.ar      1 <0>         0.1951
      7 C5          2.1835   -1.2291    3.4068 C.ar      1 <0>        -0.1587
      8 C6          2.9130   -1.6051    4.5176 C.ar      1 <0>        -0.0005
      9 C7          2.2806   -1.7816    5.7346 C.ar      1 <0>        -0.6707
     10 C8          0.9165   -1.5829    5.8436 C.ar      1 <0>         0.0000
     11 C9          0.1823   -1.2009    4.7379 C.ar      1 <0>        -0.1402
     12 S1          3.2149   -2.2614    7.1494 S.o2      1 <0>         2.5834
     13 O2          2.3058   -2.8902    8.0423 O.2       1 <0>        -0.9342
     14 O3          4.3804   -2.9137    6.6643 O.2       1 <0>        -0.9349
     15 C10         3.7575   -0.7837    7.9410 C.ar      1 <0>        -0.6589
     16 C11         4.9648   -0.2122    7.5852 C.ar      1 <0>        -0.0228
     17 C12         5.3905    0.9471    8.2062 C.ar      1 <0>        -0.1392
     18 C13         4.6085    1.5352    9.1828 C.ar      1 <0>        -0.0621
     19 C14         3.4008    0.9642    9.5380 C.ar      1 <0>        -0.1385
     20 C15         2.9731   -0.1927    8.9139 C.ar      1 <0>        -0.0219
     21 C16        -2.3757    2.0269    1.6180 C.3       1 <0>         0.4429
     22 F1         -3.2815    1.8599    2.6711 F         1 <0>        -0.1588
     23 F2         -1.4012    2.9612    1.9848 F         1 <0>        -0.1767
     24 F3         -3.0571    2.4842    0.4849 F         1 <0>        -0.1654
     25 O4         -0.7806    0.8582    0.2286 O.3       1 <0>        -0.5158
     26 H1         -3.4773   -0.4643    1.7236 H         1 <0>         0.0969
     27 H2         -3.3024    0.0221    0.0203 H         1 <0>         0.0985
     28 H3         -2.2943   -1.2883    0.6796 H         1 <0>         0.0948
     29 H4          0.3081   -0.9896    1.5132 H         1 <0>         0.4242
     30 H5          2.6779   -1.0917    2.4565 H         1 <0>         0.1411
     31 H6          3.9784   -1.7617    4.4356 H         1 <0>         0.1496
     32 H7          0.4255   -1.7220    6.7954 H         1 <0>         0.1486
     33 H8         -0.8822   -1.0408    4.8248 H         1 <0>         0.1511
     34 H9          5.5757   -0.6716    6.8222 H         1 <0>         0.1425
     35 H10         6.3341    1.3932    7.9287 H         1 <0>         0.1351
     36 H11         4.9414    2.4406    9.6685 H         1 <0>         0.1328
     37 H12         2.7900    1.4235   10.3012 H         1 <0>         0.1354
     38 H13         2.0278   -0.6368    9.1887 H         1 <0>         0.1429
     39 H14        -0.0755    1.4936    0.4134 H         1 <0>         0.3959
@<TRIPOS>BOND
     1    1    2 1
     2    1   26 1
     3    1   27 1
     4    1   28 1
     5    2    3 1
     6    2   21 1
     7    2   25 1
     8    3    4 2
     9    3    5 am
    10    5    6 1
    11    5   29 1
    12    6   11 ar
    13    6    7 ar
    14    7    8 ar
    15    7   30 1
    16    8    9 ar
    17    8   31 1
    18    9   10 ar
    19    9   12 1
    20   10   11 ar
    21   10   32 1
    22   11   33 1
    23   12   13 2
    24   12   14 2
    25   12   15 1
    26   15   20 ar
    27   15   16 ar
    28   16   17 ar
    29   16   34 1
    30   17   18 ar
    31   17   35 1
    32   18   19 ar
    33   18   36 1
    34   19   20 ar
    35   19   37 1
    36   20   38 1
    37   21   22 1
    38   21   23 1
    39   21   24 1
    40   25   39 1
@<TRIPOS>MOLECULE
ZINC03946466
   39    41     0     0     0
SMALL
USER_CHARGES

@<TRIPOS>ATOM
      1 C1          1.5635    1.1323   -0.7789 C.ar      1 <0>        -0.1038
      2 C2          2.4995    1.9690   -0.1997 C.ar      1 <0>        -0.0897
      3 C3          3.8357    1.6153   -0.1968 C.ar      1 <0>        -0.0622
      4 C4          4.2370    0.4247   -0.7735 C.ar      1 <0>        -0.1014
      5 C5          3.3010   -0.4128   -1.3532 C.ar      1 <0>        -0.0315
      6 C6          1.9634   -0.0582   -1.3554 C.ar      1 <0>        -0.1082
      7 Cl1         3.8042   -1.9077   -2.0781 Cl        1 <0>        -0.0677
      8 C7          4.8552    2.5278    0.4347 C.3       1 <0>         0.1997
      9 C8          6.2111    2.5324   -0.2909 C.3       1 <0>        -0.1333
     10 C9          6.8665    2.5656    1.0998 C.3       1 <0>        -0.1445
     11 C10         5.5870    1.8988    1.6321 C.3       1 <0>        -0.1248
     12 N1          4.3286    3.8675    0.7066 N.pl3     1 <0>        -0.6778
     13 C11         3.3574    4.0409    1.6521 C.2       1 <0>         0.6816
     14 N2          2.9666    3.0189    2.3930 N.2       1 <0>        -0.5358
     15 C12         2.0788    3.2113    3.3984 C.1       1 <0>         0.3729
     16 N3          1.3344    3.3726    4.2412 N.1       1 <0>        -0.4551
     17 N4          2.7899    5.2722    1.8316 N.pl3     1 <0>        -0.6819
     18 C13         2.8620    6.2306    0.8149 C.ar      1 <0>         0.1006
     19 C14         2.7001    7.5831    1.1059 C.ar      1 <0>        -0.1061
     20 C15         2.7799    8.4940    0.0656 C.ar      1 <0>        -0.1292
     21 C16         3.0156    8.0351   -1.2173 C.ar      1 <0>         0.0778
     22 N5          3.1643    6.7476   -1.4597 N.ar      1 <0>        -0.4437
     23 C17         3.1015    5.8480   -0.4983 C.ar      1 <0>         0.0406
     24 H1          0.5191    1.4072   -0.7769 H         1 <0>         0.1297
     25 H2          2.1866    2.8996    0.2504 H         1 <0>         0.1176
     26 H3          5.2811    0.1487   -0.7719 H         1 <0>         0.1363
     27 H4          1.2322   -0.7117   -1.8078 H         1 <0>         0.1331
     28 H5          6.4120    1.6164   -0.8466 H         1 <0>         0.1078
     29 H6          6.3886    3.4329   -0.8789 H         1 <0>         0.0795
     30 H7          7.7527    1.9360    1.1800 H         1 <0>         0.0786
     31 H8          7.0257    3.5733    1.4835 H         1 <0>         0.0815
     32 H9          5.2607    2.2878    2.5966 H         1 <0>         0.0889
     33 H10         5.6174    0.8096    1.6022 H         1 <0>         0.0976
     34 H11         4.6693    4.6315    0.2155 H         1 <0>         0.4234
     35 H12         2.3374    5.4811    2.6638 H         1 <0>         0.4279
     36 H13         2.5167    7.9134    2.1177 H         1 <0>         0.1428
     37 H14         2.6590    9.5505    0.2542 H         1 <0>         0.1461
     38 H15         3.0783    8.7411   -2.0322 H         1 <0>         0.1645
     39 H16         3.2330    4.8025   -0.7350 H         1 <0>         0.1679
@<TRIPOS>BOND
     1    1    6 ar
     2    1    2 ar
     3    1   24 1
     4    2    3 ar
     5    2   25 1
     6    3    4 ar
     7    3    8 1
     8    4    5 ar
     9    4   26 1
    10    5    6 ar
    11    5    7 1
    12    6   27 1
    13    8   11 1
    14    8    9 1
    15    8   12 1
    16    9   10 1
    17    9   28 1
    18    9   29 1
    19   10   11 1
    20   10   30 1
    21   10   31 1
    22   11   32 1
    23   11   33 1
    24   12   13 1
    25   12   34 1
    26   13   14 2
    27   13   17 1
    28   14   15 1
    29   15   16 3
    30   17   18 1
    31   17   35 1
    32   18   23 ar
    33   18   19 ar
    34   19   20 ar
    35   19   36 1
    36   20   21 ar
    37   20   37 1
    38   21   22 ar
    39   21   38 1
    40   22   23 ar
    41   23   39 1
@<TRIPOS>MOLECULE
ZINC03946466
   38    40     0     0     0
SMALL
USER_CHARGES

@<TRIPOS>ATOM
      1 C1         -0.5995    3.1646   -1.4887 C.ar      1 <0>        -0.1096
      2 C2          0.6946    3.5408   -1.1799 C.ar      1 <0>        -0.0753
      3 C3          1.7479    2.6916   -1.4627 C.ar      1 <0>        -0.0350
      4 C4          1.5079    1.4657   -2.0549 C.ar      1 <0>        -0.1055
      5 C5          0.2134    1.0888   -2.3641 C.ar      1 <0>        -0.0359
      6 C6         -0.8407    1.9392   -2.0803 C.ar      1 <0>        -0.1200
      7 Cl1        -0.0887   -0.4502   -3.1083 Cl        1 <0>        -0.0868
      8 C7          3.1581    3.1023   -1.1258 C.3       1 <0>         0.2077
      9 C8          4.0775    3.2129   -2.3536 C.3       1 <0>        -0.1352
     10 C9          5.1764    2.5708   -1.4905 C.3       1 <0>        -0.1409
     11 C10         4.0462    1.9348   -0.6641 C.3       1 <0>        -0.1297
     12 N1          3.2150    4.2685   -0.2410 N.pl3     1 <0>        -0.7176
     13 C11         2.7105    4.1897    1.0265 C.2       1 <0>         0.6391
     14 N2          2.1345    3.0747    1.4402 N.2       1 <0>        -0.6063
     15 C12         1.7087    2.9673    2.7221 C.1       1 <0>         0.4269
     16 N3          1.3517    2.8773    3.7967 N.1       1 <0>        -0.5565
     17 N4          2.8016    5.2649    1.8668 N.2       1 <0>        -0.7104
     18 C13         3.7856    6.2365    1.6554 C.ar      1 <0>         0.1642
     19 C14         3.5772    7.5531    2.0597 C.ar      1 <0>        -0.1450
     20 C15         4.5810    8.4790    1.8285 C.ar      1 <0>        -0.1343
     21 C16         5.7476    8.0699    1.2092 C.ar      1 <0>        -0.0047
     22 N5          5.9140    6.8155    0.8384 N.ar      1 <0>        -0.4581
     23 C17         4.9868    5.9015    1.0445 C.ar      1 <0>        -0.0263
     24 H1         -1.4225    3.8266   -1.2633 H         1 <0>         0.1241
     25 H2          0.8827    4.4986   -0.7178 H         1 <0>         0.1235
     26 H3          2.3311    0.8026   -2.2765 H         1 <0>         0.1293
     27 H4         -1.8516    1.6455   -2.3215 H         1 <0>         0.1246
     28 H5          3.7625    2.5920   -3.1923 H         1 <0>         0.0922
     29 H6          4.2955    4.2404   -2.6447 H         1 <0>         0.0712
     30 H7          5.7857    1.8446   -2.0285 H         1 <0>         0.0670
     31 H8          5.7716    3.2937   -0.9326 H         1 <0>         0.0821
     32 H9          4.2389    1.9306    0.4087 H         1 <0>         0.0822
     33 H10         3.7226    0.9646   -1.0409 H         1 <0>         0.0853
     34 H11         3.6108    5.0966   -0.5548 H         1 <0>         0.4055
     35 H12         2.6556    7.8448    2.5411 H         1 <0>         0.1181
     36 H13         4.4538    9.5087    2.1283 H         1 <0>         0.1153
     37 H14         6.5334    8.7879    1.0263 H         1 <0>         0.1339
     38 H15         5.1612    4.8828    0.7310 H         1 <0>         0.1409
@<TRIPOS>BOND
     1    1    6 ar
     2    1    2 ar
     3    1   24 1
     4    2    3 ar
     5    2   25 1
     6    3    4 ar
     7    3    8 1
     8    4    5 ar
     9    4   26 1
    10    5    6 ar
    11    5    7 1
    12    6   27 1
    13    8   11 1
    14    8    9 1
    15    8   12 1
    16    9   10 1
    17    9   28 1
    18    9   29 1
    19   10   11 1
    20   10   30 1
    21   10   31 1
    22   11   32 1
    23   11   33 1
    24   12   13 1
    25   12   34 1
    26   13   14 2
    27   13   17 1
    28   14   15 1
    29   15   16 3
    30   17   18 1
    31   18   23 ar
    32   18   19 ar
    33   19   20 ar
    34   19   35 1
    35   20   21 ar
    36   20   36 1
    37   21   22 ar
    38   21   37 1
    39   22   23 ar
    40   23   38 1
@<TRIPOS>MOLECULE
ZINC03946466
   39    41     0     0     0
SMALL
USER_CHARGES

@<TRIPOS>ATOM
      1 C1         -0.9294    1.6907    1.3446 C.ar      1 <0>        -0.0997
      2 C2          0.2272    2.2777    0.8658 C.ar      1 <0>        -0.1017
      3 C3          1.2654    1.4882    0.4084 C.ar      1 <0>        -0.0942
      4 C4          1.1477    0.1110    0.4290 C.ar      1 <0>        -0.0999
      5 C5         -0.0092   -0.4769    0.9079 C.ar      1 <0>        -0.0312
      6 C6         -1.0481    0.3141    1.3661 C.ar      1 <0>        -0.1029
      7 Cl1        -0.1580   -2.2063    0.9336 Cl        1 <0>        -0.0606
      8 C7          2.5258    2.1288   -0.1133 C.3       1 <0>         0.1700
      9 C8          2.8085    1.8172   -1.5924 C.3       1 <0>        -0.1234
     10 C9          4.2894    1.6846   -1.2000 C.3       1 <0>        -0.1347
     11 C10         3.8017    1.3361    0.2162 C.3       1 <0>        -0.1554
     12 N1          2.6183    3.5533    0.2163 N.pl3     1 <0>        -0.7189
     13 C11         2.7380    3.9484    1.5251 C.2       1 <0>         0.6572
     14 N2          2.7955    3.0051    2.5266 N.pl3     1 <0>        -0.5838
     15 C12         3.0170    3.3890    3.8070 C.1       1 <0>         0.4277
     16 N3          3.2028    3.7109    4.8805 N.1       1 <0>        -0.3835
     17 N4          2.7977    5.2249    1.8221 N.2       1 <0>        -0.5963
     18 C13         2.8678    6.1584    0.8217 C.ar      1 <0>         0.0919
     19 C14         1.9231    7.1887    0.7419 C.ar      1 <0>        -0.0887
     20 C15         2.0385    8.1058   -0.2875 C.ar      1 <0>        -0.1458
     21 C16         3.0734    7.9771   -1.1965 C.ar      1 <0>         0.0712
     22 N5          3.9494    6.9961   -1.0969 N.ar      1 <0>        -0.4626
     23 C17         3.8857    6.1019   -0.1319 C.ar      1 <0>         0.0431
     24 H1         -1.7385    2.3080    1.7060 H         1 <0>         0.1353
     25 H2          0.3194    3.3537    0.8488 H         1 <0>         0.1270
     26 H3          1.9587   -0.5058    0.0710 H         1 <0>         0.1402
     27 H4         -1.9516   -0.1444    1.7400 H         1 <0>         0.1370
     28 H5          2.3622    0.8836   -1.9349 H         1 <0>         0.1041
     29 H6          2.6073    2.6541   -2.2611 H         1 <0>         0.0807
     30 H7          4.8017    0.8625   -1.6999 H         1 <0>         0.0812
     31 H8          4.8410    2.6232   -1.2532 H         1 <0>         0.0875
     32 H9          4.4022    1.7847    1.0076 H         1 <0>         0.0808
     33 H10         3.6269    0.2710    0.3681 H         1 <0>         0.1044
     34 H11         2.5950    4.2172   -0.4906 H         1 <0>         0.4250
     35 H12         1.1246    7.2654    1.4651 H         1 <0>         0.1360
     36 H13         1.3277    8.9136   -0.3807 H         1 <0>         0.1376
     37 H14         3.1654    8.6915   -2.0012 H         1 <0>         0.1560
     38 H15         4.6245    5.3158   -0.0806 H         1 <0>         0.1499
     39 H16         2.6774    2.0657    2.3154 H         1 <0>         0.4394
@<TRIPOS>BOND
     1    1    6 ar
     2    1    2 ar
     3    1   24 1
     4    2    3 ar
     5    2   25 1
     6    3    4 ar
     7    3    8 1
     8    4    5 ar
     9    4   26 1
    10    5    6 ar
    11    5    7 1
    12    6   27 1
    13    8   11 1
    14    8    9 1
    15    8   12 1
    16    9   10 1
    17    9   28 1
    18    9   29 1
    19   10   11 1
    20   10   30 1
    21   10   31 1
    22   11   32 1
    23   11   33 1
    24   12   13 1
    25   12   34 1
    26   13   14 1
    27   13   17 2
    28   14   15 1
    29   14   39 1
    30   15   16 3
    31   17   18 1
    32   18   23 ar
    33   18   19 ar
    34   19   20 ar
    35   19   35 1
    36   20   21 ar
    37   20   36 1
    38   21   22 ar
    39   21   37 1
    40   22   23 ar
    41   23   38 1
@<TRIPOS>MOLECULE
ZINC00537805
   60    62     0     0     0
SMALL
USER_CHARGES

@<TRIPOS>ATOM
      1 C1         -0.0173    1.4248    0.0099 C.3       1 <0>         0.0182
      2 O1          0.0021   -0.0041    0.0020 O.3       1 <0>        -0.2748
      3 C2          0.6248   -0.6173    1.0397 C.ar      1 <0>         0.1920
      4 C3          1.2017    0.1376    2.0502 C.ar      1 <0>        -0.2078
      5 C4          1.8351   -0.4872    3.1057 C.ar      1 <0>        -0.0422
      6 C5          1.9003   -1.8709    3.1645 C.ar      1 <0>        -0.0840
      7 C6          1.3321   -2.6365    2.1684 C.ar      1 <0>        -0.0380
      8 C7          0.6827   -2.0162    1.0981 C.ar      1 <0>        -0.1597
      9 C8          0.0667   -2.8292    0.0322 C.2       1 <0>         0.5595
     10 O2         -0.4933   -2.2858   -0.9002 O.2       1 <0>        -0.5093
     11 N1          0.1246   -4.1744    0.0921 N.am      1 <0>        -0.7295
     12 C9         -0.4871   -4.9818   -0.9663 C.3       1 <0>         0.1248
     13 C10        -0.2807   -6.4663   -0.6591 C.3       1 <0>        -0.0921
     14 C11        -0.9099   -7.2969   -1.7479 C.ar      1 <0>        -0.0513
     15 C12        -2.2308   -7.6903   -1.6410 C.ar      1 <0>        -0.1388
     16 C13        -2.8080   -8.4521   -2.6397 C.ar      1 <0>        -0.0201
     17 C14        -2.0644   -8.8201   -3.7454 C.ar      1 <0>        -0.6264
     18 C15        -0.7438   -8.4259   -3.8527 C.ar      1 <0>        -0.0200
     19 C16        -0.1679   -7.6605   -2.8560 C.ar      1 <0>        -0.1388
     20 S1         -2.7998   -9.7921   -5.0179 S.o2      1 <0>         2.6734
     21 O3         -1.7374  -10.4617   -5.6828 O.2       1 <0>        -1.0097
     22 O4         -3.8845  -10.4894   -4.4207 O.2       1 <0>        -1.0098
     23 N2         -3.4590   -8.7429   -6.1164 N.2       1 <0>        -1.1046
     24 C17        -4.0714   -9.2023   -7.1683 C.2       1 <0>         0.6850
     25 O5         -4.1695  -10.5353   -7.3644 O.3       1 <0>        -0.7480
     26 N3         -4.6181   -8.3321   -8.0794 N.pl3     1 <0>        -0.7202
     27 C18        -5.3077   -8.8494   -9.2639 C.3       1 <0>         0.1652
     28 C19        -4.2854   -9.1312  -10.3668 C.3       1 <0>        -0.1304
     29 C20        -5.0055   -9.6715  -11.6039 C.3       1 <0>        -0.1163
     30 C21        -6.0168   -8.6353  -12.0985 C.3       1 <0>        -0.1184
     31 C22        -7.0391   -8.3536  -10.9956 C.3       1 <0>        -0.1141
     32 C23        -6.3189   -7.8133   -9.7585 C.3       1 <0>        -0.1258
     33 Cl1         2.7012   -2.6426    4.4974 Cl        1 <0>        -0.0634
     34 H1          1.0053    1.8021    0.0021 H         1 <0>         0.0584
     35 H2         -0.5445    1.7859   -0.8732 H         1 <0>         0.1066
     36 H3         -0.5275    1.7763    0.9067 H         1 <0>         0.0584
     37 H4          1.1556    1.2159    2.0109 H         1 <0>         0.1455
     38 H5          2.2828    0.1052    3.8899 H         1 <0>         0.1414
     39 H6          1.3849   -3.7141    2.2178 H         1 <0>         0.1433
     40 H7          0.5714   -4.6080    0.8360 H         1 <0>         0.3973
     41 H8         -1.5543   -4.7662   -1.0169 H         1 <0>         0.0750
     42 H9         -0.0220   -4.7405   -1.9221 H         1 <0>         0.0750
     43 H10         0.7866   -6.6820   -0.6085 H         1 <0>         0.0813
     44 H11        -0.7458   -6.7077    0.2967 H         1 <0>         0.0814
     45 H12        -2.8117   -7.4028   -0.7772 H         1 <0>         0.1262
     46 H13        -3.8397   -8.7601   -2.5559 H         1 <0>         0.1378
     47 H14        -0.1628   -8.7137   -4.7164 H         1 <0>         0.1377
     48 H15         0.8628   -7.3493   -2.9416 H         1 <0>         0.1261
     49 H16        -4.5477   -7.3750   -7.9386 H         1 <0>         0.3913
     50 H17        -5.8287   -9.7718   -9.0072 H         1 <0>         0.0815
     51 H18        -3.7644   -8.2088  -10.6236 H         1 <0>         0.0553
     52 H19        -3.5649   -9.8694  -10.0144 H         1 <0>         0.0710
     53 H20        -4.2772   -9.8722  -12.3896 H         1 <0>         0.0572
     54 H21        -5.5265  -10.5939  -11.3471 H         1 <0>         0.0624
     55 H22        -5.4958   -7.7129  -12.3552 H         1 <0>         0.0590
     56 H23        -6.5298   -9.0202  -12.9798 H         1 <0>         0.0564
     57 H24        -7.7595   -7.6154  -11.3480 H         1 <0>         0.0595
     58 H25        -7.5601   -9.2759  -10.7388 H         1 <0>         0.0632
     59 H26        -7.0473   -7.6126   -8.9728 H         1 <0>         0.0650
     60 H27        -5.7980   -6.8909  -10.0153 H         1 <0>         0.0622
@<TRIPOS>BOND
     1    1    2 1
     2    1   34 1
     3    1   35 1
     4    1   36 1
     5    2    3 1
     6    3    8 ar
     7    3    4 ar
     8    4    5 ar
     9    4   37 1
    10    5    6 ar
    11    5   38 1
    12    6    7 ar
    13    6   33 1
    14    7    8 ar
    15    7   39 1
    16    8    9 1
    17    9   10 2
    18    9   11 am
    19   11   12 1
    20   11   40 1
    21   12   13 1
    22   12   41 1
    23   12   42 1
    24   13   14 1
    25   13   43 1
    26   13   44 1
    27   14   19 ar
    28   14   15 ar
    29   15   16 ar
    30   15   45 1
    31   16   17 ar
    32   16   46 1
    33   17   18 ar
    34   17   20 1
    35   18   19 ar
    36   18   47 1
    37   19   48 1
    38   20   21 2
    39   20   22 2
    40   20   23 1
    41   23   24 2
    42   24   25 1
    43   24   26 1
    44   26   27 1
    45   26   49 1
    46   27   32 1
    47   27   28 1
    48   27   50 1
    49   28   29 1
    50   28   51 1
    51   28   52 1
    52   29   30 1
    53   29   53 1
    54   29   54 1
    55   30   31 1
    56   30   55 1
    57   30   56 1
    58   31   32 1
    59   31   57 1
    60   31   58 1
    61   32   59 1
    62   32   60 1
