@<TRIPOS>MOLECULE
ZINC13524661
   29    30     0     0     0
SMALL
USER_CHARGES

@<TRIPOS>ATOM
      1 C1         -0.0187    1.5258    0.0104 C.3       1 <0>        -0.1666
      2 C2          0.0021   -0.0041    0.0020 C.3       1 <0>         0.1498
      3 C3          0.7421   -0.5109    1.2415 C.3       1 <0>        -0.1651
      4 N1         -1.3723   -0.5112    0.0124 N.pl3     1 <0>        -0.6911
      5 C4         -2.0646   -0.6454   -1.1681 C.2       1 <0>         0.7251
      6 N2         -1.4489   -0.3131   -2.2560 N.2       1 <0>        -0.9804
      7 S1         -2.2008   -0.4283   -3.7294 S.o2      1 <0>         2.6497
      8 O1         -1.7609   -1.6433   -4.3206 O.2       1 <0>        -0.9541
      9 O2         -2.0483    0.8322   -4.3675 O.2       1 <0>        -0.9426
     10 C5         -3.9189   -0.6241   -3.3813 C.ar      1 <0>        -0.7042
     11 C6         -4.8627   -0.4614   -4.3708 C.ar      1 <0>         0.0235
     12 C7         -6.2064   -0.6181   -4.0727 C.ar      1 <0>        -0.0715
     13 C8         -6.5964   -0.9368   -2.7835 C.ar      1 <0>        -0.0289
     14 C9         -5.6515   -1.1012   -1.7903 C.ar      1 <0>        -0.1490
     15 C10        -4.3021   -0.9466   -2.0843 C.ar      1 <0>         0.2461
     16 N3         -3.3373   -1.1217   -1.0927 N.pl3     1 <0>        -0.6893
     17 Cl1        -7.4009   -0.4142   -5.3157 Cl        1 <0>        -0.0487
     18 H1          1.0039    1.9031    0.0027 H         1 <0>         0.0723
     19 H2         -0.5459    1.8868   -0.8726 H         1 <0>         0.0684
     20 H3         -0.5289    1.8773    0.9072 H         1 <0>         0.0552
     21 H4          0.5123   -0.3556   -0.8948 H         1 <0>         0.1071
     22 H5          0.2319   -0.1594    2.1383 H         1 <0>         0.0618
     23 H6          0.7568   -1.6008    1.2356 H         1 <0>         0.0640
     24 H7          1.7647   -0.1336    1.2338 H         1 <0>         0.0811
     25 H8         -1.7940   -0.7522    0.8520 H         1 <0>         0.4082
     26 H9         -4.5563   -0.2120   -5.3759 H         1 <0>         0.1514
     27 H10        -7.6447   -1.0571   -2.5534 H         1 <0>         0.1516
     28 H11        -5.9608   -1.3495   -0.7858 H         1 <0>         0.1501
     29 H12        -3.5902   -1.6116   -0.2947 H         1 <0>         0.4259
@<TRIPOS>BOND
     1    1    2 1
     2    1   18 1
     3    1   19 1
     4    1   20 1
     5    2    3 1
     6    2    4 1
     7    2   21 1
     8    3   22 1
     9    3   23 1
    10    3   24 1
    11    4    5 1
    12    4   25 1
    13    5   16 1
    14    5    6 2
    15    6    7 1
    16    7    8 2
    17    7    9 2
    18    7   10 1
    19   10   15 ar
    20   10   11 ar
    21   11   12 ar
    22   11   26 1
    23   12   13 ar
    24   12   17 1
    25   13   14 ar
    26   13   27 1
    27   14   15 ar
    28   14   28 1
    29   15   16 1
    30   16   29 1
@<TRIPOS>MOLECULE
ZINC00014006
   39    41     0     0     0
SMALL
USER_CHARGES

@<TRIPOS>ATOM
      1 C1         -0.0259    1.5233    0.0027 C.3       1 <0>        -0.1915
      2 C2         -0.0037   -0.0065   -0.0063 C.3       1 <0>         0.0849
      3 C3          0.6310   -0.5063   -1.3103 C.3       1 <0>         0.0686
      4 H1          0.0054   -0.2215   -2.1562 H         1 <0>         0.0801
      5 C4          2.0123    0.1382   -1.4500 C.3       1 <0>         0.2115
      6 H2          2.5632   -0.3545   -2.2512 H         1 <0>         0.1033
      7 C5          2.7729   -0.0057   -0.1558 C.ar      1 <0>        -0.1494
      8 C6          4.1438    0.1612   -0.1717 C.ar      1 <0>         0.0071
      9 C7          4.8798    0.0387    1.0080 C.ar      1 <0>        -0.0639
     10 C8          4.2222   -0.2529    2.2065 C.ar      1 <0>        -0.0269
     11 C9          2.8569   -0.4189    2.2142 C.ar      1 <0>        -0.1521
     12 C10         2.1244   -0.2987    1.0341 C.ar      1 <0>         0.1885
     13 O1          0.7804   -0.4825    1.0882 O.3       1 <0>        -0.2951
     14 C11         6.3013    0.2104    0.9905 C.1       1 <0>         0.2605
     15 N1          7.4290    0.3466    0.9765 N.1       1 <0>        -0.4255
     16 N2          1.8571    1.5599   -1.7678 N.am      1 <0>        -0.6201
     17 C12         1.1602    2.0720   -2.9535 C.3       1 <0>         0.0971
     18 C13         0.8699    3.5588   -2.6509 C.3       1 <0>        -0.1329
     19 C14         1.9835    3.8965   -1.6327 C.3       1 <0>        -0.1580
     20 C15         2.3296    2.5629   -1.0079 C.2       1 <0>         0.5201
     21 O2          2.9460    2.4196    0.0267 O.2       1 <0>        -0.5047
     22 O3          0.7643   -1.9284   -1.2671 O.3       1 <0>        -0.5446
     23 C16        -1.4317   -0.5431    0.1113 C.3       1 <0>        -0.1444
     24 H3          0.9577    1.8992    0.2843 H         1 <0>         0.0845
     25 H4         -0.2837    1.8888   -0.9913 H         1 <0>         0.0744
     26 H5         -0.7675    1.8717    0.7216 H         1 <0>         0.0654
     27 H6          4.6479    0.3868   -1.0998 H         1 <0>         0.1253
     28 H7          4.7845   -0.3478    3.1236 H         1 <0>         0.1383
     29 H8          2.3491   -0.6443    3.1403 H         1 <0>         0.1398
     30 H9          1.7976    1.9836   -3.8333 H         1 <0>         0.0787
     31 H10         0.2274    1.5292   -3.1067 H         1 <0>         0.0795
     32 H11         0.9669    4.1662   -3.5508 H         1 <0>         0.0948
     33 H12        -0.1169    3.6806   -2.2043 H         1 <0>         0.0840
     34 H13         2.8496    4.3202   -2.1411 H         1 <0>         0.1070
     35 H14         1.6109    4.5848   -0.8740 H         1 <0>         0.1038
     36 H15        -0.0739   -2.3990   -1.1616 H         1 <0>         0.3854
     37 H16        -2.0247   -0.1852   -0.7304 H         1 <0>         0.0809
     38 H17        -1.4120   -1.6329    0.1045 H         1 <0>         0.0690
     39 H18        -1.8757   -0.1935    1.0433 H         1 <0>         0.0766
@<TRIPOS>BOND
     1    1    2 1
     2    1   24 1
     3    1   25 1
     4    1   26 1
     5    2   13 1
     6    2    3 1
     7    2   23 1
     8    3    4 1
     9    3    5 1
    10    3   22 1
    11    5    6 1
    12    5    7 1
    13    5   16 1
    14    7   12 ar
    15    7    8 ar
    16    8    9 ar
    17    8   27 1
    18    9   10 ar
    19    9   14 1
    20   10   11 ar
    21   10   28 1
    22   11   12 ar
    23   11   29 1
    24   12   13 1
    25   14   15 3
    26   16   20 am
    27   16   17 1
    28   17   18 1
    29   17   30 1
    30   17   31 1
    31   18   19 1
    32   18   32 1
    33   18   33 1
    34   19   20 1
    35   19   34 1
    36   19   35 1
    37   20   21 2
    38   22   36 1
    39   23   37 1
    40   23   38 1
    41   23   39 1
@<TRIPOS>MOLECULE
ZINC03798537
   68    70     0     0     0
SMALL
USER_CHARGES

@<TRIPOS>ATOM
      1 C1         -6.5886   -3.5092   -5.6025 C.3       1 <0>        -0.1463
      2 C2         -5.4280   -3.8335   -4.6598 C.3       1 <0>         0.0479
      3 O1         -5.0346   -2.6492   -3.9636 O.3       1 <0>        -0.2654
      4 C3         -4.0106   -2.7646   -3.0822 C.ar      1 <0>         0.1595
      5 C4         -3.3896   -3.9904   -2.8919 C.ar      1 <0>        -0.2140
      6 C5         -2.3470   -4.1062   -1.9947 C.ar      1 <0>        -0.0432
      7 C6         -1.9124   -3.0029   -1.2773 C.ar      1 <0>        -0.1619
      8 C7         -2.5163   -1.7777   -1.4524 C.ar      1 <0>        -0.0488
      9 C8         -3.5702   -1.6436   -2.3624 C.ar      1 <0>        -0.1640
     10 C9         -4.2169   -0.3364   -2.5592 C.2       1 <0>         0.5220
     11 O2         -3.8298    0.6385   -1.9296 O.co2     1 <0>        -0.6975
     12 O3         -5.1415   -0.2246   -3.3524 O.co2     1 <0>        -0.6694
     13 C10        -1.6774   -5.4412   -1.7935 C.3       1 <0>        -0.0955
     14 C11        -0.5298   -5.5784   -2.7607 C.2       1 <0>         0.5124
     15 O4         -0.2804   -4.6806   -3.5369 O.2       1 <0>        -0.5103
     16 N1          0.2192   -6.6989   -2.7631 N.am      1 <0>        -0.7319
     17 C12         1.2625   -6.8804   -3.7754 C.3       1 <0>         0.1944
     18 H1          1.7360   -5.9213   -3.9852 H         1 <0>         0.1018
     19 C13         2.3121   -7.8645   -3.2552 C.3       1 <0>        -0.1143
     20 C14         3.0230   -7.2586   -2.0434 C.3       1 <0>        -0.0935
     21 C15         2.0338   -7.1304   -0.8833 C.3       1 <0>        -0.1652
     22 C16         4.1830   -8.1651   -1.6267 C.3       1 <0>        -0.1460
     23 C17         0.6470   -7.4239   -5.0391 C.ar      1 <0>        -0.0983
     24 C18        -0.5117   -8.1731   -4.9772 C.ar      1 <0>        -0.1027
     25 C19        -1.0767   -8.6725   -6.1361 C.ar      1 <0>        -0.1251
     26 C20        -0.4845   -8.4235   -7.3609 C.ar      1 <0>        -0.1169
     27 C21         0.6738   -7.6750   -7.4300 C.ar      1 <0>        -0.1261
     28 C22         1.2413   -7.1672   -6.2680 C.ar      1 <0>         0.1845
     29 N2          2.4099   -6.4052   -6.3348 N.pl3     1 <0>        -0.6747
     30 C23         3.7286   -7.0490   -6.2616 C.3       1 <0>         0.1464
     31 C24         4.5590   -6.6109   -7.4721 C.3       1 <0>        -0.1358
     32 C25         4.6080   -5.0823   -7.5259 C.3       1 <0>        -0.1145
     33 C26         3.1899   -4.5301   -7.6876 C.3       1 <0>        -0.1363
     34 C27         2.3440   -4.9452   -6.4857 C.3       1 <0>         0.1471
     35 H2         -6.2724   -2.7532   -6.3213 H         1 <0>         0.0660
     36 H3         -6.8886   -4.4126   -6.1336 H         1 <0>         0.0670
     37 H4         -7.4315   -3.1307   -5.0243 H         1 <0>         0.0661
     38 H5         -5.7441   -4.5894   -3.9410 H         1 <0>         0.0500
     39 H6         -4.5850   -4.2119   -5.2380 H         1 <0>         0.0506
     40 H7         -3.7225   -4.8553   -3.4464 H         1 <0>         0.1144
     41 H8         -1.0963   -3.1045   -0.5772 H         1 <0>         0.1107
     42 H9         -2.1743   -0.9209   -0.8909 H         1 <0>         0.1308
     43 H10        -1.3020   -5.5092   -0.7724 H         1 <0>         0.0983
     44 H11        -2.3983   -6.2395   -1.9695 H         1 <0>         0.0957
     45 H12         0.0675   -7.3851   -2.0945 H         1 <0>         0.3988
     46 H13         1.8248   -8.7947   -2.9630 H         1 <0>         0.0659
     47 H14         3.0408   -8.0671   -4.0401 H         1 <0>         0.0785
     48 H15         3.4079   -6.2725   -2.3035 H         1 <0>         0.0702
     49 H16         1.5511   -8.0920   -0.7094 H         1 <0>         0.0518
     50 H17         2.5669   -6.8234    0.0165 H         1 <0>         0.0519
     51 H18         1.2786   -6.3842   -1.1306 H         1 <0>         0.0739
     52 H19         4.8877   -8.2565   -2.4532 H         1 <0>         0.0525
     53 H20         4.6894   -7.7335   -0.7634 H         1 <0>         0.0540
     54 H21         3.7981   -9.1512   -1.3666 H         1 <0>         0.0529
     55 H22        -0.9767   -8.3693   -4.0223 H         1 <0>         0.1177
     56 H23        -1.9824   -9.2586   -6.0847 H         1 <0>         0.1188
     57 H24        -0.9282   -8.8154   -8.2642 H         1 <0>         0.1187
     58 H25         1.1359   -7.4812   -8.3867 H         1 <0>         0.1185
     59 H26         4.2326   -6.7461   -5.3438 H         1 <0>         0.0492
     60 H27         3.6076   -8.1322   -6.2742 H         1 <0>         0.0648
     61 H28         5.5714   -7.0044   -7.3804 H         1 <0>         0.0641
     62 H29         4.1011   -6.9926   -8.3847 H         1 <0>         0.0617
     63 H30         5.0433   -4.7002   -6.6025 H         1 <0>         0.0606
     64 H31         5.2188   -4.7681   -8.3722 H         1 <0>         0.0574
     65 H32         3.2277   -3.4425   -7.7493 H         1 <0>         0.0677
     66 H33         2.7449   -4.9313   -8.5982 H         1 <0>         0.0610
     67 H34         1.3097   -4.6407   -6.6461 H         1 <0>         0.0709
     68 H35         2.7326   -4.4670   -5.5866 H         1 <0>         0.0504
@<TRIPOS>BOND
     1    1    2 1
     2    1   35 1
     3    1   36 1
     4    1   37 1
     5    2    3 1
     6    2   38 1
     7    2   39 1
     8    3    4 1
     9    4    9 ar
    10    4    5 ar
    11    5    6 ar
    12    5   40 1
    13    6    7 ar
    14    6   13 1
    15    7    8 ar
    16    7   41 1
    17    8    9 ar
    18    8   42 1
    19    9   10 1
    20   10   11 2
    21   10   12 1
    22   13   14 1
    23   13   43 1
    24   13   44 1
    25   14   15 2
    26   14   16 am
    27   16   17 1
    28   16   45 1
    29   17   18 1
    30   17   19 1
    31   17   23 1
    32   19   20 1
    33   19   46 1
    34   19   47 1
    35   20   21 1
    36   20   22 1
    37   20   48 1
    38   21   49 1
    39   21   50 1
    40   21   51 1
    41   22   52 1
    42   22   53 1
    43   22   54 1
    44   23   28 ar
    45   23   24 ar
    46   24   25 ar
    47   24   55 1
    48   25   26 ar
    49   25   56 1
    50   26   27 ar
    51   26   57 1
    52   27   28 ar
    53   27   58 1
    54   28   29 1
    55   29   34 1
    56   29   30 1
    57   30   31 1
    58   30   59 1
    59   30   60 1
    60   31   32 1
    61   31   61 1
    62   31   62 1
    63   32   33 1
    64   32   63 1
    65   32   64 1
    66   33   34 1
    67   33   65 1
    68   33   66 1
    69   34   67 1
    70   34   68 1
@<TRIPOS>MOLECULE
ZINC00008767
   27    29     0     0     0
SMALL
USER_CHARGES

@<TRIPOS>ATOM
      1 C1         -1.4147    0.1559    0.5561 C.3       1 <0>        -0.1198
      2 C2          0.0024   -0.0039    0.0019 C.3       1 <0>         0.1187
      3 C3          1.1401   -0.1763    1.0104 C.3       1 <0>        -0.1724
      4 C4          0.9892    1.1398    0.2450 C.3       1 <0>        -0.1612
      5 N1          0.1067   -0.7291   -1.2667 N.pl3     1 <0>        -0.6735
      6 C5         -0.4442   -0.1982   -2.4096 C.2       1 <0>         0.7261
      7 N2         -0.9399    0.9903   -2.2880 N.2       1 <0>        -0.9506
      8 S1         -1.6446    1.7454   -3.5978 S.o2      1 <0>         2.6727
      9 O1         -0.7065    2.6927   -4.0895 O.2       1 <0>        -0.9494
     10 O2         -2.9678    2.0964   -3.2165 O.2       1 <0>        -0.9421
     11 C6         -1.7705    0.4755   -4.7951 C.2       1 <0>        -0.8384
     12 C7         -1.1673   -0.7490   -4.6757 C.2       1 <0>         0.2542
     13 C8         -1.3792   -1.6373   -5.7271 C.2       1 <0>        -0.1779
     14 C9         -2.1444   -1.2640   -6.7848 C.2       1 <0>        -0.0773
     15 S2         -2.6160    0.4030   -6.3370 S.3       1 <0>         0.2971
     16 Cl1        -2.5579   -2.1704   -8.2065 Cl        1 <0>         0.0497
     17 N3         -0.3870   -0.9939   -3.5104 N.pl3     1 <0>        -0.6721
     18 H1         -1.8480    1.0841    0.1836 H         1 <0>         0.0797
     19 H2         -2.0277   -0.6860    0.2345 H         1 <0>         0.0600
     20 H3         -1.3780    0.1835    1.6452 H         1 <0>         0.0692
     21 H4          0.8789   -0.1759    2.0686 H         1 <0>         0.1098
     22 H5          1.9663   -0.8297    0.7301 H         1 <0>         0.0979
     23 H6          1.7162    1.3524   -0.5388 H         1 <0>         0.0989
     24 H7          0.6288    2.0062    0.7997 H         1 <0>         0.1068
     25 H8          0.5643   -1.5837   -1.3006 H         1 <0>         0.4085
     26 H9         -0.9353   -2.6215   -5.7014 H         1 <0>         0.1589
     27 H10         0.2067   -1.7609   -3.4995 H         1 <0>         0.4266
@<TRIPOS>BOND
     1    1    2 1
     2    1   18 1
     3    1   19 1
     4    1   20 1
     5    2    4 1
     6    2    3 1
     7    2    5 1
     8    3    4 1
     9    3   21 1
    10    3   22 1
    11    4   23 1
    12    4   24 1
    13    5    6 1
    14    5   25 1
    15    6   17 1
    16    6    7 2
    17    7    8 1
    18    8    9 2
    19    8   10 2
    20    8   11 1
    21   11   15 1
    22   11   12 2
    23   12   13 1
    24   12   17 1
    25   13   14 2
    26   13   26 1
    27   14   15 1
    28   14   16 1
    29   17   27 1
@<TRIPOS>MOLECULE
ZINC03995738
   39    40     0     0     0
SMALL
USER_CHARGES

@<TRIPOS>ATOM
      1 C1          0.7857   -1.3467   -1.6547 C.3       1 <0>        -0.1492
      2 C2          1.8563   -0.3352   -1.2405 C.3       1 <0>         0.0846
      3 C3          2.5808   -0.8420   -0.0201 C.2       1 <0>         0.4937
      4 O1          3.6200   -1.4553   -0.1429 O.2       1 <0>        -0.4805
      5 N1          2.0741   -0.6137    1.2077 N.am      1 <0>        -0.6588
      6 C4          2.6938   -1.1660    2.3341 C.ar      1 <0>         0.1956
      7 C5          1.9276   -1.5927    3.4108 C.ar      1 <0>        -0.1585
      8 C6          2.5424   -2.1374    4.5212 C.ar      1 <0>        -0.0004
      9 C7          3.9193   -2.2579    4.5616 C.ar      1 <0>        -0.6706
     10 C8          4.6852   -1.8335    3.4912 C.ar      1 <0>         0.0001
     11 C9          4.0761   -1.2937    2.3754 C.ar      1 <0>        -0.1402
     12 S1          4.6997   -2.9533    5.9800 S.o2      1 <0>         2.5832
     13 O2          6.0303   -2.4547    5.9969 O.2       1 <0>        -0.9342
     14 O3          3.8036   -2.7700    7.0675 O.2       1 <0>        -0.9348
     15 C10         4.8165   -4.6908    5.7112 C.ar      1 <0>        -0.6588
     16 C11         3.7895   -5.5232    6.1152 C.ar      1 <0>        -0.0227
     17 C12         3.8811   -6.8863    5.9042 C.ar      1 <0>        -0.1393
     18 C13         4.9995   -7.4169    5.2889 C.ar      1 <0>        -0.0622
     19 C14         6.0261   -6.5843    4.8841 C.ar      1 <0>        -0.1385
     20 C15         5.9326   -5.2208    5.0912 C.ar      1 <0>        -0.0219
     21 C16         2.8538   -0.1505   -2.3858 C.3       1 <0>         0.4425
     22 F1          2.1812    0.3200   -3.5187 F         1 <0>        -0.1654
     23 F2          3.8328    0.7744   -2.0071 F         1 <0>        -0.1764
     24 F3          3.4596   -1.3770   -2.6789 F         1 <0>        -0.1588
     25 O4          1.2376    0.9176   -0.9411 O.3       1 <0>        -0.5164
     26 H1          0.0751   -1.4782   -0.8387 H         1 <0>         0.0945
     27 H2          0.2616   -0.9801   -2.5374 H         1 <0>         0.0984
     28 H3          1.2577   -2.3023   -1.8831 H         1 <0>         0.0962
     29 H4          1.2797   -0.0666    1.3105 H         1 <0>         0.4241
     30 H5          0.8522   -1.4985    3.3801 H         1 <0>         0.1410
     31 H6          1.9471   -2.4691    5.3591 H         1 <0>         0.1497
     32 H7          5.7604   -1.9287    3.5259 H         1 <0>         0.1485
     33 H8          4.6744   -0.9672    1.5377 H         1 <0>         0.1504
     34 H9          2.9158   -5.1087    6.5959 H         1 <0>         0.1425
     35 H10         3.0791   -7.5368    6.2205 H         1 <0>         0.1351
     36 H11         5.0714   -8.4819    5.1248 H         1 <0>         0.1328
     37 H12         6.9000   -6.9989    4.4037 H         1 <0>         0.1353
     38 H13         6.7329   -4.5699    4.7715 H         1 <0>         0.1428
     39 H14         1.8581    1.6081   -0.6704 H         1 <0>         0.3963
@<TRIPOS>BOND
     1    1    2 1
     2    1   26 1
     3    1   27 1
     4    1   28 1
     5    2    3 1
     6    2   21 1
     7    2   25 1
     8    3    4 2
     9    3    5 am
    10    5    6 1
    11    5   29 1
    12    6   11 ar
    13    6    7 ar
    14    7    8 ar
    15    7   30 1
    16    8    9 ar
    17    8   31 1
    18    9   10 ar
    19    9   12 1
    20   10   11 ar
    21   10   32 1
    22   11   33 1
    23   12   13 2
    24   12   14 2
    25   12   15 1
    26   15   20 ar
    27   15   16 ar
    28   16   17 ar
    29   16   34 1
    30   17   18 ar
    31   17   35 1
    32   18   19 ar
    33   18   36 1
    34   19   20 ar
    35   19   37 1
    36   20   38 1
    37   21   22 1
    38   21   23 1
    39   21   24 1
    40   25   39 1
@<TRIPOS>MOLECULE
ZINC03995739
   39    40     0     0     0
SMALL
USER_CHARGES

@<TRIPOS>ATOM
      1 C1         -2.7716   -0.3342    0.9031 C.3       1 <0>        -0.1501
      2 C2         -1.7058    0.6876    1.3043 C.3       1 <0>         0.0840
      3 C3         -0.9718    0.1950    2.5248 C.2       1 <0>         0.4938
      4 O1         -1.3200    0.5566    3.6289 O.2       1 <0>        -0.4806
      5 N1          0.0715   -0.6474    2.3895 N.am      1 <0>        -0.6585
      6 C4          0.8135   -1.0283    3.5130 C.ar      1 <0>         0.1951
      7 C5          2.1835   -1.2291    3.4068 C.ar      1 <0>        -0.1587
      8 C6          2.9130   -1.6051    4.5176 C.ar      1 <0>        -0.0005
      9 C7          2.2806   -1.7816    5.7346 C.ar      1 <0>        -0.6707
     10 C8          0.9165   -1.5829    5.8436 C.ar      1 <0>         0.0000
     11 C9          0.1823   -1.2009    4.7379 C.ar      1 <0>        -0.1402
     12 S1          3.2149   -2.2614    7.1494 S.o2      1 <0>         2.5834
     13 O2          2.3058   -2.8902    8.0423 O.2       1 <0>        -0.9342
     14 O3          4.3804   -2.9137    6.6643 O.2       1 <0>        -0.9349
     15 C10         3.7575   -0.7837    7.9410 C.ar      1 <0>        -0.6589
     16 C11         4.9648   -0.2122    7.5852 C.ar      1 <0>        -0.0228
     17 C12         5.3905    0.9471    8.2062 C.ar      1 <0>        -0.1392
     18 C13         4.6085    1.5352    9.1828 C.ar      1 <0>        -0.0621
     19 C14         3.4008    0.9642    9.5380 C.ar      1 <0>        -0.1385
     20 C15         2.9731   -0.1927    8.9139 C.ar      1 <0>        -0.0219
     21 C16        -2.3757    2.0269    1.6180 C.3       1 <0>         0.4429
     22 F1         -3.2815    1.8599    2.6711 F         1 <0>        -0.1588
     23 F2         -1.4012    2.9612    1.9848 F         1 <0>        -0.1767
     24 F3         -3.0571    2.4842    0.4849 F         1 <0>        -0.1654
     25 O4         -0.7806    0.8582    0.2286 O.3       1 <0>        -0.5158
     26 H1         -3.4773   -0.4643    1.7236 H         1 <0>         0.0969
     27 H2         -3.3024    0.0221    0.0203 H         1 <0>         0.0985
     28 H3         -2.2943   -1.2883    0.6796 H         1 <0>         0.0948
     29 H4          0.3081   -0.9896    1.5132 H         1 <0>         0.4242
     30 H5          2.6779   -1.0917    2.4565 H         1 <0>         0.1411
     31 H6          3.9784   -1.7617    4.4356 H         1 <0>         0.1496
     32 H7          0.4255   -1.7220    6.7954 H         1 <0>         0.1486
     33 H8         -0.8822   -1.0408    4.8248 H         1 <0>         0.1511
     34 H9          5.5757   -0.6716    6.8222 H         1 <0>         0.1425
     35 H10         6.3341    1.3932    7.9287 H         1 <0>         0.1351
     36 H11         4.9414    2.4406    9.6685 H         1 <0>         0.1328
     37 H12         2.7900    1.4235   10.3012 H         1 <0>         0.1354
     38 H13         2.0278   -0.6368    9.1887 H         1 <0>         0.1429
     39 H14        -0.0755    1.4936    0.4134 H         1 <0>         0.3959
@<TRIPOS>BOND
     1    1    2 1
     2    1   26 1
     3    1   27 1
     4    1   28 1
     5    2    3 1
     6    2   21 1
     7    2   25 1
     8    3    4 2
     9    3    5 am
    10    5    6 1
    11    5   29 1
    12    6   11 ar
    13    6    7 ar
    14    7    8 ar
    15    7   30 1
    16    8    9 ar
    17    8   31 1
    18    9   10 ar
    19    9   12 1
    20   10   11 ar
    21   10   32 1
    22   11   33 1
    23   12   13 2
    24   12   14 2
    25   12   15 1
    26   15   20 ar
    27   15   16 ar
    28   16   17 ar
    29   16   34 1
    30   17   18 ar
    31   17   35 1
    32   18   19 ar
    33   18   36 1
    34   19   20 ar
    35   19   37 1
    36   20   38 1
    37   21   22 1
    38   21   23 1
    39   21   24 1
    40   25   39 1
@<TRIPOS>MOLECULE
ZINC03946466
   39    41     0     0     0
SMALL
USER_CHARGES

@<TRIPOS>ATOM
      1 C1          1.5635    1.1323   -0.7789 C.ar      1 <0>        -0.1038
      2 C2          2.4995    1.9690   -0.1997 C.ar      1 <0>        -0.0897
      3 C3          3.8357    1.6153   -0.1968 C.ar      1 <0>        -0.0622
      4 C4          4.2370    0.4247   -0.7735 C.ar      1 <0>        -0.1014
      5 C5          3.3010   -0.4128   -1.3532 C.ar      1 <0>        -0.0315
      6 C6          1.9634   -0.0582   -1.3554 C.ar      1 <0>        -0.1082
      7 Cl1         3.8042   -1.9077   -2.0781 Cl        1 <0>        -0.0677
      8 C7          4.8552    2.5278    0.4347 C.3       1 <0>         0.1997
      9 C8          6.2111    2.5324   -0.2909 C.3       1 <0>        -0.1333
     10 C9          6.8665    2.5656    1.0998 C.3       1 <0>        -0.1445
     11 C10         5.5870    1.8988    1.6321 C.3       1 <0>        -0.1248
     12 N1          4.3286    3.8675    0.7066 N.pl3     1 <0>        -0.6778
     13 C11         3.3574    4.0409    1.6521 C.2       1 <0>         0.6816
     14 N2          2.9666    3.0189    2.3930 N.2       1 <0>        -0.5358
     15 C12         2.0788    3.2113    3.3984 C.1       1 <0>         0.3729
     16 N3          1.3344    3.3726    4.2412 N.1       1 <0>        -0.4551
     17 N4          2.7899    5.2722    1.8316 N.pl3     1 <0>        -0.6819
     18 C13         2.8620    6.2306    0.8149 C.ar      1 <0>         0.1006
     19 C14         2.7001    7.5831    1.1059 C.ar      1 <0>        -0.1061
     20 C15         2.7799    8.4940    0.0656 C.ar      1 <0>        -0.1292
     21 C16         3.0156    8.0351   -1.2173 C.ar      1 <0>         0.0778
     22 N5          3.1643    6.7476   -1.4597 N.ar      1 <0>        -0.4437
     23 C17         3.1015    5.8480   -0.4983 C.ar      1 <0>         0.0406
     24 H1          0.5191    1.4072   -0.7769 H         1 <0>         0.1297
     25 H2          2.1866    2.8996    0.2504 H         1 <0>         0.1176
     26 H3          5.2811    0.1487   -0.7719 H         1 <0>         0.1363
     27 H4          1.2322   -0.7117   -1.8078 H         1 <0>         0.1331
     28 H5          6.4120    1.6164   -0.8466 H         1 <0>         0.1078
     29 H6          6.3886    3.4329   -0.8789 H         1 <0>         0.0795
     30 H7          7.7527    1.9360    1.1800 H         1 <0>         0.0786
     31 H8          7.0257    3.5733    1.4835 H         1 <0>         0.0815
     32 H9          5.2607    2.2878    2.5966 H         1 <0>         0.0889
     33 H10         5.6174    0.8096    1.6022 H         1 <0>         0.0976
     34 H11         4.6693    4.6315    0.2155 H         1 <0>         0.4234
     35 H12         2.3374    5.4811    2.6638 H         1 <0>         0.4279
     36 H13         2.5167    7.9134    2.1177 H         1 <0>         0.1428
     37 H14         2.6590    9.5505    0.2542 H         1 <0>         0.1461
     38 H15         3.0783    8.7411   -2.0322 H         1 <0>         0.1645
     39 H16         3.2330    4.8025   -0.7350 H         1 <0>         0.1679
@<TRIPOS>BOND
     1    1    6 ar
     2    1    2 ar
     3    1   24 1
     4    2    3 ar
     5    2   25 1
     6    3    4 ar
     7    3    8 1
     8    4    5 ar
     9    4   26 1
    10    5    6 ar
    11    5    7 1
    12    6   27 1
    13    8   11 1
    14    8    9 1
    15    8   12 1
    16    9   10 1
    17    9   28 1
    18    9   29 1
    19   10   11 1
    20   10   30 1
    21   10   31 1
    22   11   32 1
    23   11   33 1
    24   12   13 1
    25   12   34 1
    26   13   14 2
    27   13   17 1
    28   14   15 1
    29   15   16 3
    30   17   18 1
    31   17   35 1
    32   18   23 ar
    33   18   19 ar
    34   19   20 ar
    35   19   36 1
    36   20   21 ar
    37   20   37 1
    38   21   22 ar
    39   21   38 1
    40   22   23 ar
    41   23   39 1
@<TRIPOS>MOLECULE
ZINC03946466
   38    40     0     0     0
SMALL
USER_CHARGES

@<TRIPOS>ATOM
      1 C1         -0.5995    3.1646   -1.4887 C.ar      1 <0>        -0.1096
      2 C2          0.6946    3.5408   -1.1799 C.ar      1 <0>        -0.0753
      3 C3          1.7479    2.6916   -1.4627 C.ar      1 <0>        -0.0350
      4 C4          1.5079    1.4657   -2.0549 C.ar      1 <0>        -0.1055
      5 C5          0.2134    1.0888   -2.3641 C.ar      1 <0>        -0.0359
      6 C6         -0.8407    1.9392   -2.0803 C.ar      1 <0>        -0.1200
      7 Cl1        -0.0887   -0.4502   -3.1083 Cl        1 <0>        -0.0868
      8 C7          3.1581    3.1023   -1.1258 C.3       1 <0>         0.2077
      9 C8          4.0775    3.2129   -2.3536 C.3       1 <0>        -0.1352
     10 C9          5.1764    2.5708   -1.4905 C.3       1 <0>        -0.1409
     11 C10         4.0462    1.9348   -0.6641 C.3       1 <0>        -0.1297
     12 N1          3.2150    4.2685   -0.2410 N.pl3     1 <0>        -0.7176
     13 C11         2.7105    4.1897    1.0265 C.2       1 <0>         0.6391
     14 N2          2.1345    3.0747    1.4402 N.2       1 <0>        -0.6063
     15 C12         1.7087    2.9673    2.7221 C.1       1 <0>         0.4269
     16 N3          1.3517    2.8773    3.7967 N.1       1 <0>        -0.5565
     17 N4          2.8016    5.2649    1.8668 N.2       1 <0>        -0.7104
     18 C13         3.7856    6.2365    1.6554 C.ar      1 <0>         0.1642
     19 C14         3.5772    7.5531    2.0597 C.ar      1 <0>        -0.1450
     20 C15         4.5810    8.4790    1.8285 C.ar      1 <0>        -0.1343
     21 C16         5.7476    8.0699    1.2092 C.ar      1 <0>        -0.0047
     22 N5          5.9140    6.8155    0.8384 N.ar      1 <0>        -0.4581
     23 C17         4.9868    5.9015    1.0445 C.ar      1 <0>        -0.0263
     24 H1         -1.4225    3.8266   -1.2633 H         1 <0>         0.1241
     25 H2          0.8827    4.4986   -0.7178 H         1 <0>         0.1235
     26 H3          2.3311    0.8026   -2.2765 H         1 <0>         0.1293
     27 H4         -1.8516    1.6455   -2.3215 H         1 <0>         0.1246
     28 H5          3.7625    2.5920   -3.1923 H         1 <0>         0.0922
     29 H6          4.2955    4.2404   -2.6447 H         1 <0>         0.0712
     30 H7          5.7857    1.8446   -2.0285 H         1 <0>         0.0670
     31 H8          5.7716    3.2937   -0.9326 H         1 <0>         0.0821
     32 H9          4.2389    1.9306    0.4087 H         1 <0>         0.0822
     33 H10         3.7226    0.9646   -1.0409 H         1 <0>         0.0853
     34 H11         3.6108    5.0966   -0.5548 H         1 <0>         0.4055
     35 H12         2.6556    7.8448    2.5411 H         1 <0>         0.1181
     36 H13         4.4538    9.5087    2.1283 H         1 <0>         0.1153
     37 H14         6.5334    8.7879    1.0263 H         1 <0>         0.1339
     38 H15         5.1612    4.8828    0.7310 H         1 <0>         0.1409
@<TRIPOS>BOND
     1    1    6 ar
     2    1    2 ar
     3    1   24 1
     4    2    3 ar
     5    2   25 1
     6    3    4 ar
     7    3    8 1
     8    4    5 ar
     9    4   26 1
    10    5    6 ar
    11    5    7 1
    12    6   27 1
    13    8   11 1
    14    8    9 1
    15    8   12 1
    16    9   10 1
    17    9   28 1
    18    9   29 1
    19   10   11 1
    20   10   30 1
    21   10   31 1
    22   11   32 1
    23   11   33 1
    24   12   13 1
    25   12   34 1
    26   13   14 2
    27   13   17 1
    28   14   15 1
    29   15   16 3
    30   17   18 1
    31   18   23 ar
    32   18   19 ar
    33   19   20 ar
    34   19   35 1
    35   20   21 ar
    36   20   36 1
    37   21   22 ar
    38   21   37 1
    39   22   23 ar
    40   23   38 1
@<TRIPOS>MOLECULE
ZINC03946466
   39    41     0     0     0
SMALL
USER_CHARGES

@<TRIPOS>ATOM
      1 C1         -0.9294    1.6907    1.3446 C.ar      1 <0>        -0.0997
      2 C2          0.2272    2.2777    0.8658 C.ar      1 <0>        -0.1017
      3 C3          1.2654    1.4882    0.4084 C.ar      1 <0>        -0.0942
      4 C4          1.1477    0.1110    0.4290 C.ar      1 <0>        -0.0999
      5 C5         -0.0092   -0.4769    0.9079 C.ar      1 <0>        -0.0312
      6 C6         -1.0481    0.3141    1.3661 C.ar      1 <0>        -0.1029
      7 Cl1        -0.1580   -2.2063    0.9336 Cl        1 <0>        -0.0606
      8 C7          2.5258    2.1288   -0.1133 C.3       1 <0>         0.1700
      9 C8          2.8085    1.8172   -1.5924 C.3       1 <0>        -0.1234
     10 C9          4.2894    1.6846   -1.2000 C.3       1 <0>        -0.1347
     11 C10         3.8017    1.3361    0.2162 C.3       1 <0>        -0.1554
     12 N1          2.6183    3.5533    0.2163 N.pl3     1 <0>        -0.7189
     13 C11         2.7380    3.9484    1.5251 C.2       1 <0>         0.6572
     14 N2          2.7955    3.0051    2.5266 N.pl3     1 <0>        -0.5838
     15 C12         3.0170    3.3890    3.8070 C.1       1 <0>         0.4277
     16 N3          3.2028    3.7109    4.8805 N.1       1 <0>        -0.3835
     17 N4          2.7977    5.2249    1.8221 N.2       1 <0>        -0.5963
     18 C13         2.8678    6.1584    0.8217 C.ar      1 <0>         0.0919
     19 C14         1.9231    7.1887    0.7419 C.ar      1 <0>        -0.0887
     20 C15         2.0385    8.1058   -0.2875 C.ar      1 <0>        -0.1458
     21 C16         3.0734    7.9771   -1.1965 C.ar      1 <0>         0.0712
     22 N5          3.9494    6.9961   -1.0969 N.ar      1 <0>        -0.4626
     23 C17         3.8857    6.1019   -0.1319 C.ar      1 <0>         0.0431
     24 H1         -1.7385    2.3080    1.7060 H         1 <0>         0.1353
     25 H2          0.3194    3.3537    0.8488 H         1 <0>         0.1270
     26 H3          1.9587   -0.5058    0.0710 H         1 <0>         0.1402
     27 H4         -1.9516   -0.1444    1.7400 H         1 <0>         0.1370
     28 H5          2.3622    0.8836   -1.9349 H         1 <0>         0.1041
     29 H6          2.6073    2.6541   -2.2611 H         1 <0>         0.0807
     30 H7          4.8017    0.8625   -1.6999 H         1 <0>         0.0812
     31 H8          4.8410    2.6232   -1.2532 H         1 <0>         0.0875
     32 H9          4.4022    1.7847    1.0076 H         1 <0>         0.0808
     33 H10         3.6269    0.2710    0.3681 H         1 <0>         0.1044
     34 H11         2.5950    4.2172   -0.4906 H         1 <0>         0.4250
     35 H12         1.1246    7.2654    1.4651 H         1 <0>         0.1360
     36 H13         1.3277    8.9136   -0.3807 H         1 <0>         0.1376
     37 H14         3.1654    8.6915   -2.0012 H         1 <0>         0.1560
     38 H15         4.6245    5.3158   -0.0806 H         1 <0>         0.1499
     39 H16         2.6774    2.0657    2.3154 H         1 <0>         0.4394
@<TRIPOS>BOND
     1    1    6 ar
     2    1    2 ar
     3    1   24 1
     4    2    3 ar
     5    2   25 1
     6    3    4 ar
     7    3    8 1
     8    4    5 ar
     9    4   26 1
    10    5    6 ar
    11    5    7 1
    12    6   27 1
    13    8   11 1
    14    8    9 1
    15    8   12 1
    16    9   10 1
    17    9   28 1
    18    9   29 1
    19   10   11 1
    20   10   30 1
    21   10   31 1
    22   11   32 1
    23   11   33 1
    24   12   13 1
    25   12   34 1
    26   13   14 1
    27   13   17 2
    28   14   15 1
    29   14   39 1
    30   15   16 3
    31   17   18 1
    32   18   23 ar
    33   18   19 ar
    34   19   20 ar
    35   19   35 1
    36   20   21 ar
    37   20   36 1
    38   21   22 ar
    39   21   37 1
    40   22   23 ar
    41   23   38 1
@<TRIPOS>MOLECULE
ZINC00537805
   60    62     0     0     0
SMALL
USER_CHARGES

@<TRIPOS>ATOM
      1 C1         -0.0173    1.4248    0.0099 C.3       1 <0>         0.0182
      2 O1          0.0021   -0.0041    0.0020 O.3       1 <0>        -0.2748
      3 C2          0.6248   -0.6173    1.0397 C.ar      1 <0>         0.1920
      4 C3          1.2017    0.1376    2.0502 C.ar      1 <0>        -0.2078
      5 C4          1.8351   -0.4872    3.1057 C.ar      1 <0>        -0.0422
      6 C5          1.9003   -1.8709    3.1645 C.ar      1 <0>        -0.0840
      7 C6          1.3321   -2.6365    2.1684 C.ar      1 <0>        -0.0380
      8 C7          0.6827   -2.0162    1.0981 C.ar      1 <0>        -0.1597
      9 C8          0.0667   -2.8292    0.0322 C.2       1 <0>         0.5595
     10 O2         -0.4933   -2.2858   -0.9002 O.2       1 <0>        -0.5093
     11 N1          0.1246   -4.1744    0.0921 N.am      1 <0>        -0.7295
     12 C9         -0.4871   -4.9818   -0.9663 C.3       1 <0>         0.1248
     13 C10        -0.2807   -6.4663   -0.6591 C.3       1 <0>        -0.0921
     14 C11        -0.9099   -7.2969   -1.7479 C.ar      1 <0>        -0.0513
     15 C12        -2.2308   -7.6903   -1.6410 C.ar      1 <0>        -0.1388
     16 C13        -2.8080   -8.4521   -2.6397 C.ar      1 <0>        -0.0201
     17 C14        -2.0644   -8.8201   -3.7454 C.ar      1 <0>        -0.6264
     18 C15        -0.7438   -8.4259   -3.8527 C.ar      1 <0>        -0.0200
     19 C16        -0.1679   -7.6605   -2.8560 C.ar      1 <0>        -0.1388
     20 S1         -2.7998   -9.7921   -5.0179 S.o2      1 <0>         2.6734
     21 O3         -1.7374  -10.4617   -5.6828 O.2       1 <0>        -1.0097
     22 O4         -3.8845  -10.4894   -4.4207 O.2       1 <0>        -1.0098
     23 N2         -3.4590   -8.7429   -6.1164 N.2       1 <0>        -1.1046
     24 C17        -4.0714   -9.2023   -7.1683 C.2       1 <0>         0.6850
     25 O5         -4.1695  -10.5353   -7.3644 O.3       1 <0>        -0.7480
     26 N3         -4.6181   -8.3321   -8.0794 N.pl3     1 <0>        -0.7202
     27 C18        -5.3077   -8.8494   -9.2639 C.3       1 <0>         0.1652
     28 C19        -4.2854   -9.1312  -10.3668 C.3       1 <0>        -0.1304
     29 C20        -5.0055   -9.6715  -11.6039 C.3       1 <0>        -0.1163
     30 C21        -6.0168   -8.6353  -12.0985 C.3       1 <0>        -0.1184
     31 C22        -7.0391   -8.3536  -10.9956 C.3       1 <0>        -0.1141
     32 C23        -6.3189   -7.8133   -9.7585 C.3       1 <0>        -0.1258
     33 Cl1         2.7012   -2.6426    4.4974 Cl        1 <0>        -0.0634
     34 H1          1.0053    1.8021    0.0021 H         1 <0>         0.0584
     35 H2         -0.5445    1.7859   -0.8732 H         1 <0>         0.1066
     36 H3         -0.5275    1.7763    0.9067 H         1 <0>         0.0584
     37 H4          1.1556    1.2159    2.0109 H         1 <0>         0.1455
     38 H5          2.2828    0.1052    3.8899 H         1 <0>         0.1414
     39 H6          1.3849   -3.7141    2.2178 H         1 <0>         0.1433
     40 H7          0.5714   -4.6080    0.8360 H         1 <0>         0.3973
     41 H8         -1.5543   -4.7662   -1.0169 H         1 <0>         0.0750
     42 H9         -0.0220   -4.7405   -1.9221 H         1 <0>         0.0750
     43 H10         0.7866   -6.6820   -0.6085 H         1 <0>         0.0813
     44 H11        -0.7458   -6.7077    0.2967 H         1 <0>         0.0814
     45 H12        -2.8117   -7.4028   -0.7772 H         1 <0>         0.1262
     46 H13        -3.8397   -8.7601   -2.5559 H         1 <0>         0.1378
     47 H14        -0.1628   -8.7137   -4.7164 H         1 <0>         0.1377
     48 H15         0.8628   -7.3493   -2.9416 H         1 <0>         0.1261
     49 H16        -4.5477   -7.3750   -7.9386 H         1 <0>         0.3913
     50 H17        -5.8287   -9.7718   -9.0072 H         1 <0>         0.0815
     51 H18        -3.7644   -8.2088  -10.6236 H         1 <0>         0.0553
     52 H19        -3.5649   -9.8694  -10.0144 H         1 <0>         0.0710
     53 H20        -4.2772   -9.8722  -12.3896 H         1 <0>         0.0572
     54 H21        -5.5265  -10.5939  -11.3471 H         1 <0>         0.0624
     55 H22        -5.4958   -7.7129  -12.3552 H         1 <0>         0.0590
     56 H23        -6.5298   -9.0202  -12.9798 H         1 <0>         0.0564
     57 H24        -7.7595   -7.6154  -11.3480 H         1 <0>         0.0595
     58 H25        -7.5601   -9.2759  -10.7388 H         1 <0>         0.0632
     59 H26        -7.0473   -7.6126   -8.9728 H         1 <0>         0.0650
     60 H27        -5.7980   -6.8909  -10.0153 H         1 <0>         0.0622
@<TRIPOS>BOND
     1    1    2 1
     2    1   34 1
     3    1   35 1
     4    1   36 1
     5    2    3 1
     6    3    8 ar
     7    3    4 ar
     8    4    5 ar
     9    4   37 1
    10    5    6 ar
    11    5   38 1
    12    6    7 ar
    13    6   33 1
    14    7    8 ar
    15    7   39 1
    16    8    9 1
    17    9   10 2
    18    9   11 am
    19   11   12 1
    20   11   40 1
    21   12   13 1
    22   12   41 1
    23   12   42 1
    24   13   14 1
    25   13   43 1
    26   13   44 1
    27   14   19 ar
    28   14   15 ar
    29   15   16 ar
    30   15   45 1
    31   16   17 ar
    32   16   46 1
    33   17   18 ar
    34   17   20 1
    35   18   19 ar
    36   18   47 1
    37   19   48 1
    38   20   21 2
    39   20   22 2
    40   20   23 1
    41   23   24 2
    42   24   25 1
    43   24   26 1
    44   26   27 1
    45   26   49 1
    46   27   32 1
    47   27   28 1
    48   27   50 1
    49   28   29 1
    50   28   51 1
    51   28   52 1
    52   29   30 1
    53   29   53 1
    54   29   54 1
    55   30   31 1
    56   30   55 1
    57   30   56 1
    58   31   32 1
    59   31   57 1
    60   31   58 1
    61   32   59 1
    62   32   60 1
