@<TRIPOS>MOLECULE
ZINC03872070
   29    31     0     0     0
SMALL
USER_CHARGES

@<TRIPOS>ATOM
      1 C1         -0.0167    1.3795    0.0096 C.ar      1 <0>        -0.0927
      2 C2          1.1683    2.0940    0.0021 C.ar      1 <0>        -0.1229
      3 C3          2.3774    1.4303   -0.0130 C.ar      1 <0>        -0.0794
      4 C4          2.4038    0.0341   -0.0208 C.ar      1 <0>        -0.0750
      5 C5          1.2040   -0.6806   -0.0131 C.ar      1 <0>        -0.0800
      6 C6          0.0021   -0.0041    0.0020 C.ar      1 <0>        -0.1206
      7 C7          3.6945   -0.6834   -0.0374 C.2       1 <0>         0.2076
      8 C8          3.6865   -2.0422   -0.0503 C.2       1 <0>        -0.3115
      9 C9          4.9147   -2.7475   -0.0669 C.2       1 <0>         0.4227
     10 O1          4.9453   -3.9673   -0.0791 O.2       1 <0>        -0.4538
     11 C10         6.1531   -1.9509   -0.0693 C.ar      1 <0>        -0.2663
     12 C11         7.4124   -2.5640   -0.0858 C.ar      1 <0>         0.2193
     13 C12         8.5511   -1.7802   -0.0879 C.ar      1 <0>        -0.2051
     14 C13         8.4449   -0.3935   -0.0739 C.ar      1 <0>         0.1922
     15 C14         7.2019    0.2199   -0.0571 C.ar      1 <0>        -0.1832
     16 C15         6.0486   -0.5493   -0.0551 C.ar      1 <0>         0.1831
     17 O2          4.8303    0.0319   -0.0449 O.3       1 <0>        -0.2180
     18 O3          9.5695    0.3668   -0.0761 O.3       1 <0>        -0.4872
     19 O4          7.5139   -3.9173   -0.0990 O.3       1 <0>        -0.4722
     20 H1         -0.9606    1.9042    0.0260 H         1 <0>         0.1309
     21 H2          1.1464    3.1738    0.0078 H         1 <0>         0.1326
     22 H3          3.3016    1.9892   -0.0192 H         1 <0>         0.1349
     23 H4          1.2173   -1.7605   -0.0194 H         1 <0>         0.1361
     24 H5         -0.9265   -0.5555    0.0079 H         1 <0>         0.1347
     25 H6          2.7503   -2.5805   -0.0475 H         1 <0>         0.1636
     26 H7          9.5256   -2.2457   -0.1002 H         1 <0>         0.1502
     27 H8          7.1320    1.2975   -0.0459 H         1 <0>         0.1533
     28 H9          9.8879    0.5955   -0.9601 H         1 <0>         0.4037
     29 H10         7.5357   -4.3014   -0.9862 H         1 <0>         0.4030
@<TRIPOS>BOND
     1    1    6 ar
     2    1    2 ar
     3    1   20 1
     4    2    3 ar
     5    2   21 1
     6    3    4 ar
     7    3   22 1
     8    4    5 ar
     9    4    7 1
    10    5    6 ar
    11    5   23 1
    12    6   24 1
    13    7   17 1
    14    7    8 2
    15    8    9 1
    16    8   25 1
    17    9   10 2
    18    9   11 1
    19   11   16 ar
    20   11   12 ar
    21   12   13 ar
    22   12   19 1
    23   13   14 ar
    24   13   26 1
    25   14   15 ar
    26   14   18 1
    27   15   16 ar
    28   15   27 1
    29   16   17 1
    30   18   28 1
    31   19   29 1
@<TRIPOS>MOLECULE
ZINC03872070
   28    30     0     0     0
SMALL
USER_CHARGES

@<TRIPOS>ATOM
      1 C1         -0.0167    1.3797    0.0096 C.ar      1 <0>        -0.1070
      2 C2          1.1682    2.0946    0.0022 C.ar      1 <0>        -0.1239
      3 C3          2.3774    1.4315   -0.0129 C.ar      1 <0>        -0.0844
      4 C4          2.4042    0.0344   -0.0206 C.ar      1 <0>        -0.0523
      5 C5          1.2037   -0.6807   -0.0130 C.ar      1 <0>        -0.0872
      6 C6          0.0021   -0.0041    0.0020 C.ar      1 <0>        -0.1230
      7 C7          3.6938   -0.6822   -0.0372 C.2       1 <0>         0.1725
      8 C8          3.6987   -2.0599   -0.0503 C.2       1 <0>        -0.2684
      9 C9          4.9147   -2.7500   -0.0661 C.2       1 <0>         0.3652
     10 C10         6.1116   -2.0009   -0.0682 C.2       1 <0>        -0.3412
     11 C11         7.3668   -2.6443   -0.0844 C.2       1 <0>         0.2654
     12 C12         8.5111   -1.9002   -0.0865 C.2       1 <0>        -0.3783
     13 C13         8.4435   -0.4975   -0.0722 C.2       1 <0>         0.3617
     14 O1          9.5678    0.2204   -0.0740 O.2       1 <0>        -0.6670
     15 C14         7.2040    0.1518   -0.0566 C.2       1 <0>        -0.3151
     16 C15         6.0392   -0.5896   -0.0543 C.2       1 <0>         0.2114
     17 O2          4.8365    0.0229   -0.0448 O.3       1 <0>        -0.2195
     18 O3          7.4365   -3.9993   -0.0974 O.3       1 <0>        -0.4477
     19 O4          4.9436   -4.1007   -0.0786 O.3       1 <0>        -0.5790
     20 H1         -0.9606    1.9042    0.0260 H         1 <0>         0.1247
     21 H2          1.1460    3.1743    0.0078 H         1 <0>         0.1280
     22 H3          3.3014    1.9906   -0.0191 H         1 <0>         0.1359
     23 H4          1.2169   -1.7606   -0.0192 H         1 <0>         0.1351
     24 H5         -0.9266   -0.5554    0.0079 H         1 <0>         0.1291
     25 H6          2.7663   -2.6050   -0.0479 H         1 <0>         0.1462
     26 H7          9.4725   -2.3921   -0.0990 H         1 <0>         0.1160
     27 H8          7.1585    1.2308   -0.0456 H         1 <0>         0.1202
     28 H9          8.3389   -4.3466   -0.1079 H         1 <0>         0.3827
@<TRIPOS>BOND
     1    1    6 ar
     2    1    2 ar
     3    1   20 1
     4    2    3 ar
     5    2   21 1
     6    3    4 ar
     7    3   22 1
     8    4    5 ar
     9    4    7 1
    10    5    6 ar
    11    5   23 1
    12    6   24 1
    13    7   17 1
    14    7    8 2
    15    8    9 1
    16    8   25 1
    17    9   10 2
    18    9   19 1
    19   10   16 1
    20   10   11 1
    21   11   12 2
    22   11   18 1
    23   12   13 1
    24   12   26 1
    25   13   14 2
    26   13   15 1
    27   15   16 2
    28   15   27 1
    29   16   17 1
    30   18   28 1
@<TRIPOS>MOLECULE
ZINC00057751
   31    33     0     0     0
SMALL
USER_CHARGES

@<TRIPOS>ATOM
      1 C1         -0.0173    1.4248    0.0099 C.3       1 <0>         0.0234
      2 O1          0.0021   -0.0041    0.0020 O.3       1 <0>        -0.3107
      3 C2          0.6261   -0.6186    1.0419 C.ar      1 <0>         0.1041
      4 C3          1.2034    0.1435    2.0533 C.ar      1 <0>        -0.1455
      5 C4          1.8399   -0.4641    3.1138 C.ar      1 <0>        -0.0959
      6 C5          1.9098   -1.8505    3.1806 C.ar      1 <0>         0.1085
      7 C6          1.3275   -2.6204    2.1615 C.ar      1 <0>        -0.1810
      8 C7          0.6805   -1.9989    1.0949 C.ar      1 <0>        -0.0663
      9 C8          1.4144   -4.0915    2.2539 C.2       1 <0>         0.4230
     10 O2          0.9271   -4.8106    1.3974 O.2       1 <0>        -0.4649
     11 C9          2.0855   -4.6338    3.3746 C.2       1 <0>        -0.3212
     12 C10         2.6156   -3.7976    4.3076 C.2       1 <0>         0.2158
     13 O3          2.5301   -2.4622    4.2118 O.3       1 <0>        -0.2187
     14 C11         3.3121   -4.3825    5.4709 C.ar      1 <0>        -0.0755
     15 C12         3.4236   -5.7689    5.5975 C.ar      1 <0>        -0.0794
     16 C13         4.0759   -6.3085    6.6865 C.ar      1 <0>        -0.1212
     17 C14         4.6189   -5.4796    7.6524 C.ar      1 <0>        -0.0928
     18 C15         4.5121   -4.1051    7.5333 C.ar      1 <0>        -0.1237
     19 C16         3.8675   -3.5518    6.4466 C.ar      1 <0>        -0.0787
     20 H1          1.0053    1.8021    0.0021 H         1 <0>         0.0584
     21 H2         -0.5445    1.7859   -0.8732 H         1 <0>         0.1051
     22 H3         -0.5275    1.7763    0.9067 H         1 <0>         0.0584
     23 H4          1.1525    1.2213    2.0064 H         1 <0>         0.1473
     24 H5          2.2848    0.1371    3.8929 H         1 <0>         0.1484
     25 H6          0.2290   -2.5914    0.3129 H         1 <0>         0.1518
     26 H7          2.1761   -5.7038    3.4890 H         1 <0>         0.1630
     27 H8          2.9997   -6.4170    4.8447 H         1 <0>         0.1364
     28 H9          4.1629   -7.3804    6.7857 H         1 <0>         0.1344
     29 H10         5.1280   -5.9074    8.5033 H         1 <0>         0.1305
     30 H11         4.9381   -3.4640    8.2908 H         1 <0>         0.1322
     31 H12         3.7887   -2.4788    6.3526 H         1 <0>         0.1349
@<TRIPOS>BOND
     1    1    2 1
     2    1   20 1
     3    1   21 1
     4    1   22 1
     5    2    3 1
     6    3    8 ar
     7    3    4 ar
     8    4    5 ar
     9    4   23 1
    10    5    6 ar
    11    5   24 1
    12    6   13 1
    13    6    7 ar
    14    7    8 ar
    15    7    9 1
    16    8   25 1
    17    9   10 2
    18    9   11 1
    19   11   12 2
    20   11   26 1
    21   12   13 1
    22   12   14 1
    23   14   19 ar
    24   14   15 ar
    25   15   16 ar
    26   15   27 1
    27   16   17 ar
    28   16   28 1
    29   17   18 ar
    30   17   29 1
    31   18   19 ar
    32   18   30 1
    33   19   31 1
@<TRIPOS>MOLECULE
ZINC03869768
   31    33     0     0     0
SMALL
USER_CHARGES

@<TRIPOS>ATOM
      1 C1          0.9745   -0.2752   -0.9649 C.ar      1 <0>        -0.0474
      2 C2          2.1550    0.4346   -0.9693 C.ar      1 <0>        -0.1488
      3 C3          2.3800    1.4188   -0.0145 C.ar      1 <0>         0.1280
      4 C4          1.4162    1.6917    0.9485 C.ar      1 <0>        -0.1504
      5 C5          0.2327    0.9869    0.9606 C.ar      1 <0>        -0.0665
      6 C6          0.0021   -0.0041    0.0020 C.ar      1 <0>        -0.0625
      7 C7         -1.2634   -0.7608    0.0105 C.2       1 <0>         0.1356
      8 C8         -1.2167   -2.1184   -0.0957 C.2       1 <0>        -0.0454
      9 C9         -2.4259   -2.8610   -0.0886 C.2       1 <0>         0.4007
     10 O1         -2.4232   -4.0781   -0.1814 O.2       1 <0>        -0.4492
     11 C10        -3.6832   -2.1065    0.0355 C.ar      1 <0>        -0.2689
     12 C11        -4.9234   -2.7585    0.0517 C.ar      1 <0>         0.2243
     13 C12        -6.0821   -2.0144    0.1703 C.ar      1 <0>        -0.2086
     14 C13        -6.0155   -0.6287    0.2722 C.ar      1 <0>         0.1994
     15 C14        -4.7926    0.0230    0.2564 C.ar      1 <0>        -0.1859
     16 C15        -3.6188   -0.7060    0.1392 C.ar      1 <0>         0.1873
     17 O2         -2.4200   -0.0864    0.1283 O.3       1 <0>        -0.1981
     18 O3         -7.1599    0.0925    0.3877 O.3       1 <0>        -0.4869
     19 O4         -4.9864   -4.1104   -0.0487 O.3       1 <0>        -0.4727
     20 O5         -0.0202   -2.7570   -0.2082 O.3       1 <0>        -0.4492
     21 O6          3.5454    2.1157   -0.0224 O.3       1 <0>        -0.4978
     22 H1          0.7987   -1.0369   -1.7101 H         1 <0>         0.1366
     23 H2          2.9071    0.2256   -1.7157 H         1 <0>         0.1375
     24 H3          1.5954    2.4572    1.6889 H         1 <0>         0.1366
     25 H4         -0.5157    1.1995    1.7097 H         1 <0>         0.1340
     26 H5         -7.0416   -2.5100    0.1835 H         1 <0>         0.1512
     27 H6         -4.7536    1.0994    0.3359 H         1 <0>         0.1553
     28 H7         -7.4448    0.2345    1.3008 H         1 <0>         0.4049
     29 H8         -4.9577   -4.5698    0.8018 H         1 <0>         0.4037
     30 H9         -0.0926   -3.7187   -0.2778 H         1 <0>         0.4073
     31 H10         3.5195    2.9194   -0.5594 H         1 <0>         0.3958
@<TRIPOS>BOND
     1    1    6 ar
     2    1    2 ar
     3    1   22 1
     4    2    3 ar
     5    2   23 1
     6    3    4 ar
     7    3   21 1
     8    4    5 ar
     9    4   24 1
    10    5    6 ar
    11    5   25 1
    12    6    7 1
    13    7   17 1
    14    7    8 2
    15    8    9 1
    16    8   20 1
    17    9   10 2
    18    9   11 1
    19   11   16 ar
    20   11   12 ar
    21   12   13 ar
    22   12   19 1
    23   13   14 ar
    24   13   26 1
    25   14   15 ar
    26   14   18 1
    27   15   16 ar
    28   15   27 1
    29   16   17 1
    30   18   28 1
    31   19   29 1
    32   20   30 1
    33   21   31 1
@<TRIPOS>MOLECULE
ZINC03869768
   30    32     0     0     0
SMALL
USER_CHARGES

@<TRIPOS>ATOM
      1 C1          0.1387    1.1253   -0.8121 C.ar      1 <0>        -0.0723
      2 C2          1.3222    1.8291   -0.8163 C.ar      1 <0>        -0.1492
      3 C3          2.3802    1.4188   -0.0136 C.ar      1 <0>         0.1107
      4 C4          2.2493    0.2973    0.7970 C.ar      1 <0>        -0.1487
      5 C5          1.0698   -0.4131    0.8081 C.ar      1 <0>        -0.0549
      6 C6          0.0021   -0.0041    0.0020 C.ar      1 <0>        -0.0373
      7 C7         -1.2618   -0.7600    0.0105 C.2       1 <0>         0.1024
      8 C8         -1.2272   -2.1382   -0.0967 C.2       1 <0>        -0.0073
      9 C9         -2.4246   -2.8649   -0.0894 C.2       1 <0>         0.3353
     10 C10        -3.6396   -2.1555    0.0286 C.2       1 <0>        -0.3335
     11 C11        -4.8747   -2.8371    0.0419 C.2       1 <0>         0.2665
     12 C12        -6.0380   -2.1324    0.1573 C.2       1 <0>        -0.3754
     13 C13        -6.0102   -0.7324    0.2627 C.2       1 <0>         0.3645
     14 O1         -7.1532   -0.0530    0.3751 O.2       1 <0>        -0.6613
     15 C14        -4.7917   -0.0455    0.2513 C.2       1 <0>        -0.3154
     16 C15        -3.6071   -0.7470    0.1346 C.2       1 <0>         0.2120
     17 O2         -2.4247   -0.0966    0.1278 O.3       1 <0>        -0.2026
     18 O3         -4.9062   -4.1898   -0.0602 O.3       1 <0>        -0.4482
     19 O4         -2.4171   -4.2129   -0.1933 O.3       1 <0>        -0.5752
     20 O5         -0.0356   -2.7853   -0.2091 O.3       1 <0>        -0.4646
     21 O6          3.5454    2.1154   -0.0218 O.3       1 <0>        -0.5000
     22 H1         -0.6842    1.4472   -1.4330 H         1 <0>         0.1347
     23 H2          1.4286    2.7011   -1.4445 H         1 <0>         0.1321
     24 H3          3.0741   -0.0177    1.4190 H         1 <0>         0.1323
     25 H4          0.9692   -1.2847    1.4377 H         1 <0>         0.1358
     26 H5         -6.9838   -2.6538    0.1671 H         1 <0>         0.1177
     27 H6         -4.7769    1.0313    0.3327 H         1 <0>         0.1225
     28 H7         -5.7973   -4.5650   -0.0417 H         1 <0>         0.3845
     29 H8         -0.1151   -3.7466   -0.2784 H         1 <0>         0.4051
     30 H9          3.5829    2.8269    0.6320 H         1 <0>         0.3897
@<TRIPOS>BOND
     1    1    6 ar
     2    1    2 ar
     3    1   22 1
     4    2    3 ar
     5    2   23 1
     6    3    4 ar
     7    3   21 1
     8    4    5 ar
     9    4   24 1
    10    5    6 ar
    11    5   25 1
    12    6    7 1
    13    7   17 1
    14    7    8 2
    15    8    9 1
    16    8   20 1
    17    9   10 2
    18    9   19 1
    19   10   16 1
    20   10   11 1
    21   11   12 2
    22   11   18 1
    23   12   13 1
    24   12   26 1
    25   13   14 2
    26   13   15 1
    27   15   16 2
    28   15   27 1
    29   16   17 1
    30   18   28 1
    31   20   29 1
    32   21   30 1
@<TRIPOS>MOLECULE
ZINC18185774
   31    33     0     0     0
SMALL
USER_CHARGES

@<TRIPOS>ATOM
      1 C1         -0.0169    1.3929    0.0097 C.ar      1 <0>        -0.0705
      2 C2          1.1675    2.0983    0.0022 C.ar      1 <0>        -0.1309
      3 C3          2.3803    1.4240   -0.0135 C.ar      1 <0>         0.1099
      4 C4          2.4067    0.0300   -0.0212 C.ar      1 <0>         0.0792
      5 C5          1.2240   -0.6832   -0.0138 C.ar      1 <0>        -0.0904
      6 C6          0.0021   -0.0041    0.0020 C.ar      1 <0>        -0.0661
      7 C7         -1.2642   -0.7606    0.0105 C.2       1 <0>         0.2069
      8 C8         -2.4374   -0.0724    0.0203 C.2       1 <0>        -0.3067
      9 C9         -3.6620   -0.7813    0.0286 C.2       1 <0>         0.4226
     10 O1         -4.7331   -0.1964    0.0371 O.2       1 <0>        -0.4521
     11 C10        -3.5935   -2.2524    0.0260 C.ar      1 <0>        -0.2661
     12 C11        -4.7554   -3.0344    0.0332 C.ar      1 <0>         0.2196
     13 C12        -4.6484   -4.4128    0.0300 C.ar      1 <0>        -0.2046
     14 C13        -3.3955   -5.0163    0.0203 C.ar      1 <0>         0.1928
     15 C14        -2.2415   -4.2483    0.0131 C.ar      1 <0>        -0.1829
     16 C15        -2.3286   -2.8648    0.0157 C.ar      1 <0>         0.1832
     17 O2         -1.2147   -2.1022    0.0028 O.3       1 <0>        -0.2181
     18 O3         -3.3016   -6.3705    0.0182 O.3       1 <0>        -0.4872
     19 O4         -5.9771   -2.4436    0.0436 O.3       1 <0>        -0.4722
     20 O5          3.5971   -0.6274   -0.0366 O.3       1 <0>        -0.4831
     21 O6          3.5446    2.1239   -0.0217 O.3       1 <0>        -0.4848
     22 H1         -0.9593    1.9201    0.0260 H         1 <0>         0.1451
     23 H2          1.1515    3.1781    0.0081 H         1 <0>         0.1468
     24 H3          1.2430   -1.7630   -0.0205 H         1 <0>         0.1466
     25 H4         -2.4342    1.0076    0.0222 H         1 <0>         0.1649
     26 H5         -5.5400   -5.0224    0.0355 H         1 <0>         0.1504
     27 H6         -1.2739   -4.7281    0.0059 H         1 <0>         0.1535
     28 H7         -3.2809   -6.7620   -0.8658 H         1 <0>         0.4041
     29 H8         -6.3379   -2.2705   -0.8367 H         1 <0>         0.4034
     30 H9          3.9502   -0.8223    0.8423 H         1 <0>         0.3919
     31 H10         3.8907    2.3221    0.8592 H         1 <0>         0.3948
@<TRIPOS>BOND
     1    1    6 ar
     2    1    2 ar
     3    1   22 1
     4    2    3 ar
     5    2   23 1
     6    3    4 ar
     7    3   21 1
     8    4    5 ar
     9    4   20 1
    10    5    6 ar
    11    5   24 1
    12    6    7 1
    13    7   17 1
    14    7    8 2
    15    8    9 1
    16    8   25 1
    17    9   10 2
    18    9   11 1
    19   11   16 ar
    20   11   12 ar
    21   12   13 ar
    22   12   19 1
    23   13   14 ar
    24   13   26 1
    25   14   15 ar
    26   14   18 1
    27   15   16 ar
    28   15   27 1
    29   16   17 1
    30   18   28 1
    31   19   29 1
    32   20   30 1
    33   21   31 1
@<TRIPOS>MOLECULE
ZINC14644952
   41    43     0     0     0
SMALL
USER_CHARGES
5-hydroxy-2-(4-hydroxyphenyl)-3,6,7-trimethoxy-chromen-4-one
@<TRIPOS>ATOM
      1 C1         -1.3566    9.5334    3.0001 C.3       1 <0>         0.0167
      2 O1         -2.3013    9.0233    2.0571 O.3       1 <0>        -0.2896
      3 C2         -2.1730    7.7190    1.6996 C.ar      1 <0>         0.1947
      4 C3         -1.1574    6.9533    2.2495 C.ar      1 <0>        -0.2358
      5 C4         -1.0186    5.6214    1.8902 C.ar      1 <0>         0.2002
      6 C5         -1.9162    5.0566    0.9665 C.ar      1 <0>        -0.2754
      7 C6         -2.9414    5.8339    0.4136 C.ar      1 <0>         0.2237
      8 C7         -3.0644    7.1634    0.7836 C.ar      1 <0>         0.0080
      9 O2         -4.0577    7.9280    0.2520 O.3       1 <0>        -0.3066
     10 C8         -5.3020    7.9550    0.9542 C.3       1 <0>         0.0305
     11 O3         -3.8082    5.2888   -0.4789 O.3       1 <0>        -0.4580
     12 C9         -1.7506    3.6407    0.6009 C.2       1 <0>         0.4128
     13 O4         -2.5011    3.0994   -0.1953 O.2       1 <0>        -0.4368
     14 C10        -0.6852    2.9292    1.2102 C.2       1 <0>        -0.0788
     15 C11         0.1268    3.5687    2.0982 C.2       1 <0>         0.1778
     16 O5         -0.0339    4.8638    2.4187 O.3       1 <0>        -0.2045
     17 C12         1.2257    2.8128    2.7271 C.ar      1 <0>        -0.0833
     18 C13         0.9787    1.5607    3.2974 C.ar      1 <0>        -0.0405
     19 C14         2.0094    0.8558    3.8790 C.ar      1 <0>        -0.1505
     20 C15         3.2909    1.3923    3.9088 C.ar      1 <0>         0.1352
     21 C16         3.5398    2.6391    3.3481 C.ar      1 <0>        -0.1522
     22 C17         2.5164    3.3487    2.7597 C.ar      1 <0>        -0.0618
     23 O6          4.3028    0.6962    4.4878 O.3       1 <0>        -0.4972
     24 O7         -0.4792    1.6168    0.9145 O.3       1 <0>        -0.2970
     25 C18         0.2966    1.3283   -0.2504 C.3       1 <0>         0.0291
     26 H1         -1.5714   10.5836    3.1979 H         1 <0>         0.1103
     27 H2         -1.4279    8.9669    3.9286 H         1 <0>         0.0637
     28 H3         -0.3498    9.4389    2.5932 H         1 <0>         0.0647
     29 H4         -0.4728    7.3946    2.9587 H         1 <0>         0.1587
     30 H5         -6.0038    8.5997    0.4250 H         1 <0>         0.0997
     31 H6         -5.7086    6.9453    1.0119 H         1 <0>         0.0434
     32 H7         -5.1426    8.3407    1.9611 H         1 <0>         0.0491
     33 H8         -4.5943    4.8967   -0.0746 H         1 <0>         0.4010
     34 H9         -0.0178    1.1448    3.2784 H         1 <0>         0.1416
     35 H10         1.8204   -0.1134    4.3163 H         1 <0>         0.1397
     36 H11         4.5374    3.0522    3.3735 H         1 <0>         0.1380
     37 H12         2.7107    4.3179    2.3245 H         1 <0>         0.1351
     38 H13         4.4168    0.8788    5.4306 H         1 <0>         0.3974
     39 H14         0.3841    0.2485   -0.3704 H         1 <0>         0.0998
     40 H15         1.2900    1.7636   -0.1423 H         1 <0>         0.0455
     41 H16        -0.1926    1.7528   -1.1271 H         1 <0>         0.0514
@<TRIPOS>BOND
     1    1    2 1
     2    1   26 1
     3    1   27 1
     4    1   28 1
     5    2    3 1
     6    3    8 ar
     7    3    4 ar
     8    4    5 ar
     9    4   29 1
    10    5   16 1
    11    5    6 ar
    12    6    7 ar
    13    6   12 1
    14    7    8 ar
    15    7   11 1
    16    8    9 1
    17    9   10 1
    18   10   30 1
    19   10   31 1
    20   10   32 1
    21   11   33 1
    22   12   13 2
    23   12   14 1
    24   14   15 2
    25   14   24 1
    26   15   16 1
    27   15   17 1
    28   17   22 ar
    29   17   18 ar
    30   18   19 ar
    31   18   34 1
    32   19   20 ar
    33   19   35 1
    34   20   21 ar
    35   20   23 1
    36   21   22 ar
    37   21   36 1
    38   22   37 1
    39   23   38 1
    40   24   25 1
    41   25   39 1
    42   25   40 1
    43   25   41 1
@<TRIPOS>MOLECULE
ZINC01627642
   37    39     0     0     0
SMALL
USER_CHARGES
5-hydroxy-7-methoxy-6-methyl-2-phenyl-chroman-4-one
@<TRIPOS>ATOM
      1 C1         -2.4400   11.3268   -0.6903 C.3       1 <0>        -0.0987
      2 C2         -2.0941    9.8600   -0.6895 C.ar      1 <0>        -0.1892
      3 C3         -2.5193    9.0460   -1.7324 C.ar      1 <0>         0.2130
      4 C4         -2.2114    7.6917   -1.7452 C.ar      1 <0>        -0.2608
      5 C5         -1.4741    7.1356   -0.7147 C.ar      1 <0>         0.2308
      6 C6         -1.0355    7.9579    0.3395 C.ar      1 <0>        -0.3151
      7 C7         -1.3540    9.3252    0.3496 C.ar      1 <0>         0.2397
      8 O1         -0.9388   10.1158    1.3702 O.3       1 <0>        -0.4745
      9 C8         -0.2417    7.3663    1.4221 C.2       1 <0>         0.4045
     10 O2          0.3441    8.0539    2.2328 O.2       1 <0>        -0.4353
     11 C9         -0.1909    5.8500    1.4767 C.3       1 <0>        -0.1826
     12 C10        -0.0705    5.3471    0.0307 C.3       1 <0>         0.1461
     13 H1          0.8514    5.7258   -0.4106 H         1 <0>         0.0910
     14 O3         -1.1877    5.8125   -0.7261 O.3       1 <0>        -0.2986
     15 C11        -0.0501    3.8402    0.0223 C.ar      1 <0>        -0.0940
     16 C12         1.1563    3.1654    0.0081 C.ar      1 <0>        -0.1026
     17 C13         1.1750    1.7832    0.0004 C.ar      1 <0>        -0.1183
     18 C14        -0.0126    1.0758    0.0080 C.ar      1 <0>        -0.1100
     19 C15        -1.2190    1.7506    0.0173 C.ar      1 <0>        -0.1201
     20 C16        -1.2377    3.1328    0.0294 C.ar      1 <0>        -0.0911
     21 O4         -3.2422    9.5798   -2.7489 O.3       1 <0>        -0.3005
     22 C17        -3.6499    8.6915   -3.7913 C.3       1 <0>         0.0208
     23 H2         -1.6563   11.8846   -1.2030 H         1 <0>         0.0671
     24 H3         -3.3888   11.4761   -1.2057 H         1 <0>         0.0723
     25 H4         -2.5251   11.6806    0.3371 H         1 <0>         0.0732
     26 H5         -2.5489    7.0707   -2.5618 H         1 <0>         0.1477
     27 H6         -0.0732   10.5219    1.2261 H         1 <0>         0.4032
     28 H7         -1.0255    5.5037    1.9050 H         1 <0>         0.1025
     29 H8          0.6746    5.5270    2.0552 H         1 <0>         0.1137
     30 H9          2.0842    3.7181    0.0025 H         1 <0>         0.1263
     31 H10         2.1175    1.2560   -0.0111 H         1 <0>         0.1278
     32 H11         0.0021   -0.0041    0.0020 H         1 <0>         0.1256
     33 H12        -2.1469    1.1980    0.0188 H         1 <0>         0.1264
     34 H13        -2.1802    3.6600    0.0409 H         1 <0>         0.1281
     35 H14        -4.2728    7.9012   -3.3724 H         1 <0>         0.0623
     36 H15        -4.2187    9.2449   -4.5385 H         1 <0>         0.1069
     37 H16        -2.7691    8.2507   -4.2583 H         1 <0>         0.0622
@<TRIPOS>BOND
     1    1    2 1
     2    1   23 1
     3    1   24 1
     4    1   25 1
     5    2    7 ar
     6    2    3 ar
     7    3    4 ar
     8    3   21 1
     9    4    5 ar
    10    4   26 1
    11    5   14 1
    12    5    6 ar
    13    6    7 ar
    14    6    9 1
    15    7    8 1
    16    8   27 1
    17    9   10 2
    18    9   11 1
    19   11   12 1
    20   11   28 1
    21   11   29 1
    22   12   13 1
    23   12   14 1
    24   12   15 1
    25   15   20 ar
    26   15   16 ar
    27   16   17 ar
    28   16   30 1
    29   17   18 ar
    30   17   31 1
    31   18   19 ar
    32   18   32 1
    33   19   20 ar
    34   19   33 1
    35   20   34 1
    36   21   22 1
    37   22   35 1
    38   22   36 1
    39   22   37 1
@<TRIPOS>MOLECULE
ZINC05809705
   37    39     0     0     0
SMALL
USER_CHARGES
5-hydroxy-7-methoxy-6-methyl-2-phenyl-chroman-4-one
@<TRIPOS>ATOM
      1 C1          1.2083   -2.2038   -0.0186 C.3       1 <0>        -0.0987
      2 C2          1.2066   -0.6968   -0.0128 C.ar      1 <0>        -0.1892
      3 C3          0.0021   -0.0041    0.0020 C.ar      1 <0>         0.2130
      4 C4         -0.0168    1.3847    0.0097 C.ar      1 <0>        -0.2609
      5 C5          1.1696    2.0971    0.0022 C.ar      1 <0>         0.2308
      6 C6          2.3913    1.3994   -0.0196 C.ar      1 <0>        -0.3151
      7 C7          2.4041   -0.0045   -0.0226 C.ar      1 <0>         0.2395
      8 O1          3.5818   -0.6768   -0.0355 O.3       1 <0>        -0.4746
      9 C8          3.6458    2.1595   -0.0442 C.2       1 <0>         0.4044
     10 O2          4.7097    1.6270   -0.2844 O.2       1 <0>        -0.4353
     11 C9          3.5450    3.6462    0.2463 C.3       1 <0>        -0.1824
     12 C10         2.2841    4.1629   -0.4618 C.3       1 <0>         0.1462
     13 H1          2.3810    4.0080   -1.5363 H         1 <0>         0.0899
     14 O3          1.1453    3.4505    0.0214 O.3       1 <0>        -0.2981
     15 C11         2.1149    5.6333   -0.1783 C.ar      1 <0>        -0.0943
     16 C12         1.5658    6.0473    1.0209 C.ar      1 <0>        -0.0906
     17 C13         1.4155    7.3962    1.2831 C.ar      1 <0>        -0.1204
     18 C14         1.8038    8.3308    0.3415 C.ar      1 <0>        -0.1092
     19 C15         2.3480    7.9166   -0.8598 C.ar      1 <0>        -0.1187
     20 C16         2.5036    6.5679   -1.1197 C.ar      1 <0>        -0.1014
     21 O4         -1.1676   -0.6914    0.0086 O.3       1 <0>        -0.3005
     22 C17        -2.3719    0.0777    0.0234 C.3       1 <0>         0.0208
     23 H2          1.1984   -2.5632   -1.0476 H         1 <0>         0.0670
     24 H3          2.1038   -2.5681    0.4848 H         1 <0>         0.0732
     25 H4          0.3239   -2.5702    0.5027 H         1 <0>         0.0723
     26 H5         -0.9602    1.9102    0.0170 H         1 <0>         0.1476
     27 H6          3.9149   -0.8697   -0.9226 H         1 <0>         0.4031
     28 H7          4.3613    4.1093   -0.0988 H         1 <0>         0.1017
     29 H8          3.4614    3.8110    1.3205 H         1 <0>         0.1144
     30 H9          1.2580    5.3170    1.7546 H         1 <0>         0.1277
     31 H10         0.9906    7.7198    2.2218 H         1 <0>         0.1266
     32 H11         1.6822    9.3846    0.5445 H         1 <0>         0.1257
     33 H12         2.6514    8.6468   -1.5955 H         1 <0>         0.1278
     34 H13         2.9285    6.2443   -2.0584 H         1 <0>         0.1261
     35 H14        -2.3937    0.7015    0.9169 H         1 <0>         0.0624
     36 H15        -2.4094    0.7111   -0.8629 H         1 <0>         0.0621
     37 H16        -3.2313   -0.5929    0.0273 H         1 <0>         0.1069
@<TRIPOS>BOND
     1    1    2 1
     2    1   23 1
     3    1   24 1
     4    1   25 1
     5    2    7 ar
     6    2    3 ar
     7    3    4 ar
     8    3   21 1
     9    4    5 ar
    10    4   26 1
    11    5   14 1
    12    5    6 ar
    13    6    7 ar
    14    6    9 1
    15    7    8 1
    16    8   27 1
    17    9   10 2
    18    9   11 1
    19   11   12 1
    20   11   28 1
    21   11   29 1
    22   12   13 1
    23   12   14 1
    24   12   15 1
    25   15   20 ar
    26   15   16 ar
    27   16   17 ar
    28   16   30 1
    29   17   18 ar
    30   17   31 1
    31   18   19 ar
    32   18   32 1
    33   19   20 ar
    34   19   33 1
    35   20   34 1
    36   21   22 1
    37   22   35 1
    38   22   36 1
    39   22   37 1
@<TRIPOS>MOLECULE
ZINC02516778
   40    42     0     0     0
SMALL
USER_CHARGES
(2R)-5,7-dimethoxy-8-methyl-2-phenyl-chroman-4-one
@<TRIPOS>ATOM
      1 C1         -2.3510    6.7974    3.2233 C.3       1 <0>        -0.0901
      2 C2         -2.0029    7.6751    2.0487 C.ar      1 <0>        -0.1953
      3 C3         -2.3033    9.0310    2.0845 C.ar      1 <0>         0.2329
      4 C4         -1.9914    9.8548    1.0102 C.ar      1 <0>        -0.3421
      5 C5         -1.3722    9.3286   -0.1098 C.ar      1 <0>         0.2526
      6 C6         -1.0598    7.9608   -0.1486 C.ar      1 <0>        -0.3165
      7 C7         -1.3848    7.1281    0.9385 C.ar      1 <0>         0.2502
      8 O1         -1.0999    5.8050    0.9068 O.3       1 <0>        -0.2908
      9 C8         -0.0705    5.3471    0.0302 C.3       1 <0>         0.1440
     10 H1          0.8935    5.7222    0.3738 H         1 <0>         0.0907
     11 C9         -0.3454    5.8633   -1.3898 C.3       1 <0>        -0.1814
     12 C10        -0.3881    7.3791   -1.3159 C.2       1 <0>         0.4041
     13 O2          0.1077    8.0741   -2.1787 O.2       1 <0>        -0.4325
     14 C11        -0.0501    3.8402    0.0223 C.ar      1 <0>        -0.0929
     15 C12         1.1563    3.1654    0.0081 C.ar      1 <0>        -0.1014
     16 C13         1.1750    1.7832    0.0004 C.ar      1 <0>        -0.1189
     17 C14        -0.0126    1.0758    0.0080 C.ar      1 <0>        -0.1097
     18 C15        -1.2190    1.7506    0.0173 C.ar      1 <0>        -0.1205
     19 C16        -1.2377    3.1328    0.0290 C.ar      1 <0>        -0.0901
     20 O3         -1.0691   10.1286   -1.1620 O.3       1 <0>        -0.2837
     21 C17        -1.4176   11.5098   -1.0484 C.3       1 <0>         0.0208
     22 O4         -2.9079    9.5561    3.1797 O.3       1 <0>        -0.3001
     23 C18        -3.1907   10.9566    3.1558 C.3       1 <0>         0.0229
     24 H2         -1.5156    6.7788    3.9232 H         1 <0>         0.0650
     25 H3         -3.2351    7.1932    3.7232 H         1 <0>         0.0686
     26 H4         -2.5542    5.7854    2.8730 H         1 <0>         0.0703
     27 H5         -2.2327   10.9067    1.0492 H         1 <0>         0.1439
     28 H6          0.3833    5.5575   -2.0025 H         1 <0>         0.1008
     29 H7         -1.3028    5.4817   -1.7446 H         1 <0>         0.1136
     30 H8          2.0842    3.7181    0.0025 H         1 <0>         0.1260
     31 H9          2.1175    1.2560   -0.0111 H         1 <0>         0.1272
     32 H10         0.0021   -0.0041    0.0020 H         1 <0>         0.1251
     33 H11        -2.1469    1.1980    0.0188 H         1 <0>         0.1262
     34 H12        -2.1802    3.6600    0.0397 H         1 <0>         0.1281
     35 H13        -1.1207   12.0353   -1.9560 H         1 <0>         0.1072
     36 H14        -2.4949   11.6025   -0.9108 H         1 <0>         0.0590
     37 H15        -0.9031   11.9451   -0.1917 H         1 <0>         0.0594
     38 H16        -3.6730   11.2459    4.0896 H         1 <0>         0.1073
     39 H17        -2.2607   11.5131    3.0396 H         1 <0>         0.0600
     40 H18        -3.8541   11.1791    2.3201 H         1 <0>         0.0599
@<TRIPOS>BOND
     1    1    2 1
     2    1   24 1
     3    1   25 1
     4    1   26 1
     5    2    7 ar
     6    2    3 ar
     7    3    4 ar
     8    3   22 1
     9    4    5 ar
    10    4   27 1
    11    5    6 ar
    12    5   20 1
    13    6   12 1
    14    6    7 ar
    15    7    8 1
    16    8    9 1
    17    9   10 1
    18    9   11 1
    19    9   14 1
    20   11   12 1
    21   11   28 1
    22   11   29 1
    23   12   13 2
    24   14   19 ar
    25   14   15 ar
    26   15   16 ar
    27   15   30 1
    28   16   17 ar
    29   16   31 1
    30   17   18 ar
    31   17   32 1
    32   18   19 ar
    33   18   33 1
    34   19   34 1
    35   20   21 1
    36   21   35 1
    37   21   36 1
    38   21   37 1
    39   22   23 1
    40   23   38 1
    41   23   39 1
    42   23   40 1
@<TRIPOS>MOLECULE
ZINC13334949
   40    42     0     0     0
SMALL
USER_CHARGES
(2S)-5,7-dimethoxy-8-methyl-2-phenyl-chroman-4-one
@<TRIPOS>ATOM
      1 C1          5.0198    2.5671   -2.9810 C.3       1 <0>        -0.0901
      2 C2          5.5566    1.7276   -1.8504 C.ar      1 <0>        -0.1952
      3 C3          6.8838    1.3168   -1.8625 C.ar      1 <0>         0.2330
      4 C4          7.3957    0.5428   -0.8287 C.ar      1 <0>        -0.3420
      5 C5          6.5820    0.1700    0.2266 C.ar      1 <0>         0.2527
      6 C6          5.2391    0.5777    0.2416 C.ar      1 <0>        -0.3168
      7 C7          4.7263    1.3684   -0.8038 C.ar      1 <0>         0.2500
      8 O1          3.4371    1.7816   -0.7916 O.3       1 <0>        -0.2909
      9 C8          2.4902    1.0476   -0.0156 C.3       1 <0>         0.1439
     10 H1          2.3489    0.0595   -0.4536 H         1 <0>         0.0910
     11 C9          3.0132    0.9014    1.4208 C.3       1 <0>        -0.1821
     12 C10         4.3504    0.1870    1.3415 C.2       1 <0>         0.4045
     13 O2          4.6678   -0.6641    2.1465 O.2       1 <0>        -0.4322
     14 C11         1.1750    1.7832    0.0004 C.ar      1 <0>        -0.0924
     15 C12        -0.0126    1.0758    0.0080 C.ar      1 <0>        -0.1025
     16 C13        -1.2190    1.7507    0.0173 C.ar      1 <0>        -0.1185
     17 C14        -1.2377    3.1328    0.0294 C.ar      1 <0>        -0.1106
     18 C15        -0.0501    3.8402    0.0223 C.ar      1 <0>        -0.1201
     19 C16         1.1563    3.1654    0.0081 C.ar      1 <0>        -0.0908
     20 O3          7.0785   -0.5835    1.2389 O.3       1 <0>        -0.2836
     21 C17         8.4544   -0.9597    1.1532 C.3       1 <0>         0.0208
     22 O4          7.6880    1.6749   -2.8948 O.3       1 <0>        -0.3000
     23 C18         9.0423    1.2212   -2.8497 C.3       1 <0>         0.0228
     24 H2          4.6218    1.9163   -3.7595 H         1 <0>         0.0651
     25 H3          4.2263    3.2145   -2.6078 H         1 <0>         0.0702
     26 H4          5.8231    3.1776   -3.3933 H         1 <0>         0.0687
     27 H5          8.4299    0.2321   -0.8484 H         1 <0>         0.1440
     28 H6          3.1178    1.8073    1.8312 H         1 <0>         0.1023
     29 H7          2.3124    0.3127    2.0128 H         1 <0>         0.1127
     30 H8          0.0021   -0.0041    0.0020 H         1 <0>         0.1262
     31 H9         -2.1469    1.1980    0.0188 H         1 <0>         0.1272
     32 H10        -2.1802    3.6600    0.0410 H         1 <0>         0.1249
     33 H11        -0.0647    4.9201    0.0283 H         1 <0>         0.1261
     34 H12         2.0841    3.7181    0.0025 H         1 <0>         0.1286
     35 H13         8.7223   -1.5583    2.0238 H         1 <0>         0.1073
     36 H14         8.6156   -1.5438    0.2471 H         1 <0>         0.0594
     37 H15         9.0748   -0.0640    1.1233 H         1 <0>         0.0590
     38 H16         9.5259    1.6094   -1.9533 H         1 <0>         0.0599
     39 H17         9.0599    0.1315   -2.8291 H         1 <0>         0.0600
     40 H18         9.5741    1.5765   -3.7323 H         1 <0>         0.1073
@<TRIPOS>BOND
     1    1    2 1
     2    1   24 1
     3    1   25 1
     4    1   26 1
     5    2    7 ar
     6    2    3 ar
     7    3    4 ar
     8    3   22 1
     9    4    5 ar
    10    4   27 1
    11    5    6 ar
    12    5   20 1
    13    6   12 1
    14    6    7 ar
    15    7    8 1
    16    8    9 1
    17    9   10 1
    18    9   11 1
    19    9   14 1
    20   11   12 1
    21   11   28 1
    22   11   29 1
    23   12   13 2
    24   14   19 ar
    25   14   15 ar
    26   15   16 ar
    27   15   30 1
    28   16   17 ar
    29   16   31 1
    30   17   18 ar
    31   17   32 1
    32   18   19 ar
    33   18   33 1
    34   19   34 1
    35   20   21 1
    36   21   35 1
    37   21   36 1
    38   21   37 1
    39   22   23 1
    40   23   38 1
    41   23   39 1
    42   23   40 1
@<TRIPOS>MOLECULE
ZINC66113544
   49    51     0     0     0
SMALL
USER_CHARGES

@<TRIPOS>ATOM
      1 C1         -0.1661    1.4911    0.0160 C.3       1 <0>        -0.1224
      2 C2         -0.0723   -0.0129    0.0072 C.2       1 <0>        -0.1299
      3 C3          0.1206   -0.6637    1.1276 C.2       1 <0>        -0.1602
      4 C4          0.1232    0.0784    2.4392 C.3       1 <0>        -0.0424
      5 C5         -0.8640   -0.5621    3.3807 C.ar      1 <0>        -0.1542
      6 C6         -2.1845   -0.1306    3.3981 C.ar      1 <0>         0.1986
      7 C7         -3.1082   -0.7095    4.2591 C.ar      1 <0>        -0.2159
      8 C8         -2.7175   -1.7256    5.1133 C.ar      1 <0>         0.2164
      9 C9         -1.3839   -2.1629    5.1030 C.ar      1 <0>        -0.2886
     10 C10        -0.4538   -1.5817    4.2208 C.ar      1 <0>         0.2138
     11 O1          0.8299   -2.0100    4.1873 O.3       1 <0>        -0.2930
     12 C11         1.3580   -2.6818    5.3308 C.3       1 <0>         0.1495
     13 H1          1.4326   -1.9809    6.1622 H         1 <0>         0.0903
     14 C12         0.4243   -3.8380    5.7175 C.3       1 <0>        -0.1926
     15 C13        -0.9391   -3.2302    6.0059 C.2       1 <0>         0.3986
     16 O2         -1.6293   -3.6156    6.9270 O.2       1 <0>        -0.4248
     17 C14         2.7257   -3.2258    5.0074 C.ar      1 <0>        -0.1140
     18 C15         2.9991   -3.6928    3.7352 C.ar      1 <0>        -0.0555
     19 C16         4.2521   -4.1928    3.4335 C.ar      1 <0>        -0.1957
     20 C17         5.2375   -4.2263    4.4072 C.ar      1 <0>         0.1142
     21 C18         4.9624   -3.7558    5.6875 C.ar      1 <0>         0.0769
     22 C19         3.7058   -3.2515    5.9819 C.ar      1 <0>        -0.0884
     23 O3          5.9262   -3.7865    6.6465 O.3       1 <0>        -0.4837
     24 O4          6.4705   -4.7182    4.1122 O.3       1 <0>        -0.3058
     25 C20         6.6809   -5.1841    2.7777 C.3       1 <0>         0.0233
     26 O5         -3.6165   -2.2944    5.9544 O.3       1 <0>        -0.4759
     27 O6         -2.5758    0.8669    2.5658 O.3       1 <0>        -0.4858
     28 C21        -0.2003   -0.7683   -1.2906 C.3       1 <0>        -0.1188
     29 H2          0.7221    1.9078    0.4908 H         1 <0>         0.0657
     30 H3         -0.2358    1.8568   -1.0085 H         1 <0>         0.0599
     31 H4         -1.0525    1.7966    0.5719 H         1 <0>         0.0718
     32 H5          0.2778   -1.7321    1.1113 H         1 <0>         0.1077
     33 H6          1.1206    0.0392    2.8769 H         1 <0>         0.0858
     34 H7         -0.1585    1.1176    2.2692 H         1 <0>         0.0893
     35 H8         -4.1323   -0.3664    4.2617 H         1 <0>         0.1455
     36 H9          0.3547   -4.5499    4.8950 H         1 <0>         0.1158
     37 H10         0.8012   -4.3368    6.6104 H         1 <0>         0.1147
     38 H11         2.2319   -3.6673    2.9754 H         1 <0>         0.1347
     39 H12         4.4629   -4.5577    2.4391 H         1 <0>         0.1368
     40 H13         3.4909   -2.8822    6.9738 H         1 <0>         0.1405
     41 H14         6.4695   -2.9875    6.6838 H         1 <0>         0.3893
     42 H15         5.9833   -5.9931    2.5611 H         1 <0>         0.0578
     43 H16         6.5169   -4.3654    2.0770 H         1 <0>         0.0576
     44 H17         7.7031   -5.5490    2.6772 H         1 <0>         0.1037
     45 H18        -4.0782   -3.0568    5.5795 H         1 <0>         0.3994
     46 H19        -2.8924    0.5596    1.7052 H         1 <0>         0.3994
     47 H20        -0.3555   -0.0635   -2.1074 H         1 <0>         0.0620
     48 H21         0.7112   -1.3382   -1.4707 H         1 <0>         0.0641
     49 H22        -1.0492   -1.4495   -1.2322 H         1 <0>         0.0643
@<TRIPOS>BOND
     1    1    2 1
     2    1   29 1
     3    1   30 1
     4    1   31 1
     5    2    3 2
     6    2   28 1
     7    3    4 1
     8    3   32 1
     9    4    5 1
    10    4   33 1
    11    4   34 1
    12    5   10 ar
    13    5    6 ar
    14    6    7 ar
    15    6   27 1
    16    7    8 ar
    17    7   35 1
    18    8    9 ar
    19    8   26 1
    20    9   15 1
    21    9   10 ar
    22   10   11 1
    23   11   12 1
    24   12   13 1
    25   12   14 1
    26   12   17 1
    27   14   15 1
    28   14   36 1
    29   14   37 1
    30   15   16 2
    31   17   22 ar
    32   17   18 ar
    33   18   19 ar
    34   18   38 1
    35   19   20 ar
    36   19   39 1
    37   20   21 ar
    38   20   24 1
    39   21   22 ar
    40   21   23 1
    41   22   40 1
    42   23   41 1
    43   24   25 1
    44   25   42 1
    45   25   43 1
    46   25   44 1
    47   26   45 1
    48   27   46 1
    49   28   47 1
    50   28   48 1
    51   28   49 1
@<TRIPOS>MOLECULE
ZINC14727551
   59    61     0     0     0
SMALL
USER_CHARGES
(2S)-2-(3,5-dihydroxyphenyl)-5,7-dihydroxy-6,8-bis(3-methylbut-2-enyl)chroman-4-one
@<TRIPOS>ATOM
      1 C1         -5.4263    8.5297   -3.1140 C.3       1 <0>        -0.1241
      2 C2         -5.0676    7.0686   -3.2009 C.2       1 <0>        -0.1244
      3 C3         -3.8103    6.7011   -3.1913 C.2       1 <0>        -0.1672
      4 C4         -2.7261    7.7295   -2.9962 C.3       1 <0>        -0.0461
      5 C5         -1.8302    7.3058   -1.8609 C.ar      1 <0>        -0.1674
      6 C6         -2.1201    7.7047   -0.5618 C.ar      1 <0>         0.1990
      7 C7         -1.3029    7.3253    0.4952 C.ar      1 <0>        -0.1482
      8 C8         -0.1858    6.5417    0.2651 C.ar      1 <0>         0.2101
      9 C9          0.1071    6.1296   -1.0481 C.ar      1 <0>        -0.2869
     10 C10        -0.7197    6.5205   -2.1131 C.ar      1 <0>         0.2163
     11 O1         -0.4321    6.1307   -3.3798 O.3       1 <0>        -0.4749
     12 C11         1.2843    5.2868   -1.2846 C.2       1 <0>         0.4031
     13 O2          1.4638    4.7248   -2.3453 O.2       1 <0>        -0.4308
     14 C12         2.2669    5.1540   -0.1349 C.3       1 <0>        -0.1830
     15 C13         1.4443    5.0327    1.1562 C.3       1 <0>         0.1466
     16 H1          0.8203    4.1403    1.1074 H         1 <0>         0.0925
     17 O3          0.6141    6.1853    1.2975 O.3       1 <0>        -0.2914
     18 C14         2.3745    4.9328    2.3376 C.ar      1 <0>        -0.0563
     19 C15         2.8789    6.0812    2.9173 C.ar      1 <0>        -0.1261
     20 C16         3.7312    5.9920    4.0089 C.ar      1 <0>         0.1267
     21 C17         4.0850    4.7491    4.5109 C.ar      1 <0>        -0.1636
     22 C18         3.5820    3.5982    3.9240 C.ar      1 <0>         0.1278
     23 C19         2.7260    3.6929    2.8358 C.ar      1 <0>        -0.1381
     24 O4          3.9266    2.3785    4.4141 O.3       1 <0>        -0.4938
     25 O5          4.2229    7.1219    4.5818 O.3       1 <0>        -0.4935
     26 C20        -1.6339    7.7683    1.8971 C.3       1 <0>        -0.0440
     27 C21        -2.5273    6.7450    2.5495 C.2       1 <0>        -0.1676
     28 C22        -2.1646    6.1813    3.6751 C.2       1 <0>        -0.1176
     29 C23        -0.8110    6.4809    4.2659 C.3       1 <0>        -0.1269
     30 C24        -3.1010    5.2333    4.3790 C.3       1 <0>        -0.1195
     31 O6         -3.2130    8.4725   -0.3234 O.3       1 <0>        -0.4814
     32 C25        -6.1554    6.0302   -3.2990 C.3       1 <0>        -0.1200
     33 H2         -5.0319    9.0531   -3.9850 H         1 <0>         0.0669
     34 H3         -6.5107    8.6366   -3.0861 H         1 <0>         0.0603
     35 H4         -4.9957    8.9563   -2.2081 H         1 <0>         0.0735
     36 H5         -3.5507    5.6611   -3.3231 H         1 <0>         0.1047
     37 H6         -3.1777    8.6936   -2.7623 H         1 <0>         0.0910
     38 H7         -2.1384    7.8157   -3.9102 H         1 <0>         0.0876
     39 H8         -0.8376    5.2906   -3.6345 H         1 <0>         0.3997
     40 H9          2.8331    4.3413   -0.2726 H         1 <0>         0.1022
     41 H10         2.9041    6.0371   -0.0874 H         1 <0>         0.1158
     42 H11         2.6062    7.0491    2.5234 H         1 <0>         0.1390
     43 H12         4.7510    4.6775    5.3581 H         1 <0>         0.1385
     44 H13         2.3339    2.7966    2.3782 H         1 <0>         0.1356
     45 H14         4.7194    2.0014    4.0086 H         1 <0>         0.3953
     46 H15         5.0581    7.4250    4.2001 H         1 <0>         0.3950
     47 H16        -0.7140    7.8677    2.4734 H         1 <0>         0.0899
     48 H17        -2.1468    8.7294    1.8629 H         1 <0>         0.0888
     49 H18        -3.4666    6.4763    2.0892 H         1 <0>         0.1038
     50 H19        -0.8671    7.3943    4.8580 H         1 <0>         0.0644
     51 H20        -0.5017    5.6529    4.9037 H         1 <0>         0.0581
     52 H21        -0.0853    6.6121    3.4634 H         1 <0>         0.0805
     53 H22        -3.3265    4.3919    3.7238 H         1 <0>         0.0631
     54 H23        -2.6296    4.8674    5.2912 H         1 <0>         0.0615
     55 H24        -4.0242    5.7549    4.6313 H         1 <0>         0.0654
     56 H25        -4.0164    7.9667   -0.1392 H         1 <0>         0.3973
     57 H26        -6.0864    5.3504   -2.4498 H         1 <0>         0.0646
     58 H27        -7.1284    6.5216   -3.2928 H         1 <0>         0.0628
     59 H28        -6.0384    5.4677   -4.2253 H         1 <0>         0.0650
@<TRIPOS>BOND
     1    1    2 1
     2    1   33 1
     3    1   34 1
     4    1   35 1
     5    2    3 2
     6    2   32 1
     7    3    4 1
     8    3   36 1
     9    4    5 1
    10    4   37 1
    11    4   38 1
    12    5   10 ar
    13    5    6 ar
    14    6    7 ar
    15    6   31 1
    16    7    8 ar
    17    7   26 1
    18    8   17 1
    19    8    9 ar
    20    9   10 ar
    21    9   12 1
    22   10   11 1
    23   11   39 1
    24   12   13 2
    25   12   14 1
    26   14   15 1
    27   14   40 1
    28   14   41 1
    29   15   16 1
    30   15   17 1
    31   15   18 1
    32   18   23 ar
    33   18   19 ar
    34   19   20 ar
    35   19   42 1
    36   20   21 ar
    37   20   25 1
    38   21   22 ar
    39   21   43 1
    40   22   23 ar
    41   22   24 1
    42   23   44 1
    43   24   45 1
    44   25   46 1
    45   26   27 1
    46   26   47 1
    47   26   48 1
    48   27   28 2
    49   27   49 1
    50   28   29 1
    51   28   30 1
    52   29   50 1
    53   29   51 1
    54   29   52 1
    55   30   53 1
    56   30   54 1
    57   30   55 1
    58   31   56 1
    59   32   57 1
    60   32   58 1
    61   32   59 1
@<TRIPOS>MOLECULE
ZINC01531698
   47    49     0     0     0
SMALL
USER_CHARGES

@<TRIPOS>ATOM
      1 C1         -0.0173    1.4248    0.0099 C.3       1 <0>         0.0218
      2 O1          0.0021   -0.0041    0.0020 O.3       1 <0>        -0.2998
      3 C2          0.6056   -0.6069   -1.0553 C.ar      1 <0>         0.1305
      4 C3          1.1722    0.1640   -2.0610 C.ar      1 <0>        -0.1772
      5 C4          1.7860   -0.4424   -3.1356 C.ar      1 <0>        -0.0694
      6 C5          1.8390   -1.8367   -3.2145 C.ar      1 <0>        -0.0738
      7 C6          1.2684   -2.6128   -2.2018 C.ar      1 <0>        -0.1353
      8 C7          0.6594   -1.9980   -1.1248 C.ar      1 <0>         0.0971
      9 O2          0.1077   -2.7501   -0.1351 O.3       1 <0>        -0.3021
     10 C8          0.1995   -4.1696   -0.2712 C.3       1 <0>         0.0230
     11 C9          2.4951   -2.4878   -4.3640 C.2       1 <0>         0.2101
     12 C10         3.0460   -1.7062   -5.3317 C.2       1 <0>        -0.3089
     13 C11         3.6800   -2.3125   -6.4415 C.2       1 <0>         0.4250
     14 O3          4.1849   -1.6420   -7.3276 O.2       1 <0>        -0.4520
     15 C12         3.7074   -3.7845   -6.4859 C.ar      1 <0>        -0.2732
     16 C13         3.1081   -4.4984   -5.4334 C.ar      1 <0>         0.2005
     17 O4          2.5306   -3.8287   -4.4126 O.3       1 <0>        -0.2188
     18 C14         3.1218   -5.8842   -5.4539 C.ar      1 <0>        -0.2351
     19 C15         3.7233   -6.5575   -6.5055 C.ar      1 <0>         0.1891
     20 C16         4.3184   -5.8538   -7.5506 C.ar      1 <0>         0.0152
     21 C17         4.3139   -4.4679   -7.5462 C.ar      1 <0>         0.2099
     22 O5          4.8933   -3.7783   -8.5629 O.3       1 <0>        -0.3120
     23 C18         6.2758   -3.4473   -8.4172 C.3       1 <0>         0.0502
     24 O6          4.9060   -6.5285   -8.5769 O.3       1 <0>        -0.3121
     25 C19         4.0802   -6.8525   -9.6973 C.3       1 <0>         0.0342
     26 O7          3.7330   -7.9158   -6.5173 O.3       1 <0>        -0.2901
     27 C20         3.1068   -8.5786   -5.4170 C.3       1 <0>         0.0174
     28 H1          1.0053    1.8021    0.0021 H         1 <0>         0.0596
     29 H2         -0.5445    1.7859   -0.8732 H         1 <0>         0.0596
     30 H3         -0.5275    1.7763    0.9067 H         1 <0>         0.1053
     31 H4          1.1316    1.2416   -2.0014 H         1 <0>         0.1481
     32 H5          2.2258    0.1597   -3.9169 H         1 <0>         0.1426
     33 H6          1.3072   -3.6906   -2.2589 H         1 <0>         0.1474
     34 H7         -0.3012   -4.4798   -1.1884 H         1 <0>         0.0570
     35 H8          1.2483   -4.4636   -0.3125 H         1 <0>         0.0571
     36 H9         -0.2787   -4.6482    0.5834 H         1 <0>         0.1048
     37 H10         2.9993   -0.6300   -5.2533 H         1 <0>         0.1644
     38 H11         2.6636   -6.4401   -4.6493 H         1 <0>         0.1567
     39 H12         6.4097   -2.8285   -7.5299 H         1 <0>         0.0494
     40 H13         6.8595   -4.3620   -8.3137 H         1 <0>         0.0517
     41 H14         6.6128   -2.8988   -9.2968 H         1 <0>         0.1009
     42 H15         3.2527   -7.4814   -9.3690 H         1 <0>         0.0469
     43 H16         3.6875   -5.9354  -10.1365 H         1 <0>         0.0505
     44 H17         4.6705   -7.3877  -10.4410 H         1 <0>         0.0973
     45 H18         2.0557   -8.2937   -5.3717 H         1 <0>         0.0628
     46 H19         3.1854   -9.6576   -5.5504 H         1 <0>         0.1097
     47 H20         3.6018   -8.2902   -4.4897 H         1 <0>         0.0637
@<TRIPOS>BOND
     1    1    2 1
     2    1   28 1
     3    1   29 1
     4    1   30 1
     5    2    3 1
     6    3    8 ar
     7    3    4 ar
     8    4    5 ar
     9    4   31 1
    10    5    6 ar
    11    5   32 1
    12    6    7 ar
    13    6   11 1
    14    7    8 ar
    15    7   33 1
    16    8    9 1
    17    9   10 1
    18   10   34 1
    19   10   35 1
    20   10   36 1
    21   11   17 1
    22   11   12 2
    23   12   13 1
    24   12   37 1
    25   13   14 2
    26   13   15 1
    27   15   21 ar
    28   15   16 ar
    29   16   17 1
    30   16   18 ar
    31   18   19 ar
    32   18   38 1
    33   19   20 ar
    34   19   26 1
    35   20   21 ar
    36   20   24 1
    37   21   22 1
    38   22   23 1
    39   23   39 1
    40   23   40 1
    41   23   41 1
    42   24   25 1
    43   25   42 1
    44   25   43 1
    45   25   44 1
    46   26   27 1
    47   27   45 1
    48   27   46 1
    49   27   47 1
@<TRIPOS>MOLECULE
ZINC28713699
   52    55     0     0     0
SMALL
USER_CHARGES
6-methoxy-N-[2-(4-methoxyphenyl)ethyl]-9-oxo-10H-acridine-4-carboxamide
@<TRIPOS>ATOM
      1 C1          7.8167    3.9437   -1.2899 C.3       1 <0>         0.0229
      2 O1          7.2628    3.6195   -0.0131 O.3       1 <0>        -0.3173
      3 C2          6.0954    2.9238   -0.0057 C.ar      1 <0>         0.1284
      4 C3          5.5018    2.5755    1.1989 C.ar      1 <0>        -0.1500
      5 C4          4.3149    1.8686    1.2037 C.ar      1 <0>        -0.0721
      6 C5          3.7187    1.5082    0.0094 C.ar      1 <0>        -0.1240
      7 C6          4.3112    1.8492   -1.1924 C.ar      1 <0>        -0.0717
      8 C7          5.4952    2.5609   -1.2027 C.ar      1 <0>        -0.2065
      9 C8          2.4239    0.7371    0.0176 C.3       1 <0>        -0.0865
     10 C9          1.2476    1.7155    0.0149 C.3       1 <0>         0.1232
     11 N1         -0.0111    0.9658    0.0229 N.am      1 <0>        -0.7286
     12 C10        -1.1873    1.6238    0.0165 C.2       1 <0>         0.5793
     13 O2         -1.2038    2.8396    0.0092 O.2       1 <0>        -0.5512
     14 C11        -2.4542    0.8692    0.0184 C.ar      1 <0>        -0.2182
     15 C12        -2.4419   -0.5197   -0.1000 C.ar      1 <0>        -0.0097
     16 C13        -3.6246   -1.2353   -0.0914 C.ar      1 <0>        -0.1832
     17 C14        -4.8359   -0.5838    0.0202 C.ar      1 <0>         0.0134
     18 C15        -4.8735    0.8067    0.1333 C.ar      1 <0>        -0.2292
     19 C16        -3.6810    1.5485    0.1340 C.ar      1 <0>         0.2898
     20 N2         -3.7006    2.9159    0.2447 N.pl3     1 <0>        -0.6283
     21 H1         -2.7571    3.4814    0.2435 H         1 <0>         0.4573
     22 C17        -4.8715    3.6347    0.3602 C.ar      1 <0>         0.2580
     23 C18        -4.8302    5.0210    0.4690 C.ar      1 <0>        -0.2197
     24 C19        -6.0077    5.7389    0.5834 C.ar      1 <0>         0.1986
     25 C20        -7.2386    5.0848    0.5917 C.ar      1 <0>        -0.2511
     26 C21        -7.2978    3.7255    0.4864 C.ar      1 <0>         0.0179
     27 C22        -6.1185    2.9843    0.3696 C.ar      1 <0>        -0.2548
     28 C23        -6.1607    1.5170    0.2543 C.2       1 <0>         0.4418
     29 O3         -7.2181    0.9128    0.2577 O.2       1 <0>        -0.4731
     30 O4         -5.9637    7.0913    0.6889 O.3       1 <0>        -0.3103
     31 C24        -7.2137    7.7741    0.8045 C.3       1 <0>         0.0205
     32 H2          8.7539    4.5029   -1.1517 H         1 <0>         0.1033
     33 H3          7.1015    4.5604   -1.8539 H         1 <0>         0.0573
     34 H4          8.0211    3.0174   -1.8468 H         1 <0>         0.0572
     35 H5          5.9673    2.8565    2.1320 H         1 <0>         0.1321
     36 H6          3.8521    1.5976    2.1411 H         1 <0>         0.1301
     37 H7          3.8460    1.5624   -2.1239 H         1 <0>         0.1253
     38 H8          5.9554    2.8309   -2.1417 H         1 <0>         0.1292
     39 H9          2.3718    0.0986   -0.8766 H         1 <0>         0.0805
     40 H10         2.3767    0.1094    0.9197 H         1 <0>         0.0815
     41 H11         1.2998    2.3541    0.9091 H         1 <0>         0.0733
     42 H12         1.2948    2.3432   -0.8872 H         1 <0>         0.0727
     43 H13         0.0039   -0.1340    0.0341 H         1 <0>         0.4248
     44 H14        -1.5007   -1.0411   -0.1936 H         1 <0>         0.1339
     45 H15        -3.6008   -2.3115   -0.1787 H         1 <0>         0.1390
     46 H16        -5.7554   -1.1503    0.0205 H         1 <0>         0.1440
     47 H17        -3.8810    5.5360    0.4639 H         1 <0>         0.1420
     48 H18        -8.1503    5.6569    0.6816 H         1 <0>         0.1373
     49 H19        -8.2539    3.2233    0.4936 H         1 <0>         0.1417
     50 H20        -7.0344    8.8566    0.8819 H         1 <0>         0.1059
     51 H21        -7.7406    7.4244    1.7046 H         1 <0>         0.0617
     52 H22        -7.8282    7.5668   -0.0840 H         1 <0>         0.0617
@<TRIPOS>BOND
     1    1    2 1
     2    1   32 1
     3    1   33 1
     4    1   34 1
     5    2    3 1
     6    3    8 ar
     7    3    4 ar
     8    4    5 ar
     9    4   35 1
    10    5    6 ar
    11    5   36 1
    12    6    7 ar
    13    6    9 1
    14    7    8 ar
    15    7   37 1
    16    8   38 1
    17    9   10 1
    18    9   39 1
    19    9   40 1
    20   10   11 1
    21   10   41 1
    22   10   42 1
    23   11   12 am
    24   11   43 1
    25   12   13 2
    26   12   14 1
    27   14   19 ar
    28   14   15 ar
    29   15   16 ar
    30   15   44 1
    31   16   17 ar
    32   16   45 1
    33   17   18 ar
    34   17   46 1
    35   18   28 1
    36   18   19 ar
    37   19   20 1
    38   20   21 1
    39   20   22 1
    40   22   27 ar
    41   22   23 ar
    42   23   24 ar
    43   23   47 1
    44   24   25 ar
    45   24   30 1
    46   25   26 ar
    47   25   48 1
    48   26   27 ar
    49   26   49 1
    50   27   28 1
    51   28   29 2
    52   30   31 1
    53   31   50 1
    54   31   51 1
    55   31   52 1
@<TRIPOS>MOLECULE
ZINC04430221
   28    30     0     0     0
SMALL
USER_CHARGES

@<TRIPOS>ATOM
      1 C1         -0.0173    1.4248    0.0099 C.3       1 <0>         0.0216
      2 O1          0.0021   -0.0041    0.0020 O.3       1 <0>        -0.2864
      3 C2          0.6048   -0.6061   -1.0540 C.ar      1 <0>         0.2204
      4 C3          1.1724    0.1558   -2.0613 C.ar      1 <0>        -0.2612
      5 C4          1.7850   -0.4598   -3.1399 C.ar      1 <0>        -0.0087
      6 C5          1.8397   -1.8352   -3.2317 C.ar      1 <0>        -0.2217
      7 C6          1.2772   -2.6245   -2.2340 C.ar      1 <0>         0.2561
      8 C7          0.6631   -2.0034   -1.1313 C.ar      1 <0>        -0.2467
      9 C8          0.0880   -2.8466   -0.0698 C.2       1 <0>         0.4377
     10 O2         -0.6483   -2.3840    0.7829 O.2       1 <0>        -0.4478
     11 C9          0.4452   -4.2788   -0.0874 C.ar      1 <0>        -0.2048
     12 C10         0.1732   -5.1004    1.0068 C.ar      1 <0>        -0.0265
     13 C11         0.5225   -6.4319    0.9615 C.ar      1 <0>        -0.1632
     14 C12         1.1413   -6.9553   -0.1651 C.ar      1 <0>        -0.0528
     15 C13         1.4146   -6.1561   -1.2533 C.ar      1 <0>        -0.1786
     16 C14         1.0693   -4.8073   -1.2304 C.ar      1 <0>         0.2125
     17 N1          1.3250   -4.0010   -2.3238 N.pl3     1 <0>        -0.6373
     18 H1          1.5531   -4.4114   -3.1726 H         1 <0>         0.4198
     19 H2          1.0053    1.8021    0.0021 H         1 <0>         0.0592
     20 H3         -0.5445    1.7859   -0.8732 H         1 <0>         0.0598
     21 H4         -0.5275    1.7763    0.9067 H         1 <0>         0.1052
     22 H5          1.1370    1.2338   -2.0057 H         1 <0>         0.1367
     23 H6          2.2258    0.1445   -3.9190 H         1 <0>         0.1355
     24 H7          2.3199   -2.3000   -4.0801 H         1 <0>         0.1345
     25 H8         -0.3087   -4.6949    1.8841 H         1 <0>         0.1385
     26 H9          0.3136   -7.0715    1.8063 H         1 <0>         0.1321
     27 H10         1.4119   -8.0006   -0.1887 H         1 <0>         0.1329
     28 H11         1.8963   -6.5757   -2.1242 H         1 <0>         0.1332
@<TRIPOS>BOND
     1    1    2 1
     2    1   19 1
     3    1   20 1
     4    1   21 1
     5    2    3 1
     6    3    8 ar
     7    3    4 ar
     8    4    5 ar
     9    4   22 1
    10    5    6 ar
    11    5   23 1
    12    6    7 ar
    13    6   24 1
    14    7   17 1
    15    7    8 ar
    16    8    9 1
    17    9   10 2
    18    9   11 1
    19   11   16 ar
    20   11   12 ar
    21   12   13 ar
    22   12   25 1
    23   13   14 ar
    24   13   26 1
    25   14   15 ar
    26   14   27 1
    27   15   16 ar
    28   15   28 1
    29   16   17 1
    30   17   18 1
@<TRIPOS>MOLECULE
ZINC05086426
   32    34     0     0     0
SMALL
USER_CHARGES
1,3-dimethoxy-10H-acridin-9-one
@<TRIPOS>ATOM
      1 C1         -8.4213    1.4661    0.0937 C.3       1 <0>         0.0237
      2 O1         -7.1737    0.7694    0.0781 O.3       1 <0>        -0.3070
      3 C2         -6.0462    1.5249    0.0709 C.ar      1 <0>         0.2370
      4 C3         -4.8065    0.9065    0.0557 C.ar      1 <0>        -0.2611
      5 C4         -3.6453    1.6697    0.0477 C.ar      1 <0>         0.2964
      6 C5         -3.7450    3.0736    0.0558 C.ar      1 <0>        -0.2805
      7 C6         -5.0052    3.6907    0.0712 C.ar      1 <0>         0.2603
      8 C7         -6.1468    2.9122    0.0784 C.ar      1 <0>        -0.3503
      9 O2         -5.1022    5.0440    0.0794 O.3       1 <0>        -0.2786
     10 C8         -6.4185    5.6000    0.0950 C.3       1 <0>         0.0201
     11 C9         -2.5161    3.8792    0.0474 C.2       1 <0>         0.4387
     12 O3         -2.5592    5.0966    0.0544 O.2       1 <0>        -0.4550
     13 C10        -1.2284    3.1597    0.0308 C.ar      1 <0>        -0.2050
     14 C11        -0.0208    3.8601    0.0225 C.ar      1 <0>        -0.0251
     15 C12         1.1693    3.1677    0.0074 C.ar      1 <0>        -0.1649
     16 C13         1.1710    1.7800    0.0004 C.ar      1 <0>        -0.0514
     17 C14        -0.0126    1.0758    0.0080 C.ar      1 <0>        -0.1811
     18 C15        -1.2291    1.7555    0.0174 C.ar      1 <0>         0.2151
     19 N1         -2.4136    1.0495    0.0317 N.pl3     1 <0>        -0.6306
     20 H1         -2.3781    0.0501    0.0304 H         1 <0>         0.4258
     21 H2         -8.4793    2.0873    0.9875 H         1 <0>         0.0601
     22 H3         -8.4967    2.0963   -0.7924 H         1 <0>         0.0601
     23 H4         -9.2395    0.7460    0.0981 H         1 <0>         0.1061
     24 H5         -4.7424   -0.1716    0.0496 H         1 <0>         0.1426
     25 H6         -7.1193    3.3818    0.0903 H         1 <0>         0.1427
     26 H7         -6.9616    5.2728   -0.7915 H         1 <0>         0.0587
     27 H8         -6.9446    5.2633    0.9883 H         1 <0>         0.0587
     28 H9         -6.3533    6.6881    0.1003 H         1 <0>         0.1072
     29 H10        -0.0200    4.9401    0.0283 H         1 <0>         0.1391
     30 H11         2.1052    3.7067    0.0007 H         1 <0>         0.1318
     31 H12         2.1101    1.2467   -0.0114 H         1 <0>         0.1328
     32 H13         0.0021   -0.0041    0.0020 H         1 <0>         0.1336
@<TRIPOS>BOND
     1    1    2 1
     2    1   21 1
     3    1   22 1
     4    1   23 1
     5    2    3 1
     6    3    8 ar
     7    3    4 ar
     8    4    5 ar
     9    4   24 1
    10    5   19 1
    11    5    6 ar
    12    6    7 ar
    13    6   11 1
    14    7    8 ar
    15    7    9 1
    16    8   25 1
    17    9   10 1
    18   10   26 1
    19   10   27 1
    20   10   28 1
    21   11   12 2
    22   11   13 1
    23   13   18 ar
    24   13   14 ar
    25   14   15 ar
    26   14   29 1
    27   15   16 ar
    28   15   30 1
    29   16   17 ar
    30   16   31 1
    31   17   18 ar
    32   17   32 1
    33   18   19 1
    34   19   20 1
@<TRIPOS>MOLECULE
ZINC00391894
   34    36     0     0     0
SMALL
USER_CHARGES

@<TRIPOS>ATOM
      1 C1         -0.0173    1.4248    0.0099 C.3       1 <0>         0.0224
      2 O1          0.0021   -0.0041    0.0020 O.3       1 <0>        -0.3043
      3 C2          0.6248   -0.6173    1.0397 C.ar      1 <0>         0.2156
      4 C3          1.1994    0.1488    2.0467 C.ar      1 <0>        -0.2837
      5 C4          1.8389   -0.4678    3.1071 C.ar      1 <0>         0.2446
      6 C5          1.9026   -1.8694    3.1558 C.ar      1 <0>        -0.3186
      7 C6          1.3132   -2.6417    2.1379 C.ar      1 <0>         0.2351
      8 C7          0.6763   -2.0045    1.0876 C.ar      1 <0>        -0.2080
      9 O2          1.3547   -3.9941    2.1828 O.3       1 <0>        -0.2961
     10 C8          2.3745   -4.6229    2.9588 C.3       1 <0>         0.1458
     11 H1          3.3463   -4.4368    2.5015 H         1 <0>         0.0906
     12 C9          2.3589   -4.0462    4.3819 C.3       1 <0>        -0.1922
     13 C10         2.5845   -2.5496    4.2623 C.2       1 <0>         0.4013
     14 O3          3.2931   -1.9469    5.0420 O.2       1 <0>        -0.4310
     15 C11         2.1209   -6.1074    3.0143 C.ar      1 <0>        -0.0931
     16 C12         0.8246   -6.5863    3.0479 C.ar      1 <0>        -0.0911
     17 C13         0.5919   -7.9479    3.0989 C.ar      1 <0>        -0.1202
     18 C14         1.6555   -8.8307    3.1156 C.ar      1 <0>        -0.1102
     19 C15         2.9518   -8.3518    3.0810 C.ar      1 <0>        -0.1183
     20 C16         3.1844   -6.9903    3.0258 C.ar      1 <0>        -0.1026
     21 O4          2.4005    0.2762    4.0921 O.3       1 <0>        -0.4775
     22 H2          1.0053    1.8021    0.0021 H         1 <0>         0.0624
     23 H3         -0.5445    1.7859   -0.8732 H         1 <0>         0.1075
     24 H4         -0.5275    1.7763    0.9067 H         1 <0>         0.0618
     25 H5          1.1470    1.2265    2.0011 H         1 <0>         0.1452
     26 H6          0.2215   -2.5875    0.3004 H         1 <0>         0.1505
     27 H7          1.3939   -4.2398    4.8503 H         1 <0>         0.1150
     28 H8          3.1565   -4.4958    4.9734 H         1 <0>         0.1141
     29 H9         -0.0064   -5.8966    3.0348 H         1 <0>         0.1287
     30 H10        -0.4209   -8.3221    3.1259 H         1 <0>         0.1264
     31 H11         1.4738   -9.8945    3.1561 H         1 <0>         0.1253
     32 H12         3.7828   -9.0415    3.0945 H         1 <0>         0.1275
     33 H13         4.1971   -6.6163    2.9950 H         1 <0>         0.1261
     34 H14         1.8023    0.4732    4.8258 H         1 <0>         0.4010
@<TRIPOS>BOND
     1    1    2 1
     2    1   22 1
     3    1   23 1
     4    1   24 1
     5    2    3 1
     6    3    8 ar
     7    3    4 ar
     8    4    5 ar
     9    4   25 1
    10    5    6 ar
    11    5   21 1
    12    6   13 1
    13    6    7 ar
    14    7    8 ar
    15    7    9 1
    16    8   26 1
    17    9   10 1
    18   10   11 1
    19   10   12 1
    20   10   15 1
    21   12   13 1
    22   12   27 1
    23   12   28 1
    24   13   14 2
    25   15   20 ar
    26   15   16 ar
    27   16   17 ar
    28   16   29 1
    29   17   18 ar
    30   17   30 1
    31   18   19 ar
    32   18   31 1
    33   19   20 ar
    34   19   32 1
    35   20   33 1
    36   21   34 1
@<TRIPOS>MOLECULE
ZINC00407231
   35    37     0     0     0
SMALL
USER_CHARGES

@<TRIPOS>ATOM
      1 C1         -0.0173    1.4248    0.0099 C.3       1 <0>         0.0226
      2 O1          0.0021   -0.0041    0.0020 O.3       1 <0>        -0.3023
      3 C2         -1.1989   -0.6368    0.0101 C.ar      1 <0>         0.2313
      4 C3         -1.2448   -2.0225    0.0089 C.ar      1 <0>        -0.2170
      5 C4         -2.4669   -2.6762    0.0175 C.ar      1 <0>         0.2254
      6 C5         -3.6536   -1.9223    0.0274 C.ar      1 <0>        -0.2940
      7 C6         -4.9402   -2.6384    0.0364 C.2       1 <0>         0.4259
      8 O2         -6.0012   -2.0358    0.0449 O.2       1 <0>        -0.4557
      9 C7         -4.8977   -4.0542    0.0343 C.2       1 <0>        -0.3044
     10 C8         -3.6960   -4.6884    0.0245 C.2       1 <0>         0.2007
     11 O3         -2.5294   -4.0245    0.0160 O.3       1 <0>        -0.2155
     12 C9         -3.6725   -6.1650    0.0224 C.ar      1 <0>        -0.0717
     13 C10        -4.8688   -6.8856    0.0248 C.ar      1 <0>        -0.0813
     14 C11        -4.8395   -8.2646    0.0224 C.ar      1 <0>        -0.1208
     15 C12        -3.6286   -8.9341    0.0177 C.ar      1 <0>        -0.0946
     16 C13        -2.4394   -8.2265    0.0158 C.ar      1 <0>        -0.1229
     17 C14        -2.4540   -6.8472    0.0124 C.ar      1 <0>        -0.0802
     18 C15        -3.5998   -0.5230    0.0282 C.ar      1 <0>         0.2551
     19 C16        -2.3710    0.1112    0.0253 C.ar      1 <0>        -0.3333
     20 O4         -4.7450    0.2052    0.0375 O.3       1 <0>        -0.2764
     21 C17        -4.6092    1.6278    0.0377 C.3       1 <0>         0.0188
     22 H1          1.0053    1.8021    0.0021 H         1 <0>         0.1088
     23 H2         -0.5445    1.7859   -0.8732 H         1 <0>         0.0612
     24 H3         -0.5275    1.7763    0.9067 H         1 <0>         0.0612
     25 H4         -0.3278   -2.5929    0.0008 H         1 <0>         0.1538
     26 H5         -5.8141   -4.6257    0.0409 H         1 <0>         0.1624
     27 H6         -5.8146   -6.3643    0.0288 H         1 <0>         0.1359
     28 H7         -5.7639   -8.8231    0.0245 H         1 <0>         0.1339
     29 H8         -3.6114  -10.0140    0.0159 H         1 <0>         0.1300
     30 H9         -1.4978   -8.7554    0.0129 H         1 <0>         0.1320
     31 H10        -1.5252   -6.2961    0.0064 H         1 <0>         0.1354
     32 H11        -2.3215    1.1901    0.0306 H         1 <0>         0.1473
     33 H12        -5.5977    2.0871    0.0455 H         1 <0>         0.1090
     34 H13        -4.0565    1.9399    0.9238 H         1 <0>         0.0597
     35 H14        -4.0699    1.9414   -0.8561 H         1 <0>         0.0597
@<TRIPOS>BOND
     1    1    2 1
     2    1   22 1
     3    1   23 1
     4    1   24 1
     5    2    3 1
     6    3   19 ar
     7    3    4 ar
     8    4    5 ar
     9    4   25 1
    10    5   11 1
    11    5    6 ar
    12    6    7 1
    13    6   18 ar
    14    7    8 2
    15    7    9 1
    16    9   10 2
    17    9   26 1
    18   10   11 1
    19   10   12 1
    20   12   17 ar
    21   12   13 ar
    22   13   14 ar
    23   13   27 1
    24   14   15 ar
    25   14   28 1
    26   15   16 ar
    27   15   29 1
    28   16   17 ar
    29   16   30 1
    30   17   31 1
    31   18   19 ar
    32   18   20 1
    33   19   32 1
    34   20   21 1
    35   21   33 1
    36   21   34 1
    37   21   35 1
@<TRIPOS>MOLECULE
ZINC03871576
   30    32     0     0     0
SMALL
USER_CHARGES

@<TRIPOS>ATOM
      1 C1         -0.0169    1.3935    0.0097 C.ar      1 <0>        -0.0604
      2 C2          1.1676    2.0963    0.0022 C.ar      1 <0>        -0.1497
      3 C3          2.3803    1.4179   -0.0135 C.ar      1 <0>         0.1360
      4 C4          2.4038    0.0284   -0.0212 C.ar      1 <0>        -0.1474
      5 C5          1.2241   -0.6823   -0.0133 C.ar      1 <0>        -0.0612
      6 C6          0.0021   -0.0041    0.0020 C.ar      1 <0>        -0.0853
      7 C7         -1.2639   -0.7610    0.0105 C.2       1 <0>         0.2092
      8 C8         -1.2134   -2.1203    0.0083 C.2       1 <0>        -0.3116
      9 C9         -2.4177   -2.8631    0.0169 C.2       1 <0>         0.4226
     10 O1         -2.4099   -4.0836    0.0156 O.2       1 <0>        -0.4538
     11 C10        -3.6809   -2.1061    0.0279 C.ar      1 <0>        -0.2659
     12 C11        -4.9199   -2.7591    0.0374 C.ar      1 <0>         0.2192
     13 C12        -6.0832   -2.0121    0.0480 C.ar      1 <0>        -0.2049
     14 C13        -6.0212   -0.6227    0.0493 C.ar      1 <0>         0.1922
     15 C14        -4.7984    0.0300    0.0400 C.ar      1 <0>        -0.1830
     16 C15        -3.6212   -0.7020    0.0293 C.ar      1 <0>         0.1830
     17 O2         -2.4220   -0.0821    0.0257 O.3       1 <0>        -0.2182
     18 O3         -7.1695    0.1013    0.0593 O.3       1 <0>        -0.4872
     19 O4         -4.9782   -4.1150    0.0356 O.3       1 <0>        -0.4722
     20 O5          3.5455    2.1145   -0.0218 O.3       1 <0>        -0.4965
     21 H1         -0.9589    1.9215    0.0260 H         1 <0>         0.1404
     22 H2          1.1538    3.1762    0.0081 H         1 <0>         0.1393
     23 H3          3.3485   -0.4949   -0.0338 H         1 <0>         0.1414
     24 H4          1.2432   -1.7622   -0.0196 H         1 <0>         0.1415
     25 H5         -0.2608   -2.6290   -0.0002 H         1 <0>         0.1637
     26 H6         -7.0423   -2.5086    0.0550 H         1 <0>         0.1502
     27 H7         -4.7627    1.1094    0.0411 H         1 <0>         0.1534
     28 H8         -7.4952    0.3100    0.9456 H         1 <0>         0.4037
     29 H9         -4.9875   -4.5094    0.9185 H         1 <0>         0.4031
     30 H10         3.8920    2.3119    0.8591 H         1 <0>         0.3984
@<TRIPOS>BOND
     1    1    6 ar
     2    1    2 ar
     3    1   21 1
     4    2    3 ar
     5    2   22 1
     6    3    4 ar
     7    3   20 1
     8    4    5 ar
     9    4   23 1
    10    5    6 ar
    11    5   24 1
    12    6    7 1
    13    7   17 1
    14    7    8 2
    15    8    9 1
    16    8   25 1
    17    9   10 2
    18    9   11 1
    19   11   16 ar
    20   11   12 ar
    21   12   13 ar
    22   12   19 1
    23   13   14 ar
    24   13   26 1
    25   14   15 ar
    26   14   18 1
    27   15   16 ar
    28   15   27 1
    29   16   17 1
    30   18   28 1
    31   19   29 1
    32   20   30 1
@<TRIPOS>MOLECULE
ZINC03871576
   29    31     0     0     0
SMALL
USER_CHARGES

@<TRIPOS>ATOM
      1 C1         -0.0169    1.3945    0.0097 C.ar      1 <0>        -0.0666
      2 C2          1.1672    2.0969    0.0022 C.ar      1 <0>        -0.1480
      3 C3          2.3804    1.4183   -0.0135 C.ar      1 <0>         0.1175
      4 C4          2.4042    0.0284   -0.0212 C.ar      1 <0>        -0.1471
      5 C5          1.2251   -0.6825   -0.0138 C.ar      1 <0>        -0.0696
      6 C6          0.0021   -0.0041    0.0020 C.ar      1 <0>        -0.0607
      7 C7         -1.2623   -0.7603    0.0105 C.2       1 <0>         0.1733
      8 C8         -1.2238   -2.1392    0.0085 C.2       1 <0>        -0.2675
      9 C9         -2.4161   -2.8666    0.0170 C.2       1 <0>         0.3649
     10 C10        -3.6370   -2.1554    0.0275 C.2       1 <0>        -0.3407
     11 C11        -4.8707   -2.8387    0.0369 C.2       1 <0>         0.2653
     12 C12        -6.0384   -2.1317    0.0475 C.2       1 <0>        -0.3780
     13 C13        -6.0158   -0.7277    0.0485 C.2       1 <0>         0.3615
     14 O1         -7.1627   -0.0461    0.0589 O.2       1 <0>        -0.6669
     15 C14        -4.7977   -0.0391    0.0393 C.2       1 <0>        -0.3147
     16 C15        -3.6098   -0.7430    0.0291 C.2       1 <0>         0.2111
     17 O2         -2.4272   -0.0920    0.0257 O.3       1 <0>        -0.2196
     18 O3         -4.8969   -4.1953    0.0351 O.3       1 <0>        -0.4477
     19 O4         -2.4024   -4.2178    0.0147 O.3       1 <0>        -0.5784
     20 O5          3.5452    2.1149   -0.0218 O.3       1 <0>        -0.4988
     21 H1         -0.9589    1.9225    0.0260 H         1 <0>         0.1416
     22 H2          1.1536    3.1768    0.0081 H         1 <0>         0.1349
     23 H3          3.3490   -0.4946   -0.0334 H         1 <0>         0.1360
     24 H4          1.2446   -1.7623   -0.0201 H         1 <0>         0.1407
     25 H5         -0.2747   -2.6546   -0.0001 H         1 <0>         0.1464
     26 H6         -6.9835   -2.6543    0.0547 H         1 <0>         0.1160
     27 H7         -4.7867    1.0408    0.0398 H         1 <0>         0.1203
     28 H8         -5.7877   -4.5715    0.0420 H         1 <0>         0.3828
     29 H9          3.8917    2.3124    0.8591 H         1 <0>         0.3921
@<TRIPOS>BOND
     1    1    6 ar
     2    1    2 ar
     3    1   21 1
     4    2    3 ar
     5    2   22 1
     6    3    4 ar
     7    3   20 1
     8    4    5 ar
     9    4   23 1
    10    5    6 ar
    11    5   24 1
    12    6    7 1
    13    7   17 1
    14    7    8 2
    15    8    9 1
    16    8   25 1
    17    9   10 2
    18    9   19 1
    19   10   16 1
    20   10   11 1
    21   11   12 2
    22   11   18 1
    23   12   13 1
    24   12   26 1
    25   13   14 2
    26   13   15 1
    27   15   16 2
    28   15   27 1
    29   16   17 1
    30   18   28 1
    31   20   29 1
@<TRIPOS>MOLECULE
ZINC00602632
   43    45     0     0     0
SMALL
USER_CHARGES
4-[6-amino-5-bromo-2-(4-cyanophenyl)amino-pyrimidin-4-yl]oxy-3,5-dimethyl-benzonitrile
@<TRIPOS>ATOM
      1 C1          2.3134    5.1441   -2.3257 C.3       1 <0>        -0.1194
      2 C2          2.1650    6.0648   -1.1419 C.ar      1 <0>        -0.0679
      3 C3          2.0573    7.4240   -1.3372 C.ar      1 <0>        -0.0684
      4 C4          1.9246    8.2774   -0.2384 C.ar      1 <0>        -0.0083
      5 C5          1.8968    7.7467    1.0542 C.ar      1 <0>        -0.0683
      6 C6          2.0002    6.3859    1.2402 C.ar      1 <0>        -0.0685
      7 C7          2.1316    5.5409    0.1448 C.ar      1 <0>         0.1103
      8 O1          2.2333    4.2001    0.3326 O.3       1 <0>        -0.2193
      9 C8          1.0899    3.4720    0.3545 C.ar      1 <0>         0.4551
     10 C9          1.1354    2.0957    0.5433 C.ar      1 <0>        -0.3292
     11 C10        -0.0649    1.3883    0.5582 C.ar      1 <0>         0.5268
     12 N1         -1.2073    2.0489    0.3872 N.ar      1 <0>        -0.6132
     13 C11        -1.2114    3.3619    0.2149 C.ar      1 <0>         0.6407
     14 N2         -0.0892    4.0653    0.1953 N.ar      1 <0>        -0.6238
     15 N3         -2.4211    4.0165    0.0458 N.pl3     1 <0>        -0.6282
     16 C12        -3.6023    3.2835   -0.0520 C.ar      1 <0>         0.1955
     17 C13        -3.5968    2.0375   -0.6717 C.ar      1 <0>        -0.1163
     18 C14        -4.7608    1.3086   -0.7658 C.ar      1 <0>        -0.0484
     19 C15        -5.9514    1.8260   -0.2470 C.ar      1 <0>        -0.0482
     20 C16        -5.9544    3.0804    0.3702 C.ar      1 <0>        -0.0454
     21 C17        -4.7857    3.8017    0.4651 C.ar      1 <0>        -0.1478
     22 C18        -7.1653    1.0730   -0.3480 C.1       1 <0>         0.2530
     23 N4         -8.1282    0.4756   -0.4280 N.1       1 <0>        -0.4174
     24 N5         -0.0686    0.0142    0.7430 N.pl3     1 <0>        -0.8164
     25 Br1         2.7871    1.2043    0.7739 Br        1 <0>        -0.0126
     26 C19         1.9704    5.8126    2.6336 C.3       1 <0>        -0.1138
     27 C20         1.8169    9.6915   -0.4365 C.1       1 <0>         0.2500
     28 N6          1.7314   10.8133   -0.5936 N.1       1 <0>        -0.4050
     29 H1          1.3270    4.8363   -2.6725 H         1 <0>         0.0752
     30 H2          2.8345    5.6656   -3.1285 H         1 <0>         0.0777
     31 H3          2.8861    4.2643   -2.0321 H         1 <0>         0.0754
     32 H4          2.0796    7.8301   -2.3377 H         1 <0>         0.1414
     33 H5          1.7940    8.4027    1.9060 H         1 <0>         0.1415
     34 H6         -2.4456    4.9849   -0.0044 H         1 <0>         0.4302
     35 H7         -2.6774    1.6403   -1.0759 H         1 <0>         0.1454
     36 H8         -4.7549    0.3397   -1.2429 H         1 <0>         0.1357
     37 H9         -6.8724    3.4832    0.7717 H         1 <0>         0.1377
     38 H10        -4.7872    4.7708    0.9417 H         1 <0>         0.1376
     39 H11         0.7683   -0.4613    0.8630 H         1 <0>         0.4184
     40 H12        -0.9081   -0.4717    0.7522 H         1 <0>         0.4158
     41 H13         2.9857    5.7595    3.0264 H         1 <0>         0.0828
     42 H14         1.3649    6.4515    3.2765 H         1 <0>         0.0752
     43 H15         1.5388    4.8120    2.6055 H         1 <0>         0.0644
@<TRIPOS>BOND
     1    1    2 1
     2    1   29 1
     3    1   30 1
     4    1   31 1
     5    2    7 ar
     6    2    3 ar
     7    3    4 ar
     8    3   32 1
     9    4    5 ar
    10    4   27 1
    11    5    6 ar
    12    5   33 1
    13    6    7 ar
    14    6   26 1
    15    7    8 1
    16    8    9 1
    17    9   14 ar
    18    9   10 ar
    19   10   11 ar
    20   10   25 1
    21   11   12 ar
    22   11   24 1
    23   12   13 ar
    24   13   14 ar
    25   13   15 1
    26   15   16 1
    27   15   34 1
    28   16   21 ar
    29   16   17 ar
    30   17   18 ar
    31   17   35 1
    32   18   19 ar
    33   18   36 1
    34   19   20 ar
    35   19   22 1
    36   20   21 ar
    37   20   37 1
    38   21   38 1
    39   22   23 3
    40   24   39 1
    41   24   40 1
    42   26   41 1
    43   26   42 1
    44   26   43 1
    45   27   28 3
@<TRIPOS>MOLECULE
ZINC04214704
   87    92     0     0     0
SMALL
USER_CHARGES
N-[2-[[4-[2-(6,7-dimethoxy-3,4-dihydro-1H-isoquinolin-2-yl)ethyl]phenyl]carbamoyl]-4,5-dimethoxy-phenyl]quinoline-3-carboxamide
@<TRIPOS>ATOM
      1 C1          3.5298    2.1860    0.0249 C.3       1 <0>         0.0211
      2 O1          2.3433    1.3901   -0.0012 O.3       1 <0>        -0.2964
      3 C2          1.1554    2.0521    0.0120 C.ar      1 <0>         0.1309
      4 C3          1.1306    3.4351    0.0486 C.ar      1 <0>        -0.1671
      5 C4         -0.0782    4.1148    0.0615 C.ar      1 <0>        -0.0845
      6 C5         -1.2642    3.4118    0.0344 C.ar      1 <0>        -0.1325
      7 C6         -1.2442    2.0251   -0.0061 C.ar      1 <0>        -0.1558
      8 C7         -0.0411    1.3419   -0.0118 C.ar      1 <0>         0.1181
      9 O2         -0.0279   -0.0175   -0.0461 O.3       1 <0>        -0.2967
     10 C8         -1.2948   -0.6783   -0.0690 C.3       1 <0>         0.0218
     11 C9         -2.6004    4.1075    0.0394 C.3       1 <0>         0.0534
     12 C10        -1.4169    6.1803   -0.2939 C.3       1 <0>         0.0018
     13 C11        -0.0530    5.6212    0.1117 C.3       1 <0>        -0.1030
     14 C12        -3.7352    6.2112    0.4114 C.3       1 <0>        -0.0019
     15 C13        -4.7230    5.6043    1.4098 C.3       1 <0>        -0.0974
     16 C14        -6.0359    6.3394    1.3275 C.ar      1 <0>        -0.1288
     17 C15        -6.2621    7.4401    2.1334 C.ar      1 <0>        -0.0836
     18 C16        -7.4621    8.1194    2.0563 C.ar      1 <0>        -0.1254
     19 C17        -8.4465    7.6893    1.1759 C.ar      1 <0>         0.1703
     20 C18        -8.2183    6.5800    0.3719 C.ar      1 <0>        -0.1481
     21 C19        -7.0141    5.9083    0.4501 C.ar      1 <0>        -0.0837
     22 N1         -9.6646    8.3720    1.0988 N.am      1 <0>        -0.6681
     23 C20        -9.7286    9.6760    1.4333 C.2       1 <0>         0.5813
     24 O3         -8.7106   10.2863    1.6995 O.2       1 <0>        -0.5250
     25 C21       -11.0307   10.3620    1.4764 C.ar      1 <0>        -0.1863
     26 C22       -12.2116    9.6410    1.2674 C.ar      1 <0>        -0.1229
     27 C23       -13.4294   10.2867    1.3149 C.ar      1 <0>         0.0843
     28 C24       -13.4865   11.6599    1.5591 C.ar      1 <0>         0.1670
     29 C25       -12.3217   12.3821    1.7609 C.ar      1 <0>        -0.1955
     30 C26       -11.0920   11.7427    1.7216 C.ar      1 <0>         0.2308
     31 N2         -9.9201   12.4689    1.9246 N.am      1 <0>        -0.6551
     32 C27        -9.8249   13.7350    1.4723 C.2       1 <0>         0.5696
     33 O4        -10.7890   14.2724    0.9627 O.2       1 <0>        -0.5142
     34 C28        -8.5493   14.4695    1.5958 C.ar      1 <0>        -0.2033
     35 C29        -8.4449   15.7760    1.1310 C.ar      1 <0>         0.0244
     36 C30        -7.2092   16.4291    1.2734 C.ar      1 <0>        -0.1152
     37 C31        -7.0273   17.7495    0.8273 C.ar      1 <0>        -0.0839
     38 C32        -5.8158   18.3509    0.9816 C.ar      1 <0>        -0.1157
     39 C33        -4.7529   17.6740    1.5766 C.ar      1 <0>        -0.0826
     40 C34        -4.8940   16.3945    2.0196 C.ar      1 <0>        -0.1023
     41 C35        -6.1287   15.7385    1.8787 C.ar      1 <0>         0.1460
     42 N3         -6.2895   14.4808    2.3060 N.ar      1 <0>        -0.4729
     43 C36        -7.4326   13.8555    2.1893 C.ar      1 <0>         0.1644
     44 O5        -14.6886   12.2903    1.5993 O.3       1 <0>        -0.2933
     45 C37       -14.6757   13.6963    1.8541 C.3       1 <0>         0.0200
     46 O6        -14.5778    9.5845    1.1172 O.3       1 <0>        -0.2989
     47 C38       -14.4471    8.1827    0.8725 C.3       1 <0>         0.0222
     48 H1          4.4042    1.5352    0.0108 H         1 <0>         0.1109
     49 H2          3.5487    2.8388   -0.8478 H         1 <0>         0.0603
     50 H3          3.5417    2.7909    0.9315 H         1 <0>         0.0602
     51 H4          2.0579    3.9884    0.0669 H         1 <0>         0.1466
     52 H5         -2.1736    1.4754   -0.0293 H         1 <0>         0.1456
     53 H6         -1.1414   -1.7571   -0.0955 H         1 <0>         0.1104
     54 H7         -1.8589   -0.4133    0.8253 H         1 <0>         0.0588
     55 H8         -1.8503   -0.3684   -0.9541 H         1 <0>         0.0590
     56 H9         -3.0141    4.0993   -0.9690 H         1 <0>         0.1378
     57 H10        -3.2782    3.5799    0.7105 H         1 <0>         0.1360
     58 H11        -1.5842    6.0025   -1.3562 H         1 <0>         0.1332
     59 H12        -1.4519    7.2508   -0.0919 H         1 <0>         0.1369
     60 H13         0.1842    5.9456    1.1249 H         1 <0>         0.1033
     61 H14         0.7088    5.9934   -0.5734 H         1 <0>         0.1216
     62 H15        -3.5781    7.2632    0.6495 H         1 <0>         0.1340
     63 H16        -4.1382    6.1232   -0.5975 H         1 <0>         0.1330
     64 H17        -4.8800    4.5523    1.1718 H         1 <0>         0.0932
     65 H18        -4.3200    5.6923    2.4188 H         1 <0>         0.0948
     66 H19        -5.4980    7.7713    2.8210 H         1 <0>         0.1284
     67 H20        -7.6365    8.9816    2.6829 H         1 <0>         0.1504
     68 H21        -8.9815    6.2433   -0.3140 H         1 <0>         0.1314
     69 H22        -6.8360    5.0457   -0.1748 H         1 <0>         0.1277
     70 H23       -10.4634    7.9070    0.8046 H         1 <0>         0.4144
     71 H24       -12.1698    8.5794    1.0735 H         1 <0>         0.1413
     72 H25       -12.3716   13.4444    1.9494 H         1 <0>         0.1661
     73 H26        -9.1728   12.0633    2.3915 H         1 <0>         0.4242
     74 H27        -9.2880   16.2735    0.6748 H         1 <0>         0.1562
     75 H28        -7.8439   18.2838    0.3647 H         1 <0>         0.1372
     76 H29        -5.6766   19.3655    0.6387 H         1 <0>         0.1348
     77 H30        -3.8014   18.1726    1.6879 H         1 <0>         0.1359
     78 H31        -4.0594   15.8852    2.4783 H         1 <0>         0.1394
     79 H32        -7.5190   12.8422    2.5527 H         1 <0>         0.1620
     80 H33       -14.2131   13.8858    2.8227 H         1 <0>         0.0597
     81 H34       -14.1060   14.2017    1.0743 H         1 <0>         0.0657
     82 H35       -15.6981   14.0740    1.8597 H         1 <0>         0.1085
     83 H36       -13.8491    8.0248   -0.0250 H         1 <0>         0.0551
     84 H37       -13.9573    7.7094    1.7234 H         1 <0>         0.0559
     85 H38       -15.4353    7.7446    0.7324 H         1 <0>         0.1069
     86 N4         -2.4447    5.4928    0.5133 N.4       1 <0>        -0.3935
     87 H39        -2.1464    5.4797    1.4957 H         1 <0>         0.4299
@<TRIPOS>BOND
     1    1    2 1
     2    1   48 1
     3    1   49 1
     4    1   50 1
     5    2    3 1
     6    3    8 ar
     7    3    4 ar
     8    4    5 ar
     9    4   51 1
    10    5   13 1
    11    5    6 ar
    12    6    7 ar
    13    6   11 1
    14    7    8 ar
    15    7   52 1
    16    8    9 1
    17    9   10 1
    18   10   53 1
    19   10   54 1
    20   10   55 1
    21   11   56 1
    22   11   57 1
    23   11   86 1
    24   12   13 1
    25   12   58 1
    26   12   59 1
    27   12   86 1
    28   13   60 1
    29   13   61 1
    30   14   15 1
    31   14   62 1
    32   14   63 1
    33   14   86 1
    34   15   16 1
    35   15   64 1
    36   15   65 1
    37   16   21 ar
    38   16   17 ar
    39   17   18 ar
    40   17   66 1
    41   18   19 ar
    42   18   67 1
    43   19   20 ar
    44   19   22 1
    45   20   21 ar
    46   20   68 1
    47   21   69 1
    48   22   23 am
    49   22   70 1
    50   23   24 2
    51   23   25 1
    52   25   30 ar
    53   25   26 ar
    54   26   27 ar
    55   26   71 1
    56   27   28 ar
    57   27   46 1
    58   28   29 ar
    59   28   44 1
    60   29   30 ar
    61   29   72 1
    62   30   31 1
    63   31   32 am
    64   31   73 1
    65   32   33 2
    66   32   34 1
    67   34   43 ar
    68   34   35 ar
    69   35   36 ar
    70   35   74 1
    71   36   41 ar
    72   36   37 ar
    73   37   38 ar
    74   37   75 1
    75   38   39 ar
    76   38   76 1
    77   39   40 ar
    78   39   77 1
    79   40   41 ar
    80   40   78 1
    81   41   42 ar
    82   42   43 ar
    83   43   79 1
    84   44   45 1
    85   45   80 1
    86   45   81 1
    87   45   82 1
    88   46   47 1
    89   47   83 1
    90   47   84 1
    91   47   85 1
    92   86   87 1
@<TRIPOS>MOLECULE
ZINC00039452
   45    47     0     0     0
SMALL
USER_CHARGES
5,7-dihydroxy-2-(4-hydroxyphenyl)-8-(3-methylbut-2-enyl)chroman-4-one
@<TRIPOS>ATOM
      1 C1         -5.0468    2.1051    0.9291 C.3       1 <0>        -0.1213
      2 C2         -4.0964    1.4202    1.8770 C.2       1 <0>        -0.1182
      3 C3         -3.0399    0.8009    1.4117 C.2       1 <0>        -0.1678
      4 C4         -2.7050    0.8809   -0.0555 C.3       1 <0>        -0.0417
      5 C5         -1.2896    1.3708   -0.2217 C.ar      1 <0>        -0.1520
      6 C6         -0.2424    0.4590   -0.2694 C.ar      1 <0>         0.1967
      7 C7          1.0679    0.8921   -0.4288 C.ar      1 <0>        -0.2180
      8 C8          1.3431    2.2441   -0.5339 C.ar      1 <0>         0.2169
      9 C9          0.2902    3.1704   -0.4762 C.ar      1 <0>        -0.2897
     10 C10        -1.0366    2.7272   -0.3209 C.ar      1 <0>         0.2163
     11 O1         -2.0612    3.6109   -0.2778 O.3       1 <0>        -0.2917
     12 C11        -1.7861    4.9614    0.0934 C.3       1 <0>         0.1455
     13 H1         -1.4859    4.9969    1.1406 H         1 <0>         0.0902
     14 C12        -0.6512    5.5090   -0.7844 C.3       1 <0>        -0.1838
     15 C13         0.5540    4.6104   -0.5719 C.2       1 <0>         0.3996
     16 O2          1.6779    5.0603   -0.4852 O.2       1 <0>        -0.4247
     17 C14        -3.0232    5.7992   -0.1038 C.ar      1 <0>        -0.1009
     18 C15        -3.8770    5.5317   -1.1579 C.ar      1 <0>        -0.0733
     19 C16        -5.0146    6.2946   -1.3375 C.ar      1 <0>        -0.1450
     20 C17        -5.2944    7.3367   -0.4655 C.ar      1 <0>         0.1169
     21 C18        -4.4331    7.6066    0.5881 C.ar      1 <0>        -0.1435
     22 C19        -3.2995    6.8375    0.7664 C.ar      1 <0>        -0.0839
     23 O3         -6.4100    8.0922   -0.6433 O.3       1 <0>        -0.4991
     24 O4          2.6206    2.6710   -0.6918 O.3       1 <0>        -0.4770
     25 O5         -0.5026   -0.8684   -0.1647 O.3       1 <0>        -0.4867
     26 C20        -4.3612    1.4476    3.3603 C.3       1 <0>        -0.1186
     27 H2         -5.3870    1.3925    0.1777 H         1 <0>         0.0648
     28 H3         -5.9044    2.4840    1.4851 H         1 <0>         0.0578
     29 H4         -4.5365    2.9342    0.4389 H         1 <0>         0.0740
     30 H5         -2.4090    0.2332    2.0794 H         1 <0>         0.1043
     31 H6         -3.3890    1.5726   -0.5471 H         1 <0>         0.0880
     32 H7         -2.8026   -0.1074   -0.5048 H         1 <0>         0.0869
     33 H8          1.8725    0.1729   -0.4712 H         1 <0>         0.1455
     34 H9         -0.9368    5.4996   -1.7427 H         1 <0>         0.1035
     35 H10        -0.4115    6.5299   -0.4870 H         1 <0>         0.1138
     36 H11        -3.6565    4.7232   -1.8391 H         1 <0>         0.1330
     37 H12        -5.6838    6.0823   -2.1582 H         1 <0>         0.1328
     38 H13        -4.6489    8.4171    1.2685 H         1 <0>         0.1339
     39 H14        -2.6287    7.0472    1.5865 H         1 <0>         0.1309
     40 H15        -6.2760    8.8642   -1.2099 H         1 <0>         0.3943
     41 H16         2.8991    2.7453   -1.6148 H         1 <0>         0.4001
     42 H17        -0.4884   -1.2016    0.7429 H         1 <0>         0.4011
     43 H18        -3.8807    2.3220    3.7991 H         1 <0>         0.0664
     44 H19        -5.4358    1.4968    3.5367 H         1 <0>         0.0622
     45 H20        -3.9589    0.5439    3.8180 H         1 <0>         0.0611
@<TRIPOS>BOND
     1    1    2 1
     2    1   27 1
     3    1   28 1
     4    1   29 1
     5    2    3 2
     6    2   26 1
     7    3    4 1
     8    3   30 1
     9    4    5 1
    10    4   31 1
    11    4   32 1
    12    5   10 ar
    13    5    6 ar
    14    6    7 ar
    15    6   25 1
    16    7    8 ar
    17    7   33 1
    18    8    9 ar
    19    8   24 1
    20    9   15 1
    21    9   10 ar
    22   10   11 1
    23   11   12 1
    24   12   13 1
    25   12   14 1
    26   12   17 1
    27   14   15 1
    28   14   34 1
    29   14   35 1
    30   15   16 2
    31   17   22 ar
    32   17   18 ar
    33   18   19 ar
    34   18   36 1
    35   19   20 ar
    36   19   37 1
    37   20   21 ar
    38   20   23 1
    39   21   22 ar
    40   21   38 1
    41   22   39 1
    42   23   40 1
    43   24   41 1
    44   25   42 1
    45   26   43 1
    46   26   44 1
    47   26   45 1
@<TRIPOS>MOLECULE
ZINC04353192
   28    30     0     0     0
SMALL
USER_CHARGES
2-methoxy-10H-acridin-9-one
@<TRIPOS>ATOM
      1 C1         -0.1536    4.0727    0.0255 C.3       1 <0>         0.0256
      2 O1          1.1361    3.4575    0.0098 O.3       1 <0>        -0.3141
      3 C2          1.1715    2.0982    0.0021 C.ar      1 <0>         0.0831
      4 C3         -0.0166    1.3723    0.0096 C.ar      1 <0>        -0.1326
      5 C4          0.0021   -0.0041    0.0020 C.ar      1 <0>        -0.1424
      6 C5          1.2167   -0.6874   -0.0129 C.ar      1 <0>         0.1857
      7 C6          2.4156    0.0445   -0.0204 C.ar      1 <0>        -0.1723
      8 C7          2.3859    1.4408   -0.0130 C.ar      1 <0>        -0.0574
      9 C8          3.6994   -0.6802   -0.0362 C.2       1 <0>         0.4365
     10 O2          4.7611   -0.0840   -0.0430 O.2       1 <0>        -0.4623
     11 C9          3.6496   -2.1533   -0.0434 C.ar      1 <0>        -0.2161
     12 C10         4.8250   -2.9072   -0.0590 C.ar      1 <0>        -0.0205
     13 C11         4.7564   -4.2722   -0.0660 C.ar      1 <0>        -0.1693
     14 C12         3.5259   -4.9139   -0.0577 C.ar      1 <0>        -0.0450
     15 C13         2.3550   -4.1890   -0.0419 C.ar      1 <0>        -0.1868
     16 C14         2.4000   -2.7956   -0.0350 C.ar      1 <0>         0.2245
     17 N1          1.2310   -2.0672   -0.0205 N.pl3     1 <0>        -0.6299
     18 H1          0.3854   -2.5424   -0.0150 H         1 <0>         0.4167
     19 H2         -0.0390    5.1567    0.0303 H         1 <0>         0.1028
     20 H3         -0.7113    3.7702   -0.8608 H         1 <0>         0.0559
     21 H4         -0.6942    3.7606    0.9190 H         1 <0>         0.0560
     22 H5         -0.9621    1.8943    0.0169 H         1 <0>         0.1393
     23 H6         -0.9265   -0.5556    0.0080 H         1 <0>         0.1377
     24 H7          3.3077    2.0034   -0.0191 H         1 <0>         0.1482
     25 H8          5.7853   -2.4131   -0.0658 H         1 <0>         0.1386
     26 H9          5.6656   -4.8551   -0.0777 H         1 <0>         0.1317
     27 H10         3.4861   -5.9932   -0.0630 H         1 <0>         0.1329
     28 H11         1.4032   -4.6993   -0.0353 H         1 <0>         0.1334
@<TRIPOS>BOND
     1    1    2 1
     2    1   19 1
     3    1   20 1
     4    1   21 1
     5    2    3 1
     6    3    8 ar
     7    3    4 ar
     8    4    5 ar
     9    4   22 1
    10    5    6 ar
    11    5   23 1
    12    6   17 1
    13    6    7 ar
    14    7    8 ar
    15    7    9 1
    16    8   24 1
    17    9   10 2
    18    9   11 1
    19   11   16 ar
    20   11   12 ar
    21   12   13 ar
    22   12   25 1
    23   13   14 ar
    24   13   26 1
    25   14   15 ar
    26   14   27 1
    27   15   16 ar
    28   15   28 1
    29   16   17 1
    30   17   18 1
@<TRIPOS>MOLECULE
ZINC03915436
   76    81     0     0     0
SMALL
USER_CHARGES
N-[4-[2-(6,7-dimethoxy-3,4-dihydro-1H-isoquinolin-2-yl)ethyl]phenyl]-5-methoxy-9-oxo-10H-acridine-4-carboxamide
@<TRIPOS>ATOM
      1 C1          7.5241   -2.0177   -3.4537 C.3       1 <0>         0.0286
      2 O1          6.4036   -2.7263   -2.9205 O.3       1 <0>        -0.3184
      3 C2          6.4165   -4.0808   -3.0391 C.ar      1 <0>         0.0747
      4 C3          7.4819   -4.7108   -3.6530 C.ar      1 <0>        -0.1434
      5 C4          7.5085   -6.0920   -3.7804 C.ar      1 <0>        -0.1192
      6 C5          6.4704   -6.8549   -3.2947 C.ar      1 <0>        -0.0584
      7 C6          5.3853   -6.2338   -2.6716 C.ar      1 <0>        -0.1779
      8 C7          5.3522   -4.8368   -2.5394 C.ar      1 <0>         0.1863
      9 N1          4.2868   -4.2096   -1.9262 N.pl3     1 <0>        -0.6109
     10 H1          4.2957   -3.2126   -1.8498 H         1 <0>         0.4414
     11 C8          3.2166   -4.8993   -1.4176 C.ar      1 <0>         0.2927
     12 C9          3.1552   -6.3004   -1.4991 C.ar      1 <0>        -0.2305
     13 C10         4.2620   -7.0304   -2.1442 C.2       1 <0>         0.4400
     14 O2          4.2496   -8.2444   -2.2367 O.2       1 <0>        -0.4555
     15 C11         2.0587   -6.9874   -0.9755 C.ar      1 <0>         0.0246
     16 C12         1.0300   -6.2911   -0.3750 C.ar      1 <0>        -0.1831
     17 C13         1.0766   -4.9124   -0.2823 C.ar      1 <0>        -0.0047
     18 C14         2.1587   -4.2042   -0.8023 C.ar      1 <0>        -0.2308
     19 C15         2.1978   -2.7338   -0.7027 C.2       1 <0>         0.5808
     20 O3          3.0871   -2.1107   -1.2502 O.2       1 <0>        -0.5246
     21 N2          1.2479   -2.0802   -0.0049 N.am      1 <0>        -0.6685
     22 C16         1.2313   -0.6819    0.0132 C.ar      1 <0>         0.1628
     23 C17         0.0213   -0.0006    0.0438 C.ar      1 <0>        -0.1393
     24 C18         0.0085    1.3803    0.0622 C.ar      1 <0>        -0.0876
     25 C19         1.1985    2.0846    0.0502 C.ar      1 <0>        -0.1225
     26 C20         2.4048    1.4093    0.0196 C.ar      1 <0>        -0.0878
     27 C21         2.4247    0.0285    0.0012 C.ar      1 <0>        -0.1157
     28 C22         1.1806    3.5914    0.0698 C.3       1 <0>        -0.0989
     29 C23         1.2001    4.0828    1.5186 C.3       1 <0>        -0.0012
     30 C24         1.4159    6.0641    2.8973 C.3       1 <0>         0.0020
     31 C25         1.7515    7.5527    2.8037 C.3       1 <0>        -0.1032
     32 C26         0.7196    8.2613    1.9639 C.ar      1 <0>        -0.0848
     33 C27         0.6403    9.6440    2.0443 C.ar      1 <0>        -0.1675
     34 C28        -0.2852   10.3371    1.2850 C.ar      1 <0>         0.1313
     35 C29        -1.1410    9.6402    0.4367 C.ar      1 <0>         0.1186
     36 C30        -1.0594    8.2615    0.3621 C.ar      1 <0>        -0.1562
     37 C31        -0.1298    7.5703    1.1263 C.ar      1 <0>        -0.1326
     38 C32        -0.0841    6.0690    1.0109 C.3       1 <0>         0.0533
     39 O4         -2.0537   10.3120   -0.3151 O.3       1 <0>        -0.2966
     40 C33        -2.8984    9.5301   -1.1619 C.3       1 <0>         0.0217
     41 O5         -0.3589   11.6926    1.3671 O.3       1 <0>        -0.2963
     42 C34         0.5515   12.3389    2.2590 C.3       1 <0>         0.0211
     43 H2          8.4342   -2.3469   -2.9523 H         1 <0>         0.0590
     44 H3          7.6054   -2.2174   -4.5222 H         1 <0>         0.0593
     45 H4          7.3875   -0.9482   -3.2934 H         1 <0>         0.1024
     46 H5          8.3017   -4.1224   -4.0377 H         1 <0>         0.1403
     47 H6          8.3477   -6.5711   -4.2626 H         1 <0>         0.1386
     48 H7          6.4950   -7.9300   -3.3951 H         1 <0>         0.1444
     49 H8          2.0155   -8.0646   -1.0407 H         1 <0>         0.1487
     50 H9          0.1838   -6.8272    0.0287 H         1 <0>         0.1428
     51 H10         0.2667   -4.3798    0.1939 H         1 <0>         0.1335
     52 H11         0.5757   -2.5796    0.4847 H         1 <0>         0.4168
     53 H12        -0.9084   -0.5500    0.0536 H         1 <0>         0.1332
     54 H13        -0.9321    1.9108    0.0814 H         1 <0>         0.1289
     55 H14         3.3325    1.9623    0.0106 H         1 <0>         0.1284
     56 H15         3.3672   -0.4983   -0.0222 H         1 <0>         0.1455
     57 H16         2.0570    3.9720   -0.4548 H         1 <0>         0.0951
     58 H17         0.2774    3.9505   -0.4236 H         1 <0>         0.0940
     59 H18         0.3237    3.7022    2.0432 H         1 <0>         0.1336
     60 H19         2.1032    3.7237    2.0120 H         1 <0>         0.1336
     61 H20         0.5172    5.9286    3.4990 H         1 <0>         0.1337
     62 H21         2.2491    5.5287    3.3526 H         1 <0>         0.1366
     63 H22         2.7342    7.6740    2.3481 H         1 <0>         0.1031
     64 H23         1.7612    7.9835    3.8049 H         1 <0>         0.1217
     65 H24         1.3052   10.1825    2.7034 H         1 <0>         0.1466
     66 H25        -1.7231    7.7195   -0.2953 H         1 <0>         0.1456
     67 H26        -0.1802    5.7857   -0.0373 H         1 <0>         0.1360
     68 H27        -0.9110    5.6394    1.5763 H         1 <0>         0.1381
     69 H28        -2.2864    8.9740   -1.8720 H         1 <0>         0.0589
     70 H29        -3.4755    8.8323   -0.5551 H         1 <0>         0.0591
     71 H30        -3.5777   10.1875   -1.7045 H         1 <0>         0.1106
     72 H31         0.3869   11.9746    3.2731 H         1 <0>         0.0604
     73 H32         1.5751   12.1191    1.9557 H         1 <0>         0.0602
     74 H33         0.3869   13.4160    2.2287 H         1 <0>         0.1110
     75 N3          1.1996    5.5633    1.5250 N.4       1 <0>        -0.3938
     76 H34         1.9589    5.9002    0.9215 H         1 <0>         0.4298
@<TRIPOS>BOND
     1    1    2 1
     2    1   43 1
     3    1   44 1
     4    1   45 1
     5    2    3 1
     6    3    8 ar
     7    3    4 ar
     8    4    5 ar
     9    4   46 1
    10    5    6 ar
    11    5   47 1
    12    6    7 ar
    13    6   48 1
    14    7   13 1
    15    7    8 ar
    16    8    9 1
    17    9   10 1
    18    9   11 1
    19   11   18 ar
    20   11   12 ar
    21   12   13 1
    22   12   15 ar
    23   13   14 2
    24   15   16 ar
    25   15   49 1
    26   16   17 ar
    27   16   50 1
    28   17   18 ar
    29   17   51 1
    30   18   19 1
    31   19   20 2
    32   19   21 am
    33   21   22 1
    34   21   52 1
    35   22   27 ar
    36   22   23 ar
    37   23   24 ar
    38   23   53 1
    39   24   25 ar
    40   24   54 1
    41   25   26 ar
    42   25   28 1
    43   26   27 ar
    44   26   55 1
    45   27   56 1
    46   28   29 1
    47   28   57 1
    48   28   58 1
    49   29   59 1
    50   29   60 1
    51   29   75 1
    52   30   31 1
    53   30   61 1
    54   30   62 1
    55   30   75 1
    56   31   32 1
    57   31   63 1
    58   31   64 1
    59   32   37 ar
    60   32   33 ar
    61   33   34 ar
    62   33   65 1
    63   34   35 ar
    64   34   41 1
    65   35   36 ar
    66   35   39 1
    67   36   37 ar
    68   36   66 1
    69   37   38 1
    70   38   67 1
    71   38   68 1
    72   38   75 1
    73   39   40 1
    74   40   69 1
    75   40   70 1
    76   40   71 1
    77   41   42 1
    78   42   72 1
    79   42   73 1
    80   42   74 1
    81   75   76 1
@<TRIPOS>MOLECULE
ZINC05854773
   53    57     0     0     0
SMALL
USER_CHARGES
methoxy-(2-methylprop-1-enyl)BLAHdione
@<TRIPOS>ATOM
      1 C1         -3.9227   -3.9795   -0.6504 C.3       1 <0>        -0.1196
      2 C2         -3.5358   -3.6604    0.7708 C.2       1 <0>        -0.1513
      3 C3         -2.2755   -3.6824    1.1272 C.2       1 <0>        -0.1062
      4 C4         -1.2261   -4.1596    0.1565 C.3       1 <0>         0.2367
      5 H1         -1.6958   -4.4368   -0.7873 H         1 <0>         0.1023
      6 C5         -0.2075   -3.0662   -0.1029 C.2       1 <0>         0.0543
      7 C6          1.1259   -3.2633   -0.0320 C.2       1 <0>        -0.1470
      8 C7          1.7590   -1.9925   -0.3253 C.ar      1 <0>        -0.1316
      9 C8          3.0984   -1.5980   -0.4017 C.ar      1 <0>        -0.0233
     10 C9          3.3427   -0.2831   -0.7097 C.ar      1 <0>        -0.2282
     11 C10         2.3146    0.6241   -0.9370 C.ar      1 <0>         0.1511
     12 C11         0.9771    0.2572   -0.8682 C.ar      1 <0>        -0.1725
     13 C12         0.7040   -1.0732   -0.5579 C.ar      1 <0>         0.1448
     14 N1         -0.4691   -1.7564   -0.4136 N.pl3     1 <0>        -0.5707
     15 H2         -1.3543   -1.3731   -0.5153 H         1 <0>         0.4191
     16 O1          2.6286    1.9123   -1.2369 O.3       1 <0>        -0.3193
     17 C13         4.0172    2.2445   -1.2968 C.3       1 <0>         0.0272
     18 C14         1.7791   -4.5780    0.3026 C.3       1 <0>        -0.0423
     19 C15         0.7591   -5.7118    0.1172 C.3       1 <0>         0.1358
     20 H3          0.6079   -5.8824   -0.9487 H         1 <0>         0.1189
     21 N2         -0.5136   -5.3270    0.7231 N.am      1 <0>        -0.5933
     22 C16        -1.0959   -5.9789    1.7364 C.2       1 <0>         0.5159
     23 O2         -2.0707   -5.4753    2.2533 O.2       1 <0>        -0.4935
     24 C17        -0.6175   -7.2899    2.2684 C.3       1 <0>         0.1174
     25 H4         -1.2931   -8.0888    1.9627 H         1 <0>         0.1222
     26 C18        -0.4863   -7.2623    3.8015 C.3       1 <0>        -0.1145
     27 C19         0.7829   -8.0909    4.1034 C.3       1 <0>        -0.1361
     28 C20         1.3085   -8.5367    2.7184 C.3       1 <0>         0.1071
     29 N3          0.7438   -7.5548    1.7686 N.am      1 <0>        -0.6129
     30 C21         1.3206   -6.9599    0.7380 C.2       1 <0>         0.5396
     31 O3          2.3331   -7.4462    0.2805 O.2       1 <0>        -0.5202
     32 C22        -4.5989   -3.3161    1.7819 C.3       1 <0>        -0.1042
     33 H5         -4.0191   -5.0589   -0.7671 H         1 <0>         0.0631
     34 H6         -4.8746   -3.5024   -0.8836 H         1 <0>         0.0649
     35 H7         -3.1543   -3.6078   -1.3282 H         1 <0>         0.0570
     36 H8         -1.9883   -3.3585    2.1167 H         1 <0>         0.1154
     37 H9          3.9036   -2.2960   -0.2259 H         1 <0>         0.1347
     38 H10         4.3654    0.0572   -0.7772 H         1 <0>         0.1278
     39 H11         0.1856    0.9689   -1.0512 H         1 <0>         0.1370
     40 H12         4.4799    2.0478   -0.3297 H         1 <0>         0.0564
     41 H13         4.5030    1.6389   -2.0619 H         1 <0>         0.0567
     42 H14         4.1278    3.3002   -1.5445 H         1 <0>         0.1001
     43 H15         2.6292   -4.7412   -0.3598 H         1 <0>         0.1010
     44 H16         2.1210   -4.5616    1.3375 H         1 <0>         0.0800
     45 H17        -0.3634   -6.2380    4.1536 H         1 <0>         0.0813
     46 H18        -1.3589   -7.7219    4.2656 H         1 <0>         0.0948
     47 H19         1.5258   -7.4750    4.6102 H         1 <0>         0.0790
     48 H20         0.5323   -8.9593    4.7126 H         1 <0>         0.0898
     49 H21         2.3979   -8.5080    2.6972 H         1 <0>         0.0907
     50 H22         0.9498   -9.5378    2.4791 H         1 <0>         0.0819
     51 H23        -4.7681   -2.2393    1.7789 H         1 <0>         0.0586
     52 H24        -5.5251   -3.8301    1.5247 H         1 <0>         0.0605
     53 H25        -4.2725   -3.6298    2.7734 H         1 <0>         0.0637
@<TRIPOS>BOND
     1    1    2 1
     2    1   33 1
     3    1   34 1
     4    1   35 1
     5    2    3 2
     6    2   32 1
     7    3    4 1
     8    3   36 1
     9    4    5 1
    10    4   21 1
    11    4    6 1
    12    6   14 1
    13    6    7 2
    14    7    8 1
    15    7   18 1
    16    8   13 ar
    17    8    9 ar
    18    9   10 ar
    19    9   37 1
    20   10   11 ar
    21   10   38 1
    22   11   12 ar
    23   11   16 1
    24   12   13 ar
    25   12   39 1
    26   13   14 1
    27   14   15 1
    28   16   17 1
    29   17   40 1
    30   17   41 1
    31   17   42 1
    32   18   19 1
    33   18   43 1
    34   18   44 1
    35   19   20 1
    36   19   30 1
    37   19   21 1
    38   21   22 am
    39   22   23 2
    40   22   24 1
    41   24   25 1
    42   24   29 1
    43   24   26 1
    44   26   27 1
    45   26   45 1
    46   26   46 1
    47   27   28 1
    48   27   47 1
    49   27   48 1
    50   28   29 1
    51   28   49 1
    52   28   50 1
    53   29   30 am
    54   30   31 2
    55   32   51 1
    56   32   52 1
    57   32   53 1
@<TRIPOS>MOLECULE
ZINC18825330
   30    32     0     0     0
SMALL
USER_CHARGES

@<TRIPOS>ATOM
      1 C1         -0.0168    1.3897    0.0097 C.ar      1 <0>        -0.0898
      2 C2          1.1691    2.0941    0.0021 C.ar      1 <0>        -0.1444
      3 C3          2.3804    1.4165   -0.0135 C.ar      1 <0>         0.1118
      4 C4          2.4026    0.0286   -0.0217 C.ar      1 <0>        -0.1437
      5 C5          1.2201   -0.6816   -0.0137 C.ar      1 <0>        -0.0707
      6 C6          0.0021   -0.0041    0.0020 C.ar      1 <0>        -0.0391
      7 C7         -1.2713   -0.7647    0.0106 C.2       1 <0>        -0.2383
      8 C8         -2.1308   -0.6985   -1.0391 C.2       1 <0>         0.1275
      9 O1         -3.2790   -1.3788   -1.0759 O.3       1 <0>        -0.2144
     10 C9         -3.8133   -1.9283    0.0323 C.ar      1 <0>         0.1753
     11 C10        -5.1371   -2.3448    0.0457 C.ar      1 <0>        -0.1819
     12 C11        -5.6741   -2.9171    1.1876 C.ar      1 <0>         0.1915
     13 C12        -4.9001   -3.0841    2.3313 C.ar      1 <0>        -0.2030
     14 C13        -3.5799   -2.6737    2.3405 C.ar      1 <0>         0.2179
     15 C14        -3.0336   -2.0875    1.1922 C.ar      1 <0>        -0.2616
     16 C15        -1.6367   -1.6192    1.1574 C.2       1 <0>         0.4330
     17 O2         -0.8325   -1.9156    2.0245 O.2       1 <0>        -0.4372
     18 O3         -2.8202   -2.8370    3.4529 O.3       1 <0>        -0.4757
     19 O4         -6.9707   -3.3190    1.1905 O.3       1 <0>        -0.4879
     20 O5          3.5472    2.1134   -0.0214 O.3       1 <0>        -0.4999
     21 H1         -0.9590    1.9174    0.0260 H         1 <0>         0.1287
     22 H2          1.1551    3.1740    0.0081 H         1 <0>         0.1326
     23 H3          3.3466   -0.4958   -0.0346 H         1 <0>         0.1325
     24 H4          1.2380   -1.7614   -0.0204 H         1 <0>         0.1278
     25 H5         -1.8749   -0.0692   -1.8787 H         1 <0>         0.2021
     26 H6         -5.7497   -2.2223   -0.8352 H         1 <0>         0.1539
     27 H7         -5.3310   -3.5346    3.2132 H         1 <0>         0.1504
     28 H8         -2.3502   -3.6814    3.4877 H         1 <0>         0.4050
     29 H9         -7.0993   -4.2345    0.9070 H         1 <0>         0.4041
     30 H10         3.8936    2.3103    0.8597 H         1 <0>         0.3934
@<TRIPOS>BOND
     1    1    6 ar
     2    1    2 ar
     3    1   21 1
     4    2    3 ar
     5    2   22 1
     6    3    4 ar
     7    3   20 1
     8    4    5 ar
     9    4   23 1
    10    5    6 ar
    11    5   24 1
    12    6    7 1
    13    7   16 1
    14    7    8 2
    15    8    9 1
    16    8   25 1
    17    9   10 1
    18   10   15 ar
    19   10   11 ar
    20   11   12 ar
    21   11   26 1
    22   12   13 ar
    23   12   19 1
    24   13   14 ar
    25   13   27 1
    26   14   15 ar
    27   14   18 1
    28   15   16 1
    29   16   17 2
    30   18   28 1
    31   19   29 1
    32   20   30 1
@<TRIPOS>MOLECULE
ZINC35636075
   69    72     0     0     0
SMALL
USER_CHARGES

@<TRIPOS>ATOM
      1 C1         -2.0051    1.5160   -0.8933 C.3       1 <0>        -0.1399
      2 C2         -2.4414    0.0524   -0.9856 C.3       1 <0>        -0.0678
      3 C3         -2.3404   -0.4192   -2.4376 C.3       1 <0>        -0.2116
      4 C4         -1.5317   -0.8074   -0.1057 C.3       1 <0>        -0.1562
      5 C5         -1.6768   -2.2772   -0.5051 C.3       1 <0>         0.2149
      6 H1         -1.1940   -2.9123    0.2376 H         1 <0>         0.0975
      7 C6         -3.1408   -2.6376   -0.6161 C.2       1 <0>         0.0618
      8 C7         -3.6686   -3.2942   -1.6711 C.2       1 <0>        -0.1531
      9 C8         -5.0846   -3.4548   -1.4048 C.ar      1 <0>        -0.1283
     10 C9         -6.1214   -4.0520   -2.1285 C.ar      1 <0>        -0.0252
     11 C10        -7.3725   -4.0186   -1.5650 C.ar      1 <0>        -0.2279
     12 C11        -7.6102   -3.4221   -0.3323 C.ar      1 <0>         0.1496
     13 C12        -6.5976   -2.8241    0.4061 C.ar      1 <0>        -0.1723
     14 C13        -5.3184   -2.8454   -0.1455 C.ar      1 <0>         0.1433
     15 N1         -4.1217   -2.3639    0.3015 N.pl3     1 <0>        -0.5718
     16 H2         -3.9860   -1.8986    1.1418 H         1 <0>         0.4180
     17 O1         -8.8749   -3.4238    0.1663 O.3       1 <0>        -0.3197
     18 C14        -9.8845   -4.0499   -0.6278 C.3       1 <0>         0.0275
     19 C15        -2.8884   -3.7463   -2.8787 C.3       1 <0>        -0.0449
     20 C16        -1.3921   -3.7395   -2.5357 C.3       1 <0>         0.1320
     21 H3         -1.1776   -4.5831   -1.8796 H         1 <0>         0.1236
     22 N2         -1.0639   -2.5004   -1.8320 N.am      1 <0>        -0.5918
     23 C17        -0.2481   -1.5705   -2.3326 C.2       1 <0>         0.5345
     24 O2         -0.0980   -0.5485   -1.6971 O.2       1 <0>        -0.4987
     25 C18         0.4933   -1.7037   -3.6230 C.3       1 <0>         0.1223
     26 H4          1.5612   -1.6011   -3.4302 H         1 <0>         0.1269
     27 N3          0.2498   -2.9861   -4.2624 N.am      1 <0>        -0.7056
     28 C19        -0.5899   -3.8855   -3.7886 C.2       1 <0>         0.5212
     29 O3         -0.7046   -4.9149   -4.4194 O.2       1 <0>        -0.5288
     30 C20         0.0496   -0.5861   -4.5690 C.3       1 <0>        -0.1194
     31 C21         0.8901   -0.6357   -5.8465 C.3       1 <0>        -0.1179
     32 C22         0.4531    0.4652   -6.7784 C.2       1 <0>         0.4642
     33 O4         -0.4390    1.2126   -6.4539 O.2       1 <0>        -0.4950
     34 O5          1.0550    0.6153   -7.9687 O.3       1 <0>        -0.3453
     35 C23         0.5899    1.6796   -8.8012 C.3       1 <0>         0.1161
     36 C24         0.7761    3.0135   -8.0753 C.3       1 <0>        -0.1860
     37 C25         1.3891    1.6930  -10.1059 C.3       1 <0>        -0.1415
     38 C26        -0.8933    1.4717   -9.1138 C.3       1 <0>        -0.1862
     39 H5         -2.6532    2.1285   -1.5202 H         1 <0>         0.0450
     40 H6         -2.0771    1.8520    0.1411 H         1 <0>         0.0449
     41 H7         -0.9744    1.6102   -1.2351 H         1 <0>         0.0649
     42 H8         -3.4721   -0.0418   -0.6438 H         1 <0>         0.0519
     43 H9         -1.3950   -0.0835   -2.8638 H         1 <0>         0.0802
     44 H10        -2.3875   -1.5077   -2.4702 H         1 <0>         0.0886
     45 H11        -3.1668   -0.0025   -3.0133 H         1 <0>         0.0337
     46 H12        -0.4960   -0.4950   -0.2395 H         1 <0>         0.1580
     47 H13        -1.8160   -0.6851    0.9394 H         1 <0>         0.0502
     48 H14        -5.9459   -4.5178   -3.0870 H         1 <0>         0.1339
     49 H15        -8.1976   -4.4701   -2.0957 H         1 <0>         0.1270
     50 H16        -6.7926   -2.3635    1.3632 H         1 <0>         0.1358
     51 H17        -9.6285   -5.0983   -0.7805 H         1 <0>         0.0565
     52 H18       -10.8442   -3.9811   -0.1157 H         1 <0>         0.0998
     53 H19        -9.9509   -3.5478   -1.5930 H         1 <0>         0.0562
     54 H20        -3.1950   -4.7553   -3.1546 H         1 <0>         0.1009
     55 H21        -3.0754   -3.0662   -3.7097 H         1 <0>         0.0812
     56 H22         0.7242   -3.1837   -5.0851 H         1 <0>         0.4122
     57 H23        -1.0024   -0.7195   -4.8209 H         1 <0>         0.0883
     58 H24         0.1869    0.3788   -4.0810 H         1 <0>         0.1061
     59 H25         1.9422   -0.5022   -5.5947 H         1 <0>         0.1137
     60 H26         0.7529   -1.6006   -6.3345 H         1 <0>         0.1059
     61 H27         1.8328    3.1615   -7.8526 H         1 <0>         0.0617
     62 H28         0.4214    3.8253   -8.7103 H         1 <0>         0.0717
     63 H29         0.2068    3.0039   -7.1459 H         1 <0>         0.0836
     64 H30         1.2564    0.7427  -10.6230 H         1 <0>         0.0671
     65 H31         1.0344    2.5048  -10.7408 H         1 <0>         0.0791
     66 H32         2.4458    1.8411   -9.8832 H         1 <0>         0.0672
     67 H33        -1.4626    1.4621   -8.1843 H         1 <0>         0.0832
     68 H34        -1.2480    2.2835   -9.7488 H         1 <0>         0.0719
     69 H35        -1.0259    0.5214   -9.6309 H         1 <0>         0.0614
@<TRIPOS>BOND
     1    1    2 1
     2    1   39 1
     3    1   40 1
     4    1   41 1
     5    2    3 1
     6    2    4 1
     7    2   42 1
     8    3   43 1
     9    3   44 1
    10    3   45 1
    11    4    5 1
    12    4   46 1
    13    4   47 1
    14    5    6 1
    15    5   22 1
    16    5    7 1
    17    7   15 1
    18    7    8 2
    19    8    9 1
    20    8   19 1
    21    9   14 ar
    22    9   10 ar
    23   10   11 ar
    24   10   48 1
    25   11   12 ar
    26   11   49 1
    27   12   13 ar
    28   12   17 1
    29   13   14 ar
    30   13   50 1
    31   14   15 1
    32   15   16 1
    33   17   18 1
    34   18   51 1
    35   18   52 1
    36   18   53 1
    37   19   20 1
    38   19   54 1
    39   19   55 1
    40   20   21 1
    41   20   28 1
    42   20   22 1
    43   22   23 am
    44   23   24 2
    45   23   25 1
    46   25   26 1
    47   25   27 1
    48   25   30 1
    49   27   28 am
    50   27   56 1
    51   28   29 2
    52   30   31 1
    53   30   57 1
    54   30   58 1
    55   31   32 1
    56   31   59 1
    57   31   60 1
    58   32   33 2
    59   32   34 1
    60   34   35 1
    61   35   36 1
    62   35   37 1
    63   35   38 1
    64   36   61 1
    65   36   62 1
    66   36   63 1
    67   37   64 1
    68   37   65 1
    69   37   66 1
    70   38   67 1
    71   38   68 1
    72   38   69 1
@<TRIPOS>MOLECULE
ZINC03869685
   32    34     0     0     0
SMALL
USER_CHARGES

@<TRIPOS>ATOM
      1 C1          0.9741   -0.2755   -0.9644 C.ar      1 <0>        -0.0748
      2 C2          2.1569    0.4329   -0.9701 C.ar      1 <0>        -0.1346
      3 C3          2.3856    1.4156   -0.0177 C.ar      1 <0>         0.1032
      4 C4          1.4203    1.6918    0.9495 C.ar      1 <0>         0.0788
      5 C5          0.2328    0.9863    0.9617 C.ar      1 <0>        -0.0762
      6 C6          0.0021   -0.0041    0.0020 C.ar      1 <0>        -0.0447
      7 C7         -1.2637   -0.7605    0.0100 C.2       1 <0>         0.1350
      8 C8         -2.4363   -0.0759    0.1235 C.2       1 <0>        -0.0429
      9 C9         -3.6628   -0.7894    0.1327 C.2       1 <0>         0.4011
     10 O1         -4.7327   -0.2102    0.2323 O.2       1 <0>        -0.4484
     11 C10        -3.5946   -2.2549    0.0170 C.ar      1 <0>        -0.2690
     12 C11        -4.7561   -3.0387    0.0170 C.ar      1 <0>         0.2244
     13 C12        -4.6504   -4.4123   -0.0941 C.ar      1 <0>        -0.2081
     14 C13        -3.3994   -5.0103   -0.2044 C.ar      1 <0>         0.2000
     15 C14        -2.2463   -4.2416   -0.2047 C.ar      1 <0>        -0.1854
     16 C15        -2.3316   -2.8618   -0.0952 C.ar      1 <0>         0.1876
     17 O2         -1.2182   -2.0992   -0.1003 O.3       1 <0>        -0.1970
     18 O3         -3.3070   -6.3605   -0.3125 O.3       1 <0>        -0.4866
     19 O4         -5.9758   -2.4535    0.1257 O.3       1 <0>        -0.4726
     20 O5         -2.4312    1.2810    0.2275 O.3       1 <0>        -0.4502
     21 O6          1.6480    2.6557    1.8815 O.3       1 <0>        -0.4836
     22 O7          3.5534    2.1101   -0.0273 O.3       1 <0>        -0.4861
     23 H1          0.7971   -1.0371   -1.7094 H         1 <0>         0.1379
     24 H2          2.9075    0.2221   -1.7176 H         1 <0>         0.1421
     25 H3         -0.5155    1.1988    1.7108 H         1 <0>         0.1429
     26 H4         -5.5413   -5.0229   -0.0948 H         1 <0>         0.1515
     27 H5         -1.2805   -4.7174   -0.2903 H         1 <0>         0.1559
     28 H6         -3.3257   -6.6843   -1.2235 H         1 <0>         0.4050
     29 H7         -6.3751   -2.2160   -0.7224 H         1 <0>         0.4036
     30 H8         -3.3120    1.6729    0.3033 H         1 <0>         0.4079
     31 H9          1.3508    3.5370    1.6166 H         1 <0>         0.3905
     32 H10         3.5287    2.9137   -0.5647 H         1 <0>         0.3924
@<TRIPOS>BOND
     1    1    6 ar
     2    1    2 ar
     3    1   23 1
     4    2    3 ar
     5    2   24 1
     6    3    4 ar
     7    3   22 1
     8    4    5 ar
     9    4   21 1
    10    5    6 ar
    11    5   25 1
    12    6    7 1
    13    7   17 1
    14    7    8 2
    15    8    9 1
    16    8   20 1
    17    9   10 2
    18    9   11 1
    19   11   16 ar
    20   11   12 ar
    21   12   13 ar
    22   12   19 1
    23   13   14 ar
    24   13   26 1
    25   14   15 ar
    26   14   18 1
    27   15   16 ar
    28   15   27 1
    29   16   17 1
    30   18   28 1
    31   19   29 1
    32   20   30 1
    33   21   31 1
    34   22   32 1
@<TRIPOS>MOLECULE
ZINC03869685
   31    33     0     0     0
SMALL
USER_CHARGES

@<TRIPOS>ATOM
      1 C1          0.1390    1.1246   -0.8120 C.ar      1 <0>        -0.0626
      2 C2          1.3229    1.8301   -0.8179 C.ar      1 <0>        -0.1333
      3 C3          2.3812    1.4233   -0.0172 C.ar      1 <0>         0.0878
      4 C4          2.2522    0.2984    0.7970 C.ar      1 <0>         0.0757
      5 C5          1.0694   -0.4139    0.8086 C.ar      1 <0>        -0.0997
      6 C6          0.0021   -0.0041    0.0020 C.ar      1 <0>        -0.0194
      7 C7         -1.2620   -0.7597    0.0100 C.2       1 <0>         0.1007
      8 C8         -2.4587   -0.0763    0.1245 C.2       1 <0>        -0.0038
      9 C9         -3.6655   -0.7872    0.1324 C.2       1 <0>         0.3349
     10 C10        -3.6167   -2.1939    0.0219 C.2       1 <0>        -0.3331
     11 C11        -4.8018   -2.9593    0.0240 C.2       1 <0>         0.2664
     12 C12        -4.7326   -4.3182   -0.0844 C.2       1 <0>        -0.3749
     13 C13        -3.4871   -4.9570   -0.1979 C.2       1 <0>         0.3648
     14 O1         -3.4307   -6.2860   -0.3033 O.2       1 <0>        -0.6598
     15 C14        -2.3054   -4.2086   -0.2016 C.2       1 <0>        -0.3143
     16 C15        -2.3616   -2.8325   -0.0921 C.2       1 <0>         0.2118
     17 O2         -1.2290   -2.0988   -0.0996 O.3       1 <0>        -0.2018
     18 O3         -6.0073   -2.3463    0.1339 O.3       1 <0>        -0.4482
     19 O4         -4.8484   -0.1420    0.2437 O.3       1 <0>        -0.5747
     20 O5         -2.4638    1.2803    0.2294 O.3       1 <0>        -0.4649
     21 O6          3.2919   -0.0973    1.5794 O.3       1 <0>        -0.4856
     22 O7          3.5458    2.1225   -0.0269 O.3       1 <0>        -0.4881
     23 H1         -0.6843    1.4460   -1.4327 H         1 <0>         0.1397
     24 H2          1.4276    2.7014   -1.4473 H         1 <0>         0.1381
     25 H3          0.9685   -1.2854    1.4384 H         1 <0>         0.1410
     26 H4         -5.6395   -4.9047   -0.0825 H         1 <0>         0.1180
     27 H5         -1.3506   -4.7057   -0.2895 H         1 <0>         0.1230
     28 H6         -6.7597   -2.9537    0.1258 H         1 <0>         0.3847
     29 H7         -3.3475    1.6656    0.3047 H         1 <0>         0.4058
     30 H8          3.2925    0.2977    2.4620 H         1 <0>         0.3855
     31 H9          3.5825    2.8346    0.6263 H         1 <0>         0.3863
@<TRIPOS>BOND
     1    1    6 ar
     2    1    2 ar
     3    1   23 1
     4    2    3 ar
     5    2   24 1
     6    3    4 ar
     7    3   22 1
     8    4    5 ar
     9    4   21 1
    10    5    6 ar
    11    5   25 1
    12    6    7 1
    13    7   17 1
    14    7    8 2
    15    8    9 1
    16    8   20 1
    17    9   10 2
    18    9   19 1
    19   10   16 1
    20   10   11 1
    21   11   12 2
    22   11   18 1
    23   12   13 1
    24   12   26 1
    25   13   14 2
    26   13   15 1
    27   15   16 2
    28   15   27 1
    29   16   17 1
    30   18   28 1
    31   20   29 1
    32   21   30 1
    33   22   31 1
@<TRIPOS>MOLECULE
ZINC06484603
   41    43     0     0     0
SMALL
USER_CHARGES
5-hydroxy-2-(3-hydroxy-4-methoxy-phenyl)-3,7-dimethoxy-chromen-4-one
@<TRIPOS>ATOM
      1 C1         -7.8063    3.0880    9.7583 C.3       1 <0>         0.0196
      2 O1         -8.5683    3.0721    8.5495 O.3       1 <0>        -0.3017
      3 C2         -7.9400    2.6267    7.4300 C.ar      1 <0>         0.1165
      4 C3         -6.6166    2.2138    7.4969 C.ar      1 <0>        -0.1789
      5 C4         -5.9741    1.7619    6.3642 C.ar      1 <0>        -0.0783
      6 C5         -6.6558    1.7182    5.1448 C.ar      1 <0>        -0.0698
      7 C6         -7.9871    2.1386    5.0769 C.ar      1 <0>        -0.1201
      8 C7         -8.6259    2.5859    6.2175 C.ar      1 <0>         0.1265
      9 O2         -9.9228    2.9908    6.1561 O.3       1 <0>        -0.4966
     10 C8         -5.9703    1.2356    3.9318 C.2       1 <0>         0.1797
     11 C9         -6.5943    0.3106    3.1497 C.2       1 <0>        -0.0808
     12 C10        -5.9475   -0.1641    1.9793 C.2       1 <0>         0.4136
     13 O3         -6.4757   -0.9921    1.2544 O.2       1 <0>        -0.4411
     14 C11        -4.6153    0.3811    1.6733 C.ar      1 <0>        -0.2991
     15 C12        -3.9044   -0.0315    0.5386 C.ar      1 <0>         0.2875
     16 C13        -2.6554    0.5037    0.2859 C.ar      1 <0>        -0.3395
     17 C14        -2.1099    1.4449    1.1528 C.ar      1 <0>         0.2332
     18 C15        -2.8050    1.8538    2.2799 C.ar      1 <0>        -0.2211
     19 C16        -4.0617    1.3324    2.5478 C.ar      1 <0>         0.2234
     20 O4         -4.7529    1.7241    3.6387 O.3       1 <0>        -0.2031
     21 O5         -0.8821    1.9638    0.8953 O.3       1 <0>        -0.3028
     22 C17        -0.2139    1.4975   -0.2787 C.3       1 <0>         0.0195
     23 O6         -4.4380   -0.9502   -0.3059 O.3       1 <0>        -0.4679
     24 O7         -7.8275   -0.1545    3.4886 O.3       1 <0>        -0.2977
     25 C18        -7.8794   -1.3750    4.2300 C.3       1 <0>         0.0272
     26 H1         -8.4308    3.4677   10.5804 H         1 <0>         0.1049
     27 H2         -6.9306    3.7414    9.6311 H         1 <0>         0.0587
     28 H3         -7.4711    2.0671    9.9938 H         1 <0>         0.0583
     29 H4         -6.0888    2.2471    8.4385 H         1 <0>         0.1429
     30 H5         -4.9441    1.4419    6.4189 H         1 <0>         0.1348
     31 H6         -8.5162    2.1108    4.1358 H         1 <0>         0.1472
     32 H7        -10.4643    2.9587    5.1992 H         1 <0>         0.4362
     33 H8         -2.1014    0.1902   -0.5866 H         1 <0>         0.1460
     34 H9         -2.3692    2.5820    2.9479 H         1 <0>         0.1538
     35 H10         0.7631    1.9952   -0.3666 H         1 <0>         0.1096
     36 H11        -0.8242    1.7287   -1.1642 H         1 <0>         0.0628
     37 H12        -0.0664    0.4097   -0.2090 H         1 <0>         0.0627
     38 H13        -3.8763   -1.2712   -1.1955 H         1 <0>         0.4388
     39 H14        -8.9283   -1.6346    4.4359 H         1 <0>         0.0991
     40 H15        -7.3393   -1.2501    5.1801 H         1 <0>         0.0456
     41 H16        -7.4106   -2.1798    3.6447 H         1 <0>         0.0504
@<TRIPOS>BOND
     1    1    2 1
     2    1   26 1
     3    1   27 1
     4    1   28 1
     5    2    3 1
     6    3    8 ar
     7    3    4 ar
     8    4    5 ar
     9    4   29 1
    10    5    6 ar
    11    5   30 1
    12    6    7 ar
    13    6   10 1
    14    7    8 ar
    15    7   31 1
    16    8    9 1
    17    9   32 1
    18   10   20 1
    19   10   11 2
    20   11   12 1
    21   11   24 1
    22   12   13 2
    23   12   14 1
    24   14   19 ar
    25   14   15 ar
    26   15   16 ar
    27   15   23 1
    28   16   17 ar
    29   16   33 1
    30   17   18 ar
    31   17   21 1
    32   18   19 ar
    33   18   34 1
    34   19   20 1
    35   21   22 1
    36   22   35 1
    37   22   36 1
    38   22   37 1
    39   23   38 1
    40   24   25 1
    41   25   39 1
    42   25   40 1
    43   25   41 1
@<TRIPOS>MOLECULE
ZINC01531669
   51    53     0     0     0
SMALL
USER_CHARGES

@<TRIPOS>ATOM
      1 C1         -0.0359    1.4012   -0.2458 C.3       1 <0>         0.0217
      2 O1         -0.0157   -0.0144   -0.0513 O.3       1 <0>        -0.2994
      3 C2         -1.2129   -0.6562   -0.0667 C.ar      1 <0>         0.1317
      4 C3         -2.3819    0.0638   -0.2710 C.ar      1 <0>        -0.1780
      5 C4         -3.5990   -0.5825   -0.2880 C.ar      1 <0>        -0.0684
      6 C5         -3.6582   -1.9659   -0.0992 C.ar      1 <0>        -0.0757
      7 C6         -2.4810   -2.6907    0.1066 C.ar      1 <0>        -0.1335
      8 C7         -1.2639   -2.0369    0.1171 C.ar      1 <0>         0.0974
      9 O2         -0.1161   -2.7399    0.3114 O.3       1 <0>        -0.3021
     10 C8         -0.2428   -4.1517    0.4929 C.3       1 <0>         0.0229
     11 C9         -4.9599   -2.6595   -0.1165 C.2       1 <0>         0.2140
     12 C10        -6.0882   -1.9280   -0.3241 C.2       1 <0>        -0.3142
     13 C11        -7.3459   -2.5753   -0.3442 C.2       1 <0>         0.4253
     14 O3         -8.3778   -1.9500   -0.5280 O.2       1 <0>        -0.4460
     15 C12        -7.3618   -4.0333   -0.1350 C.ar      1 <0>        -0.2326
     16 C13        -6.1380   -4.6943    0.0710 C.ar      1 <0>         0.1525
     17 O4         -4.9856   -3.9887    0.0676 O.3       1 <0>        -0.2072
     18 C14        -6.1289   -6.0691    0.2703 C.ar      1 <0>         0.0589
     19 C15        -7.3221   -6.7794    0.2651 C.ar      1 <0>         0.1389
     20 C16        -8.5349   -6.1254    0.0611 C.ar      1 <0>         0.0427
     21 C17        -8.5609   -4.7544   -0.1397 C.ar      1 <0>         0.1800
     22 O5         -9.7433   -4.1144   -0.3387 O.3       1 <0>        -0.3104
     23 C18       -10.1941   -3.9896   -1.6890 C.3       1 <0>         0.0487
     24 O6         -9.6971   -6.8346    0.0586 O.3       1 <0>        -0.3165
     25 C19       -10.3622   -6.9946    1.3132 C.3       1 <0>         0.0367
     26 O7         -7.3064   -8.1247    0.4603 O.3       1 <0>        -0.3190
     27 C20        -7.1842   -8.9474   -0.7017 C.3       1 <0>         0.0398
     28 O8         -4.9499   -6.7201    0.4703 O.3       1 <0>        -0.3122
     29 C21        -4.4982   -6.8441    1.8204 C.3       1 <0>         0.0321
     30 H1          0.9828    1.7873   -0.2110 H         1 <0>         0.1054
     31 H2         -0.4775    1.6283   -1.2162 H         1 <0>         0.0596
     32 H3         -0.6285    1.8677    0.5412 H         1 <0>         0.0596
     33 H4         -2.3376    1.1330   -0.4167 H         1 <0>         0.1482
     34 H5         -4.5071   -0.0198   -0.4469 H         1 <0>         0.1426
     35 H6         -2.5223   -3.7600    0.2529 H         1 <0>         0.1487
     36 H7         -0.8604   -4.3515    1.3685 H         1 <0>         0.0568
     37 H8         -0.7095   -4.5909   -0.3888 H         1 <0>         0.0584
     38 H9          0.7449   -4.5896    0.6374 H         1 <0>         0.1049
     39 H10        -6.0241   -0.8601   -0.4722 H         1 <0>         0.1663
     40 H11       -10.3214   -4.9815   -2.1227 H         1 <0>         0.0507
     41 H12       -11.1469   -3.4605   -1.7065 H         1 <0>         0.1017
     42 H13        -9.4580   -3.4317   -2.2677 H         1 <0>         0.0497
     43 H14        -9.7349   -7.5807    1.9848 H         1 <0>         0.0516
     44 H15       -10.5490   -6.0149    1.7530 H         1 <0>         0.0522
     45 H16       -11.3101   -7.5102    1.1588 H         1 <0>         0.0994
     46 H17        -7.9765   -8.6989   -1.4078 H         1 <0>         0.0546
     47 H18        -6.2144   -8.7752   -1.1685 H         1 <0>         0.0556
     48 H19        -7.2685   -9.9957   -0.4151 H         1 <0>         0.1019
     49 H20        -3.5143   -7.3130    1.8327 H         1 <0>         0.1009
     50 H21        -4.4352   -5.8553    2.2747 H         1 <0>         0.0480
     51 H22        -5.2006   -7.4586    2.3835 H         1 <0>         0.0550
@<TRIPOS>BOND
     1    1    2 1
     2    1   30 1
     3    1   31 1
     4    1   32 1
     5    2    3 1
     6    3    8 ar
     7    3    4 ar
     8    4    5 ar
     9    4   33 1
    10    5    6 ar
    11    5   34 1
    12    6    7 ar
    13    6   11 1
    14    7    8 ar
    15    7   35 1
    16    8    9 1
    17    9   10 1
    18   10   36 1
    19   10   37 1
    20   10   38 1
    21   11   17 1
    22   11   12 2
    23   12   13 1
    24   12   39 1
    25   13   14 2
    26   13   15 1
    27   15   21 ar
    28   15   16 ar
    29   16   17 1
    30   16   18 ar
    31   18   19 ar
    32   18   28 1
    33   19   20 ar
    34   19   26 1
    35   20   21 ar
    36   20   24 1
    37   21   22 1
    38   22   23 1
    39   23   40 1
    40   23   41 1
    41   23   42 1
    42   24   25 1
    43   25   43 1
    44   25   44 1
    45   25   45 1
    46   26   27 1
    47   27   46 1
    48   27   47 1
    49   27   48 1
    50   28   29 1
    51   29   49 1
    52   29   50 1
    53   29   51 1
@<TRIPOS>MOLECULE
ZINC00338222
   35    37     0     0     0
SMALL
USER_CHARGES
5-hydroxy-7-methoxy-6-methyl-2-phenyl-chromen-4-one
@<TRIPOS>ATOM
      1 C1         -0.0127    1.0858    0.0080 C.3       1 <0>        -0.1012
      2 C2         -0.7181    1.5718    1.2479 C.ar      1 <0>        -0.1734
      3 C3          0.0068    1.8065    2.4115 C.ar      1 <0>         0.2075
      4 C4         -0.6266    2.2541    3.5604 C.ar      1 <0>        -0.2446
      5 C5         -1.9957    2.4716    3.5582 C.ar      1 <0>         0.1997
      6 C6         -2.7307    2.2347    2.3837 C.ar      1 <0>        -0.2861
      7 C7         -2.0832    1.7887    1.2244 C.ar      1 <0>         0.2351
      8 O1         -2.7915    1.5656    0.0885 O.3       1 <0>        -0.4679
      9 C8         -4.1838    2.4715    2.4048 C.2       1 <0>         0.4248
     10 O2         -4.8716    2.2826    1.4147 O.2       1 <0>        -0.4574
     11 C9         -4.7519    2.9276    3.6195 C.2       1 <0>        -0.3091
     12 C10        -3.9521    3.1263    4.6999 C.2       1 <0>         0.2038
     13 O3         -2.6284    2.9064    4.6684 O.3       1 <0>        -0.2193
     14 C11        -4.5630    3.6021    5.9575 C.ar      1 <0>        -0.0731
     15 C12        -5.9366    3.8459    6.0218 C.ar      1 <0>        -0.0806
     16 C13        -6.5013    4.2856    7.2010 C.ar      1 <0>        -0.1203
     17 C14        -5.7084    4.4952    8.3155 C.ar      1 <0>        -0.0937
     18 C15        -4.3459    4.2607    8.2574 C.ar      1 <0>        -0.1229
     19 C16        -3.7688    3.8158    7.0862 C.ar      1 <0>        -0.0805
     20 O4          1.3477    1.5956    2.4221 O.3       1 <0>        -0.2982
     21 C17         2.0356    1.8549    3.6475 C.3       1 <0>         0.0197
     22 H1          0.0021   -0.0041    0.0020 H         1 <0>         0.0702
     23 H2          1.0099    1.4631    0.0003 H         1 <0>         0.0743
     24 H3         -0.5399    1.4469   -0.8751 H         1 <0>         0.0758
     25 H4         -0.0531    2.4332    4.4579 H         1 <0>         0.1516
     26 H5         -3.1339    0.6647    0.0091 H         1 <0>         0.4026
     27 H6         -5.8132    3.1164    3.6864 H         1 <0>         0.1626
     28 H7         -6.5558    3.6870    5.1514 H         1 <0>         0.1361
     29 H8         -7.5640    4.4707    7.2533 H         1 <0>         0.1346
     30 H9         -6.1551    4.8432    9.2352 H         1 <0>         0.1306
     31 H10        -3.7330    4.4260    9.1311 H         1 <0>         0.1321
     32 H11        -2.7054    3.6328    7.0423 H         1 <0>         0.1340
     33 H12         1.6324    1.2155    4.4328 H         1 <0>         0.0626
     34 H13         3.0978    1.6466    3.5190 H         1 <0>         0.1084
     35 H14         1.9014    2.9003    3.9254 H         1 <0>         0.0625
@<TRIPOS>BOND
     1    1    2 1
     2    1   22 1
     3    1   23 1
     4    1   24 1
     5    2    7 ar
     6    2    3 ar
     7    3    4 ar
     8    3   20 1
     9    4    5 ar
    10    4   25 1
    11    5   13 1
    12    5    6 ar
    13    6    7 ar
    14    6    9 1
    15    7    8 1
    16    8   26 1
    17    9   10 2
    18    9   11 1
    19   11   12 2
    20   11   27 1
    21   12   13 1
    22   12   14 1
    23   14   19 ar
    24   14   15 ar
    25   15   16 ar
    26   15   28 1
    27   16   17 ar
    28   16   29 1
    29   17   18 ar
    30   17   30 1
    31   18   19 ar
    32   18   31 1
    33   19   32 1
    34   20   21 1
    35   21   33 1
    36   21   34 1
    37   21   35 1
@<TRIPOS>MOLECULE
ZINC05733766
   44    46     0     0     0
SMALL
USER_CHARGES

@<TRIPOS>ATOM
      1 C1         -1.1570    1.1478    0.6199 C.3       1 <0>         0.0226
      2 O1         -0.3496    0.0300    0.2447 O.3       1 <0>        -0.3012
      3 C2          0.3433   -0.5905    1.2353 C.ar      1 <0>         0.1288
      4 C3          0.2415   -0.1341    2.5420 C.ar      1 <0>        -0.1804
      5 C4          0.9421   -0.7598    3.5507 C.ar      1 <0>        -0.0489
      6 C5          1.7572   -1.8571    3.2586 C.ar      1 <0>        -0.0687
      7 C6          1.8591   -2.3168    1.9425 C.ar      1 <0>        -0.1349
      8 C7          1.1499   -1.6874    0.9374 C.ar      1 <0>         0.0944
      9 O2          1.2431   -2.1350   -0.3434 O.3       1 <0>        -0.3029
     10 C8          2.0881   -3.2636   -0.5764 C.3       1 <0>         0.0234
     11 C9          2.5079   -2.5277    4.3360 C.2       1 <0>         0.1816
     12 C10         3.2173   -1.7649    5.2143 C.2       1 <0>        -0.0807
     13 C11         3.9450   -2.3954    6.2567 C.2       1 <0>         0.4098
     14 O3          4.5915   -1.7447    7.0622 O.2       1 <0>        -0.4451
     15 C12         3.8896   -3.8641    6.3289 C.ar      1 <0>        -0.2893
     16 C13         4.5772   -4.5692    7.3257 C.ar      1 <0>         0.2447
     17 C14         4.4998   -5.9487    7.3602 C.ar      1 <0>        -0.2678
     18 C15         3.7448   -6.6303    6.4114 C.ar      1 <0>         0.2125
     19 C16         3.0624   -5.9398    5.4225 C.ar      1 <0>        -0.1903
     20 C17         3.1269   -4.5554    5.3716 C.ar      1 <0>         0.2027
     21 O4          2.4628   -3.8685    4.4185 O.3       1 <0>        -0.2033
     22 O5          3.6760   -7.9855    6.4544 O.3       1 <0>        -0.3022
     23 C18         4.4018   -8.6392    7.4974 C.3       1 <0>         0.0215
     24 O6          5.3141   -3.9024    8.2500 O.3       1 <0>        -0.4742
     25 O7          3.2282   -0.4095    5.0926 O.3       1 <0>        -0.2954
     26 C19         4.4751    0.2016    4.7553 C.3       1 <0>         0.0267
     27 H1         -0.5268    1.9185    1.0637 H         1 <0>         0.0588
     28 H2         -1.6545    1.5492   -0.2630 H         1 <0>         0.1041
     29 H3         -1.9054    0.8283    1.3450 H         1 <0>         0.0587
     30 H4         -0.3879    0.7137    2.7690 H         1 <0>         0.1457
     31 H5          0.8616   -0.4021    4.5665 H         1 <0>         0.1414
     32 H6          2.4877   -3.1643    1.7123 H         1 <0>         0.1428
     33 H7          3.1076   -3.0225   -0.2755 H         1 <0>         0.0555
     34 H8          1.7288   -4.1126    0.0052 H         1 <0>         0.0574
     35 H9          2.0723   -3.5166   -1.6365 H         1 <0>         0.1041
     36 H10         5.0272   -6.4989    8.1255 H         1 <0>         0.1499
     37 H11         2.4800   -6.4801    4.6909 H         1 <0>         0.1564
     38 H12         4.0353   -8.2965    8.4650 H         1 <0>         0.0629
     39 H13         4.2620   -9.7172    7.4169 H         1 <0>         0.1092
     40 H14         5.4619   -8.4025    7.4058 H         1 <0>         0.0634
     41 H15         4.8199   -3.6560    9.0438 H         1 <0>         0.4045
     42 H16         5.2344   -0.0997    5.4770 H         1 <0>         0.0582
     43 H17         4.7767   -0.1152    3.7570 H         1 <0>         0.0450
     44 H18         4.3654    1.2859    4.7748 H         1 <0>         0.0985
@<TRIPOS>BOND
     1    1    2 1
     2    1   27 1
     3    1   28 1
     4    1   29 1
     5    2    3 1
     6    3    8 ar
     7    3    4 ar
     8    4    5 ar
     9    4   30 1
    10    5    6 ar
    11    5   31 1
    12    6    7 ar
    13    6   11 1
    14    7    8 ar
    15    7   32 1
    16    8    9 1
    17    9   10 1
    18   10   33 1
    19   10   34 1
    20   10   35 1
    21   11   21 1
    22   11   12 2
    23   12   13 1
    24   12   25 1
    25   13   14 2
    26   13   15 1
    27   15   20 ar
    28   15   16 ar
    29   16   17 ar
    30   16   24 1
    31   17   18 ar
    32   17   36 1
    33   18   19 ar
    34   18   22 1
    35   19   20 ar
    36   19   37 1
    37   20   21 1
    38   22   23 1
    39   23   38 1
    40   23   39 1
    41   23   40 1
    42   24   41 1
    43   25   26 1
    44   26   42 1
    45   26   43 1
    46   26   44 1
@<TRIPOS>MOLECULE
ZINC01614080
   55    57     0     0     0
SMALL
USER_CHARGES
2-(3,4-dimethoxyphenyl)-3,5,6,7,8-pentamethoxy-chromen-4-one
@<TRIPOS>ATOM
      1 C1         -6.4597   -1.6637    0.3781 C.3       1 <0>         0.0223
      2 O1         -6.2242   -0.4973    1.1693 O.3       1 <0>        -0.3006
      3 C2         -5.0401    0.1436    0.9861 C.ar      1 <0>         0.1315
      4 C3         -4.1254   -0.3427    0.0626 C.ar      1 <0>        -0.1804
      5 C4         -2.9226    0.3032   -0.1269 C.ar      1 <0>        -0.0472
      6 C5         -2.6219    1.4509    0.6119 C.ar      1 <0>        -0.0745
      7 C6         -3.5412    1.9375    1.5457 C.ar      1 <0>        -0.1334
      8 C7         -4.7471    1.2875    1.7264 C.ar      1 <0>         0.0948
      9 O2         -5.6459    1.7611    2.6304 O.3       1 <0>        -0.3020
     10 C8         -5.2798    2.9378    3.3540 C.3       1 <0>         0.0234
     11 C9         -1.3356    2.1433    0.4111 C.2       1 <0>         0.1869
     12 C10        -0.1880    1.4082    0.4097 C.2       1 <0>        -0.0852
     13 C11         1.0573    2.0580    0.2115 C.2       1 <0>         0.4121
     14 O3          2.1046    1.4310    0.1986 O.2       1 <0>        -0.4287
     15 C12         1.0376    3.5174    0.0215 C.ar      1 <0>        -0.2294
     16 C13        -0.2020    4.1812    0.0465 C.ar      1 <0>         0.1490
     17 O4         -1.3378    3.4764    0.2423 O.3       1 <0>        -0.1934
     18 C14        -0.2431    5.5588   -0.1308 C.ar      1 <0>         0.0608
     19 C15         0.9333    6.2687   -0.3305 C.ar      1 <0>         0.1412
     20 C16         2.1618    5.6121   -0.3550 C.ar      1 <0>         0.0437
     21 C17         2.2202    4.2389   -0.1799 C.ar      1 <0>         0.1813
     22 O5          3.4178    3.5966   -0.2041 O.3       1 <0>        -0.3109
     23 C18         3.8757    3.1253   -1.4731 C.3       1 <0>         0.0482
     24 O6          3.3072    6.3213   -0.5514 O.3       1 <0>        -0.3158
     25 C19         3.9712    6.8167    0.6130 C.3       1 <0>         0.0366
     26 O7          0.8859    7.6163   -0.5032 O.3       1 <0>        -0.3187
     27 C20         0.7455    8.0942   -1.8426 C.3       1 <0>         0.0396
     28 O8         -1.4372    6.2127   -0.1081 O.3       1 <0>        -0.3105
     29 C21        -1.8939    6.6856    1.1606 C.3       1 <0>         0.0333
     30 O9         -0.2368    0.0603    0.5913 O.3       1 <0>        -0.2940
     31 C22        -0.0227   -0.4236    1.9188 C.3       1 <0>         0.0289
     32 H1         -7.4383   -2.0769    0.6224 H         1 <0>         0.1046
     33 H2         -6.4311   -1.3978   -0.6786 H         1 <0>         0.0592
     34 H3         -5.6894   -2.4061    0.5870 H         1 <0>         0.0592
     35 H4         -4.3564   -1.2297   -0.5087 H         1 <0>         0.1468
     36 H5         -2.2124   -0.0776   -0.8460 H         1 <0>         0.1428
     37 H6         -3.3111    2.8216    2.1217 H         1 <0>         0.1415
     38 H7         -6.0832    3.2075    4.0395 H         1 <0>         0.1046
     39 H8         -4.3679    2.7473    3.9199 H         1 <0>         0.0551
     40 H9         -5.1091    3.7561    2.6545 H         1 <0>         0.0570
     41 H10         4.8406    2.6331   -1.3512 H         1 <0>         0.1022
     42 H11         3.1546    2.4159   -1.8790 H         1 <0>         0.0502
     43 H12         3.9813    3.9675   -2.1569 H         1 <0>         0.0517
     44 H13         3.2762    7.4175    1.1996 H         1 <0>         0.0512
     45 H14         4.3242    5.9788    1.2142 H         1 <0>         0.0530
     46 H15         4.8198    7.4318    0.3133 H         1 <0>         0.0997
     47 H16         1.5441    7.6835   -2.4604 H         1 <0>         0.0550
     48 H17        -0.2195    7.7809   -2.2408 H         1 <0>         0.0563
     49 H18         0.8049    9.1825   -1.8482 H         1 <0>         0.1024
     50 H19        -2.0827    5.8371    1.8182 H         1 <0>         0.0471
     51 H20        -1.1327    7.3271    1.6047 H         1 <0>         0.0543
     52 H21        -2.8146    7.2535    1.0268 H         1 <0>         0.1018
     53 H22         0.9654   -0.1174    2.2621 H         1 <0>         0.0507
     54 H23        -0.7822   -0.0108    2.5828 H         1 <0>         0.0450
     55 H24        -0.0882   -1.5116    1.9238 H         1 <0>         0.0994
@<TRIPOS>BOND
     1    1    2 1
     2    1   32 1
     3    1   33 1
     4    1   34 1
     5    2    3 1
     6    3    8 ar
     7    3    4 ar
     8    4    5 ar
     9    4   35 1
    10    5    6 ar
    11    5   36 1
    12    6    7 ar
    13    6   11 1
    14    7    8 ar
    15    7   37 1
    16    8    9 1
    17    9   10 1
    18   10   38 1
    19   10   39 1
    20   10   40 1
    21   11   17 1
    22   11   12 2
    23   12   13 1
    24   12   30 1
    25   13   14 2
    26   13   15 1
    27   15   21 ar
    28   15   16 ar
    29   16   17 1
    30   16   18 ar
    31   18   19 ar
    32   18   28 1
    33   19   20 ar
    34   19   26 1
    35   20   21 ar
    36   20   24 1
    37   21   22 1
    38   22   23 1
    39   23   41 1
    40   23   42 1
    41   23   43 1
    42   24   25 1
    43   25   44 1
    44   25   45 1
    45   25   46 1
    46   26   27 1
    47   27   47 1
    48   27   48 1
    49   27   49 1
    50   28   29 1
    51   29   50 1
    52   29   51 1
    53   29   52 1
    54   30   31 1
    55   31   53 1
    56   31   54 1
    57   31   55 1
@<TRIPOS>MOLECULE
ZINC19632614
   55    58     0     0     0
SMALL
USER_CHARGES

@<TRIPOS>ATOM
      1 C1         -0.7374    1.4118    0.5253 C.3       1 <0>         0.0199
      2 O1         -0.7263   -0.0171    0.5247 O.3       1 <0>        -0.2961
      3 C2          0.0734   -0.6280    1.4373 C.ar      1 <0>         0.1647
      4 C3          0.8188    0.1348    2.3090 C.ar      1 <0>        -0.1833
      5 C4          1.6420   -0.4976    3.2485 C.ar      1 <0>         0.2017
      6 C5          1.6952   -1.9130    3.2874 C.ar      1 <0>        -0.1805
      7 C6          0.9277   -2.6653    2.3903 C.ar      1 <0>        -0.1504
      8 C7          0.1268   -2.0280    1.4855 C.ar      1 <0>         0.1167
      9 O2         -0.6229   -2.7597    0.6185 O.3       1 <0>        -0.2957
     10 C8         -0.5255   -4.1819    0.7171 C.3       1 <0>         0.0569
     11 C9         -1.4334   -4.8292   -0.3307 C.3       1 <0>        -0.1162
     12 C10        -1.3291   -6.3519   -0.2252 C.3       1 <0>         0.0590
     13 N1         -2.2008   -6.9733   -1.2311 N.3       1 <0>        -0.5361
     14 C11        -3.6165   -6.7053   -0.9393 C.3       1 <0>         0.0126
     15 C12        -4.4841   -7.3184   -2.0416 C.3       1 <0>         0.0623
     16 O3         -4.2065   -8.7181   -2.1368 O.3       1 <0>        -0.3850
     17 C13        -2.8368   -9.0154   -2.4209 C.3       1 <0>         0.0626
     18 C14        -1.9524   -8.4195   -1.3224 C.3       1 <0>         0.0175
     19 C15         2.5361   -2.5234    4.2482 C.ar      1 <0>         0.4639
     20 N2          3.2308   -1.7396    5.0625 N.ar      1 <0>        -0.5813
     21 C16         3.1493   -0.4206    4.9892 C.ar      1 <0>         0.3427
     22 N3          2.3876    0.1999    4.1200 N.ar      1 <0>        -0.5394
     23 N4          2.6306   -3.8977    4.3362 N.pl3     1 <0>        -0.6396
     24 C17         3.3713   -4.4833    5.3684 C.ar      1 <0>         0.1586
     25 C18         3.4039   -3.8902    6.6240 C.ar      1 <0>        -0.0764
     26 C19         4.1353   -4.4698    7.6421 C.ar      1 <0>        -0.1191
     27 C20         4.8362   -5.6416    7.4124 C.ar      1 <0>         0.0961
     28 C21         4.8054   -6.2354    6.1608 C.ar      1 <0>        -0.0542
     29 C22         4.0703   -5.6613    5.1406 C.ar      1 <0>        -0.1133
     30 Cl1         5.6852   -7.7046    5.8756 Cl        1 <0>        -0.0422
     31 F1          5.5513   -6.2065    8.4097 F         1 <0>        -0.1250
     32 H1          0.2683    1.7831    0.3285 H         1 <0>         0.0625
     33 H2         -1.4151    1.7702   -0.2495 H         1 <0>         0.1078
     34 H3         -1.0740    1.7722    1.4974 H         1 <0>         0.0624
     35 H4          0.7687    1.2128    2.2678 H         1 <0>         0.1567
     36 H5          0.9651   -3.7443    2.4164 H         1 <0>         0.1382
     37 H6          0.5060   -4.4884    0.5431 H         1 <0>         0.0655
     38 H7         -0.8359   -4.4993    1.7126 H         1 <0>         0.0633
     39 H8         -2.4649   -4.5227   -0.1568 H         1 <0>         0.0772
     40 H9         -1.1230   -4.5118   -1.3262 H         1 <0>         0.0870
     41 H10        -0.2976   -6.6584   -0.3991 H         1 <0>         0.0806
     42 H11        -1.6394   -6.6693    0.7704 H         1 <0>         0.0394
     43 H12        -3.8805   -7.1489    0.0207 H         1 <0>         0.0445
     44 H13        -3.7829   -5.6288   -0.9016 H         1 <0>         0.0906
     45 H14        -5.5369   -7.1717   -1.8001 H         1 <0>         0.0996
     46 H15        -4.2579   -6.8370   -2.9930 H         1 <0>         0.0614
     47 H16        -2.6980  -10.0960   -2.4536 H         1 <0>         0.0999
     48 H17        -2.5626   -8.5833   -3.3833 H         1 <0>         0.0613
     49 H18        -0.9041   -8.5942   -1.5643 H         1 <0>         0.0880
     50 H19        -2.1898   -8.8905   -0.3685 H         1 <0>         0.0446
     51 H20         3.7361    0.1714    5.6759 H         1 <0>         0.1991
     52 H21         2.1833   -4.4574    3.6823 H         1 <0>         0.4215
     53 H22         2.8578   -2.9760    6.8040 H         1 <0>         0.1516
     54 H23         4.1608   -4.0084    8.6183 H         1 <0>         0.1509
     55 H24         4.0430   -6.1262    4.1662 H         1 <0>         0.1452
@<TRIPOS>BOND
     1    1    2 1
     2    1   32 1
     3    1   33 1
     4    1   34 1
     5    2    3 1
     6    3    8 ar
     7    3    4 ar
     8    4    5 ar
     9    4   35 1
    10    5   22 ar
    11    5    6 ar
    12    6    7 ar
    13    6   19 ar
    14    7    8 ar
    15    7   36 1
    16    8    9 1
    17    9   10 1
    18   10   11 1
    19   10   37 1
    20   10   38 1
    21   11   12 1
    22   11   39 1
    23   11   40 1
    24   12   13 1
    25   12   41 1
    26   12   42 1
    27   13   18 1
    28   13   14 1
    29   14   15 1
    30   14   43 1
    31   14   44 1
    32   15   16 1
    33   15   45 1
    34   15   46 1
    35   16   17 1
    36   17   18 1
    37   17   47 1
    38   17   48 1
    39   18   49 1
    40   18   50 1
    41   19   20 ar
    42   19   23 1
    43   20   21 ar
    44   21   22 ar
    45   21   51 1
    46   23   24 1
    47   23   52 1
    48   24   29 ar
    49   24   25 ar
    50   25   26 ar
    51   25   53 1
    52   26   27 ar
    53   26   54 1
    54   27   28 ar
    55   27   31 1
    56   28   29 ar
    57   28   30 1
    58   29   55 1
@<TRIPOS>MOLECULE
ZINC19632614
   57    60     0     0     0
SMALL
USER_CHARGES

@<TRIPOS>ATOM
      1 C1          0.4957    0.6763   -1.2292 C.3       1 <0>         0.0097
      2 O1          0.3708   -0.6717   -0.7717 O.3       1 <0>        -0.2780
      3 C2         -0.8861   -1.1806   -0.6878 C.ar      1 <0>         0.2175
      4 C3         -1.9704   -0.3964   -1.0449 C.ar      1 <0>        -0.2163
      5 C4         -3.2517   -0.9159   -0.9595 C.ar      1 <0>         0.2109
      6 C5         -3.4429   -2.2355   -0.5110 C.ar      1 <0>        -0.1696
      7 C6         -2.3484   -3.0191   -0.1533 C.ar      1 <0>        -0.1343
      8 C7         -1.0748   -2.4922   -0.2475 C.ar      1 <0>         0.1172
      9 O2         -0.0002   -3.2528    0.0951 O.3       1 <0>        -0.2792
     10 C8         -0.2516   -4.6209    0.4223 C.3       1 <0>         0.0522
     11 C9          1.0783   -5.3474    0.6333 C.3       1 <0>        -0.1519
     12 C10         0.8148   -6.8369    0.8638 C.3       1 <0>        -0.0151
     13 N1          2.0946   -7.5463    0.9928 N.4       1 <0>        -0.3820
     14 C11         2.8253   -7.4743   -0.2800 C.3       1 <0>        -0.0514
     15 C12         4.1584   -8.2140   -0.1429 C.3       1 <0>         0.0361
     16 O3          3.9086   -9.5683    0.2435 O.3       1 <0>        -0.3530
     17 C13         3.1775   -9.6905    1.4668 C.3       1 <0>         0.0362
     18 C14         1.8426   -8.9535    1.3327 C.3       1 <0>        -0.0460
     19 C15        -4.8247   -2.7457   -0.4360 C.cat     1 <0>         0.5319
     20 N2         -5.0725   -3.9771   -0.0222 N.pl3     1 <0>        -0.5604
     21 C16        -4.2014   -4.6012    0.8249 C.ar      1 <0>         0.0974
     22 C17        -3.7272   -3.9360    1.9592 C.ar      1 <0>        -0.0816
     23 C18        -2.8483   -4.5713    2.8111 C.ar      1 <0>        -0.1175
     24 C19        -2.4343   -5.8665    2.5448 C.ar      1 <0>         0.1198
     25 C20        -2.9002   -6.5323    1.4212 C.ar      1 <0>        -0.0716
     26 C21        -3.7851   -5.9094    0.5642 C.ar      1 <0>        -0.0825
     27 Cl1        -2.3754   -8.1547    1.0956 Cl        1 <0>        -0.0183
     28 F1         -1.5728   -6.4831    3.3830 F         1 <0>        -0.1112
     29 N3         -5.8317   -1.9199   -0.8014 N.2       1 <0>        -0.5495
     30 C22        -5.6076   -0.7054   -1.2106 C.2       1 <0>         0.4712
     31 N4         -4.3672   -0.1695   -1.3053 N.pl3     1 <0>        -0.5812
     32 H1         -4.2589    0.7427   -1.6168 H         1 <0>         0.4503
     33 H2          1.5487    0.9571   -1.2491 H         1 <0>         0.1245
     34 H3          0.0784    0.7596   -2.2327 H         1 <0>         0.0727
     35 H4         -0.0447    1.3405   -0.5547 H         1 <0>         0.0731
     36 H5         -1.8176    0.6161   -1.3882 H         1 <0>         0.1754
     37 H6         -2.4939   -4.0322    0.1915 H         1 <0>         0.1665
     38 H7         -0.8431   -4.6731    1.3364 H         1 <0>         0.0710
     39 H8         -0.7992   -5.0947   -0.3924 H         1 <0>         0.0775
     40 H9          1.7051   -5.2217   -0.2495 H         1 <0>         0.1094
     41 H10         1.5867   -4.9297    1.5023 H         1 <0>         0.1099
     42 H11         0.2340   -6.9660    1.7771 H         1 <0>         0.1336
     43 H12         0.2581   -7.2423    0.0189 H         1 <0>         0.1350
     44 H13         2.2311   -7.9385   -1.0671 H         1 <0>         0.1411
     45 H14         3.0128   -6.4308   -0.5330 H         1 <0>         0.1444
     46 H15         4.6829   -8.1989   -1.0982 H         1 <0>         0.1447
     47 H16         4.7692   -7.7256    0.6163 H         1 <0>         0.0840
     48 H17         2.9923  -10.7439    1.6765 H         1 <0>         0.1456
     49 H18         3.7548   -9.2526    2.2811 H         1 <0>         0.0847
     50 H19         1.3007   -9.0081    2.2769 H         1 <0>         0.1448
     51 H20         1.2488   -9.4172    0.5450 H         1 <0>         0.1398
     52 H21        -4.0484   -2.9261    2.1679 H         1 <0>         0.1559
     53 H22        -2.4815   -4.0580    3.6876 H         1 <0>         0.1719
     54 H23        -4.1514   -6.4303   -0.3081 H         1 <0>         0.1696
     55 H24        -6.4530   -0.0939   -1.4891 H         1 <0>         0.2492
     56 H25        -5.8728   -4.4370   -0.3202 H         1 <0>         0.4487
     57 H26         2.6450   -7.1175    1.7216 H         1 <0>         0.4269
@<TRIPOS>BOND
     1    1    2 1
     2    1   33 1
     3    1   34 1
     4    1   35 1
     5    2    3 1
     6    3    8 ar
     7    3    4 ar
     8    4    5 ar
     9    4   36 1
    10    5   31 1
    11    5    6 ar
    12    6    7 ar
    13    6   19 1
    14    7    8 ar
    15    7   37 1
    16    8    9 1
    17    9   10 1
    18   10   11 1
    19   10   38 1
    20   10   39 1
    21   11   12 1
    22   11   40 1
    23   11   41 1
    24   12   13 1
    25   12   42 1
    26   12   43 1
    27   13   18 1
    28   13   14 1
    29   13   57 1
    30   14   15 1
    31   14   44 1
    32   14   45 1
    33   15   16 1
    34   15   46 1
    35   15   47 1
    36   16   17 1
    37   17   18 1
    38   17   48 1
    39   17   49 1
    40   18   50 1
    41   18   51 1
    42   19   20 2
    43   19   29 1
    44   20   21 1
    45   20   56 1
    46   21   26 ar
    47   21   22 ar
    48   22   23 ar
    49   22   52 1
    50   23   24 ar
    51   23   53 1
    52   24   25 ar
    53   24   28 1
    54   25   26 ar
    55   25   27 1
    56   26   54 1
    57   29   30 2
    58   30   31 1
    59   30   55 1
    60   31   32 1
@<TRIPOS>MOLECULE
ZINC19632618
   69    73     0     0     0
SMALL
USER_CHARGES

@<TRIPOS>ATOM
      1 C1         -0.1643    1.5374    0.2772 C.3       1 <0>        -0.1166
      2 C2          0.0708    0.1281   -0.2021 C.ar      1 <0>        -0.1228
      3 C3         -0.6192   -0.3521   -1.2987 C.ar      1 <0>        -0.0806
      4 C4         -0.4070   -1.6434   -1.7410 C.ar      1 <0>        -0.1294
      5 C5          0.5017   -2.4641   -1.0837 C.ar      1 <0>         0.1504
      6 C6          1.1965   -1.9850    0.0175 C.ar      1 <0>        -0.1394
      7 C7          0.9852   -0.6852    0.4558 C.ar      1 <0>         0.1826
      8 N1          1.6874   -0.1967    1.5617 N.pl3     1 <0>        -0.6314
      9 C8          2.1285   -1.0695    2.5429 C.ar      1 <0>         0.5659
     10 N2          1.7764   -2.3456    2.4776 N.ar      1 <0>        -0.5577
     11 C9          2.1776   -3.2107    3.3953 C.ar      1 <0>         0.1910
     12 C10         2.9764   -2.7714    4.4364 C.ar      1 <0>        -0.2706
     13 C11         3.3313   -1.4207    4.4789 C.ar      1 <0>         0.2697
     14 N3          2.8950   -0.6087    3.5185 N.ar      1 <0>        -0.5576
     15 C12         4.1856   -0.9008    5.5740 C.ar      1 <0>        -0.1200
     16 C13         4.4510    0.4679    5.6793 C.ar      1 <0>        -0.0267
     17 C14         5.2541    0.9026    6.7193 C.ar      1 <0>        -0.1772
     18 C15         5.7636   -0.0222    7.6129 C.ar      1 <0>         0.1192
     19 N4          5.4957   -1.3077    7.4879 N.ar      1 <0>        -0.4844
     20 C16         4.7320   -1.7677    6.5181 C.ar      1 <0>         0.1336
     21 N5          0.7153   -3.7716   -1.5315 N.am      1 <0>        -0.6649
     22 C17         0.7404   -4.0356   -2.8529 C.2       1 <0>         0.5545
     23 O1          0.4912   -3.1555   -3.6535 O.2       1 <0>        -0.5086
     24 C18         1.0709   -5.3955   -3.3287 C.ar      1 <0>        -0.1216
     25 C19         1.3519   -6.4100   -2.4119 C.ar      1 <0>        -0.0841
     26 C20         1.6592   -7.6771   -2.8626 C.ar      1 <0>        -0.1244
     27 C21         1.6892   -7.9435   -4.2200 C.ar      1 <0>        -0.0692
     28 C22         1.4117   -6.9425   -5.1341 C.ar      1 <0>        -0.0994
     29 C23         1.0978   -5.6724   -4.6966 C.ar      1 <0>        -0.0536
     30 C24         2.0262   -9.3299   -4.7050 C.3       1 <0>         0.0939
     31 N6          0.7933  -10.1196   -4.8258 N.3       1 <0>        -0.5345
     32 C25         0.1866  -10.3538   -3.5078 C.3       1 <0>         0.0185
     33 C26        -1.1228  -11.1262   -3.6823 C.3       1 <0>        -0.0025
     34 N7         -0.8513  -12.4061   -4.3498 N.4       1 <0>        -0.3884
     35 C27        -0.2685  -12.1554   -5.6746 C.3       1 <0>        -0.0024
     36 C28         1.0481  -11.3916   -5.5166 C.3       1 <0>         0.0250
     37 C29        -2.1059  -13.1551   -4.5009 C.3       1 <0>        -0.0460
     38 H1          0.5251    2.2130   -0.2290 H         1 <0>         0.0728
     39 H2         -1.1901    1.8307    0.0540 H         1 <0>         0.0743
     40 H3          0.0021    1.5877    1.3533 H         1 <0>         0.0627
     41 H4         -1.3262    0.2836   -1.8111 H         1 <0>         0.1320
     42 H5         -0.9481   -2.0158   -2.5982 H         1 <0>         0.1349
     43 H6          1.9030   -2.6209    0.5302 H         1 <0>         0.1479
     44 H7          1.8658    0.7534    1.6418 H         1 <0>         0.4260
     45 H8          1.8844   -4.2483    3.3325 H         1 <0>         0.1734
     46 H9          3.3172   -3.4566    5.1985 H         1 <0>         0.1507
     47 H10         4.0401    1.1680    4.9670 H         1 <0>         0.1466
     48 H11         5.4807    1.9525    6.8318 H         1 <0>         0.1437
     49 H12         6.3909    0.3135    8.4254 H         1 <0>         0.1633
     50 H13         4.5316   -2.8268    6.4514 H         1 <0>         0.1617
     51 H14         0.8453   -4.4884   -0.8911 H         1 <0>         0.4084
     52 H15         1.3291   -6.2032   -1.3521 H         1 <0>         0.1294
     53 H16         1.8771   -8.4627   -2.1544 H         1 <0>         0.1265
     54 H17         1.4372   -7.1570   -6.1922 H         1 <0>         0.1340
     55 H18         0.8770   -4.8931   -5.4110 H         1 <0>         0.1424
     56 H19         2.5135   -9.2661   -5.6779 H         1 <0>         0.1008
     57 H20         2.6973   -9.8107   -3.9933 H         1 <0>         0.0595
     58 H21         0.8718  -10.9344   -2.8900 H         1 <0>         0.0618
     59 H22        -0.0167   -9.3975   -3.0259 H         1 <0>         0.1265
     60 H23        -1.5673  -11.3133   -2.7048 H         1 <0>         0.1359
     61 H24        -1.8127  -10.5393   -4.2887 H         1 <0>         0.1379
     62 H25        -0.0795  -13.1056   -6.1741 H         1 <0>         0.1367
     63 H26        -0.9627  -11.5633   -6.2708 H         1 <0>         0.1381
     64 H27         1.4733  -11.1924   -6.5003 H         1 <0>         0.1253
     65 H28         1.7474  -11.9892   -4.9320 H         1 <0>         0.0621
     66 H29        -2.8061  -12.5737   -5.1008 H         1 <0>         0.1233
     67 H30        -1.9046  -14.1049   -4.9963 H         1 <0>         0.1246
     68 H31        -2.5379  -13.3423   -3.5179 H         1 <0>         0.1243
     69 H32        -0.2036  -12.9443   -3.7940 H         1 <0>         0.4222
@<TRIPOS>BOND
     1    1    2 1
     2    1   38 1
     3    1   39 1
     4    1   40 1
     5    2    7 ar
     6    2    3 ar
     7    3    4 ar
     8    3   41 1
     9    4    5 ar
    10    4   42 1
    11    5    6 ar
    12    5   21 1
    13    6    7 ar
    14    6   43 1
    15    7    8 1
    16    8    9 1
    17    8   44 1
    18    9   14 ar
    19    9   10 ar
    20   10   11 ar
    21   11   12 ar
    22   11   45 1
    23   12   13 ar
    24   12   46 1
    25   13   14 ar
    26   13   15 1
    27   15   20 ar
    28   15   16 ar
    29   16   17 ar
    30   16   47 1
    31   17   18 ar
    32   17   48 1
    33   18   19 ar
    34   18   49 1
    35   19   20 ar
    36   20   50 1
    37   21   22 am
    38   21   51 1
    39   22   23 2
    40   22   24 1
    41   24   29 ar
    42   24   25 ar
    43   25   26 ar
    44   25   52 1
    45   26   27 ar
    46   26   53 1
    47   27   28 ar
    48   27   30 1
    49   28   29 ar
    50   28   54 1
    51   29   55 1
    52   30   31 1
    53   30   56 1
    54   30   57 1
    55   31   36 1
    56   31   32 1
    57   32   33 1
    58   32   58 1
    59   32   59 1
    60   33   34 1
    61   33   60 1
    62   33   61 1
    63   34   35 1
    64   34   37 1
    65   34   69 1
    66   35   36 1
    67   35   62 1
    68   35   63 1
    69   36   64 1
    70   36   65 1
    71   37   66 1
    72   37   67 1
    73   37   68 1
@<TRIPOS>MOLECULE
ZINC19632618
   69    73     0     0     0
SMALL
USER_CHARGES

@<TRIPOS>ATOM
      1 C1         -0.1643    1.5374    0.2772 C.3       1 <0>        -0.1179
      2 C2          0.0708    0.1281   -0.2021 C.ar      1 <0>        -0.1195
      3 C3         -0.6192   -0.3521   -1.2987 C.ar      1 <0>        -0.0803
      4 C4         -0.4070   -1.6434   -1.7410 C.ar      1 <0>        -0.1287
      5 C5          0.5017   -2.4641   -1.0837 C.ar      1 <0>         0.1452
      6 C6          1.1965   -1.9850    0.0175 C.ar      1 <0>        -0.1374
      7 C7          0.9852   -0.6852    0.4558 C.ar      1 <0>         0.1839
      8 N1          1.6874   -0.1967    1.5617 N.pl3     1 <0>        -0.6318
      9 C8          2.1285   -1.0695    2.5429 C.ar      1 <0>         0.5654
     10 N2          1.7764   -2.3456    2.4776 N.ar      1 <0>        -0.5590
     11 C9          2.1776   -3.2107    3.3953 C.ar      1 <0>         0.1907
     12 C10         2.9764   -2.7714    4.4364 C.ar      1 <0>        -0.2695
     13 C11         3.3313   -1.4207    4.4789 C.ar      1 <0>         0.2707
     14 N3          2.8950   -0.6087    3.5185 N.ar      1 <0>        -0.5571
     15 C12         4.1856   -0.9008    5.5740 C.ar      1 <0>        -0.1213
     16 C13         4.4510    0.4679    5.6793 C.ar      1 <0>        -0.0264
     17 C14         5.2541    0.9026    6.7193 C.ar      1 <0>        -0.1772
     18 C15         5.7636   -0.0222    7.6129 C.ar      1 <0>         0.1201
     19 N4          5.4957   -1.3077    7.4879 N.ar      1 <0>        -0.4842
     20 C16         4.7320   -1.7677    6.5181 C.ar      1 <0>         0.1342
     21 N5          0.7153   -3.7716   -1.5315 N.am      1 <0>        -0.6603
     22 C17         0.7404   -4.0356   -2.8529 C.2       1 <0>         0.5491
     23 O1          0.4912   -3.1555   -3.6535 O.2       1 <0>        -0.5015
     24 C18         1.0709   -5.3955   -3.3287 C.ar      1 <0>        -0.0938
     25 C19         1.3519   -6.4100   -2.4119 C.ar      1 <0>        -0.0834
     26 C20         1.6592   -7.6771   -2.8626 C.ar      1 <0>        -0.1009
     27 C21         1.6892   -7.9435   -4.2200 C.ar      1 <0>        -0.1382
     28 C22         1.4117   -6.9425   -5.1341 C.ar      1 <0>        -0.0966
     29 C23         1.0978   -5.6724   -4.6966 C.ar      1 <0>        -0.0538
     30 C24         2.0262   -9.3299   -4.7050 C.3       1 <0>         0.0425
     31 N6          0.7933  -10.1196   -4.8258 N.4       1 <0>        -0.3856
     32 C25         0.1989  -10.3052   -3.4955 C.3       1 <0>        -0.0078
     33 C26        -1.0954  -11.1117   -3.6230 C.3       1 <0>         0.0256
     34 N7         -0.7986  -12.4159   -4.2323 N.3       1 <0>        -0.5431
     35 C27        -0.1799  -12.2456   -5.5546 C.3       1 <0>         0.0239
     36 C28         1.1068  -11.4297   -5.4112 C.3       1 <0>        -0.0024
     37 C29        -2.0090  -13.2436   -4.3201 C.3       1 <0>         0.0192
     38 H1          0.5251    2.2130   -0.2290 H         1 <0>         0.0738
     39 H2         -1.1901    1.8307    0.0540 H         1 <0>         0.0752
     40 H3          0.0021    1.5877    1.3533 H         1 <0>         0.0636
     41 H4         -1.3262    0.2836   -1.8111 H         1 <0>         0.1330
     42 H5         -0.9481   -2.0158   -2.5982 H         1 <0>         0.1345
     43 H6          1.9030   -2.6209    0.5302 H         1 <0>         0.1487
     44 H7          1.8658    0.7534    1.6418 H         1 <0>         0.4265
     45 H8          1.8844   -4.2483    3.3325 H         1 <0>         0.1737
     46 H9          3.3172   -3.4566    5.1985 H         1 <0>         0.1513
     47 H10         4.0401    1.1680    4.9670 H         1 <0>         0.1465
     48 H11         5.4807    1.9525    6.8318 H         1 <0>         0.1439
     49 H12         6.3909    0.3135    8.4254 H         1 <0>         0.1636
     50 H13         4.5316   -2.8268    6.4514 H         1 <0>         0.1618
     51 H14         0.8453   -4.4884   -0.8911 H         1 <0>         0.4091
     52 H15         1.3291   -6.2032   -1.3521 H         1 <0>         0.1399
     53 H16         1.8771   -8.4627   -2.1544 H         1 <0>         0.1405
     54 H17         1.4372   -7.1570   -6.1922 H         1 <0>         0.1409
     55 H18         0.8770   -4.8931   -5.4110 H         1 <0>         0.1513
     56 H19         2.5135   -9.2661   -5.6779 H         1 <0>         0.1411
     57 H20         2.6973   -9.8107   -3.9933 H         1 <0>         0.1402
     58 H21         0.8998  -10.8418   -2.8560 H         1 <0>         0.1385
     59 H22        -0.0212   -9.3320   -3.0568 H         1 <0>         0.1352
     60 H23        -1.5289  -11.2624   -2.6343 H         1 <0>         0.1235
     61 H24        -1.8016  -10.5690   -4.2513 H         1 <0>         0.0601
     62 H25         0.0544  -13.2235   -5.9751 H         1 <0>         0.1247
     63 H26        -0.8711  -11.7216   -6.2147 H         1 <0>         0.0606
     64 H27         1.5598  -11.2902   -6.3927 H         1 <0>         0.1372
     65 H28         1.8030  -11.9606   -4.7619 H         1 <0>         0.1392
     66 H29        -2.7542  -12.7340   -4.9308 H         1 <0>         0.0396
     67 H30        -1.7610  -14.2028   -4.7745 H         1 <0>         0.0842
     68 H31        -2.4099  -13.4082   -3.3199 H         1 <0>         0.0844
     69 H32         0.1396   -9.6332   -5.4209 H         1 <0>         0.4206
@<TRIPOS>BOND
     1    1    2 1
     2    1   38 1
     3    1   39 1
     4    1   40 1
     5    2    7 ar
     6    2    3 ar
     7    3    4 ar
     8    3   41 1
     9    4    5 ar
    10    4   42 1
    11    5    6 ar
    12    5   21 1
    13    6    7 ar
    14    6   43 1
    15    7    8 1
    16    8    9 1
    17    8   44 1
    18    9   14 ar
    19    9   10 ar
    20   10   11 ar
    21   11   12 ar
    22   11   45 1
    23   12   13 ar
    24   12   46 1
    25   13   14 ar
    26   13   15 1
    27   15   20 ar
    28   15   16 ar
    29   16   17 ar
    30   16   47 1
    31   17   18 ar
    32   17   48 1
    33   18   19 ar
    34   18   49 1
    35   19   20 ar
    36   20   50 1
    37   21   22 am
    38   21   51 1
    39   22   23 2
    40   22   24 1
    41   24   29 ar
    42   24   25 ar
    43   25   26 ar
    44   25   52 1
    45   26   27 ar
    46   26   53 1
    47   27   28 ar
    48   27   30 1
    49   28   29 ar
    50   28   54 1
    51   29   55 1
    52   30   31 1
    53   30   56 1
    54   30   57 1
    55   31   36 1
    56   31   32 1
    57   31   69 1
    58   32   33 1
    59   32   58 1
    60   32   59 1
    61   33   34 1
    62   33   60 1
    63   33   61 1
    64   34   35 1
    65   34   37 1
    66   35   36 1
    67   35   62 1
    68   35   63 1
    69   36   64 1
    70   36   65 1
    71   37   66 1
    72   37   67 1
    73   37   68 1
@<TRIPOS>MOLECULE
ZINC19632618
   68    72     0     0     0
SMALL
USER_CHARGES

@<TRIPOS>ATOM
      1 C1         -0.1643    1.5374    0.2772 C.3       1 <0>        -0.1139
      2 C2          0.0708    0.1281   -0.2021 C.ar      1 <0>        -0.1276
      3 C3         -0.6192   -0.3521   -1.2987 C.ar      1 <0>        -0.0809
      4 C4         -0.4070   -1.6434   -1.7410 C.ar      1 <0>        -0.1296
      5 C5          0.5017   -2.4641   -1.0837 C.ar      1 <0>         0.1575
      6 C6          1.1965   -1.9850    0.0175 C.ar      1 <0>        -0.1408
      7 C7          0.9852   -0.6852    0.4558 C.ar      1 <0>         0.1805
      8 N1          1.6874   -0.1967    1.5617 N.pl3     1 <0>        -0.6310
      9 C8          2.1285   -1.0695    2.5429 C.ar      1 <0>         0.5658
     10 N2          1.7764   -2.3456    2.4776 N.ar      1 <0>        -0.5548
     11 C9          2.1776   -3.2107    3.3953 C.ar      1 <0>         0.1930
     12 C10         2.9764   -2.7714    4.4364 C.ar      1 <0>        -0.2707
     13 C11         3.3313   -1.4207    4.4789 C.ar      1 <0>         0.2660
     14 N3          2.8950   -0.6087    3.5185 N.ar      1 <0>        -0.5591
     15 C12         4.1856   -0.9008    5.5740 C.ar      1 <0>        -0.1161
     16 C13         4.4510    0.4679    5.6793 C.ar      1 <0>        -0.0277
     17 C14         5.2541    0.9026    6.7193 C.ar      1 <0>        -0.1780
     18 C15         5.7636   -0.0222    7.6129 C.ar      1 <0>         0.1167
     19 N4          5.4957   -1.3077    7.4879 N.ar      1 <0>        -0.4846
     20 C16         4.7320   -1.7677    6.5181 C.ar      1 <0>         0.1331
     21 N5          0.7153   -3.7716   -1.5315 N.am      1 <0>        -0.6684
     22 C17         0.7404   -4.0356   -2.8529 C.2       1 <0>         0.5607
     23 O1          0.4912   -3.1555   -3.6535 O.2       1 <0>        -0.5149
     24 C18         1.0709   -5.3955   -3.3287 C.ar      1 <0>        -0.1367
     25 C19         1.3519   -6.4100   -2.4119 C.ar      1 <0>        -0.0845
     26 C20         1.6592   -7.6771   -2.8626 C.ar      1 <0>        -0.1214
     27 C21         1.6892   -7.9435   -4.2200 C.ar      1 <0>        -0.0481
     28 C22         1.4117   -6.9425   -5.1341 C.ar      1 <0>        -0.1045
     29 C23         1.0978   -5.6724   -4.6966 C.ar      1 <0>        -0.0549
     30 C24         2.0262   -9.3299   -4.7050 C.3       1 <0>         0.0887
     31 N6          0.7933  -10.1196   -4.8258 N.3       1 <0>        -0.5346
     32 C25         0.1854  -10.3517   -3.5082 C.3       1 <0>         0.0528
     33 C26        -1.1341  -11.1069   -3.6840 C.3       1 <0>         0.0560
     34 N7         -0.8794  -12.3787   -4.3748 N.3       1 <0>        -0.5467
     35 C27        -0.2715  -12.1466   -5.6924 C.3       1 <0>         0.0557
     36 C28         1.0481  -11.3914   -5.5165 C.3       1 <0>         0.0569
     37 C29        -2.1122  -13.1683   -4.4955 C.3       1 <0>         0.0243
     38 H1          0.5251    2.2130   -0.2290 H         1 <0>         0.0707
     39 H2         -1.1901    1.8307    0.0540 H         1 <0>         0.0727
     40 H3          0.0021    1.5877    1.3533 H         1 <0>         0.0612
     41 H4         -1.3262    0.2836   -1.8111 H         1 <0>         0.1306
     42 H5         -0.9481   -2.0158   -2.5982 H         1 <0>         0.1361
     43 H6          1.9030   -2.6209    0.5302 H         1 <0>         0.1478
     44 H7          1.8658    0.7534    1.6418 H         1 <0>         0.4247
     45 H8          1.8844   -4.2483    3.3325 H         1 <0>         0.1749
     46 H9          3.3172   -3.4566    5.1985 H         1 <0>         0.1504
     47 H10         4.0401    1.1680    4.9670 H         1 <0>         0.1465
     48 H11         5.4807    1.9525    6.8318 H         1 <0>         0.1424
     49 H12         6.3909    0.3135    8.4254 H         1 <0>         0.1620
     50 H13         4.5316   -2.8268    6.4514 H         1 <0>         0.1624
     51 H14         0.8453   -4.4884   -0.8911 H         1 <0>         0.4098
     52 H15         1.3291   -6.2032   -1.3521 H         1 <0>         0.1256
     53 H16         1.8771   -8.4627   -2.1544 H         1 <0>         0.1277
     54 H17         1.4372   -7.1570   -6.1922 H         1 <0>         0.1323
     55 H18         0.8770   -4.8931   -5.4110 H         1 <0>         0.1380
     56 H19         2.5135   -9.2661   -5.6779 H         1 <0>         0.0885
     57 H20         2.6973   -9.8107   -3.9933 H         1 <0>         0.0490
     58 H21         0.8640  -10.9435   -2.8938 H         1 <0>         0.0436
     59 H22        -0.0051   -9.3950   -3.0219 H         1 <0>         0.0840
     60 H23        -1.5725  -11.3056   -2.7060 H         1 <0>         0.0799
     61 H24        -1.8225  -10.5033   -4.2756 H         1 <0>         0.0432
     62 H25        -0.0810  -13.1033   -6.1787 H         1 <0>         0.0811
     63 H26        -0.9501  -11.5548   -6.3068 H         1 <0>         0.0437
     64 H27         1.4864  -11.1926   -6.4945 H         1 <0>         0.0821
     65 H28         1.7364  -11.9950   -4.9250 H         1 <0>         0.0450
     66 H29        -2.8511  -12.6037   -5.0641 H         1 <0>         0.0271
     67 H30        -1.8953  -14.1043   -5.0104 H         1 <0>         0.0693
     68 H31        -2.5051  -13.3830   -3.5017 H         1 <0>         0.0693
@<TRIPOS>BOND
     1    1    2 1
     2    1   38 1
     3    1   39 1
     4    1   40 1
     5    2    7 ar
     6    2    3 ar
     7    3    4 ar
     8    3   41 1
     9    4    5 ar
    10    4   42 1
    11    5    6 ar
    12    5   21 1
    13    6    7 ar
    14    6   43 1
    15    7    8 1
    16    8    9 1
    17    8   44 1
    18    9   14 ar
    19    9   10 ar
    20   10   11 ar
    21   11   12 ar
    22   11   45 1
    23   12   13 ar
    24   12   46 1
    25   13   14 ar
    26   13   15 1
    27   15   20 ar
    28   15   16 ar
    29   16   17 ar
    30   16   47 1
    31   17   18 ar
    32   17   48 1
    33   18   19 ar
    34   18   49 1
    35   19   20 ar
    36   20   50 1
    37   21   22 am
    38   21   51 1
    39   22   23 2
    40   22   24 1
    41   24   29 ar
    42   24   25 ar
    43   25   26 ar
    44   25   52 1
    45   26   27 ar
    46   26   53 1
    47   27   28 ar
    48   27   30 1
    49   28   29 ar
    50   28   54 1
    51   29   55 1
    52   30   31 1
    53   30   56 1
    54   30   57 1
    55   31   36 1
    56   31   32 1
    57   32   33 1
    58   32   58 1
    59   32   59 1
    60   33   34 1
    61   33   60 1
    62   33   61 1
    63   34   35 1
    64   34   37 1
    65   35   36 1
    66   35   62 1
    67   35   63 1
    68   36   64 1
    69   36   65 1
    70   37   66 1
    71   37   67 1
    72   37   68 1
