@<TRIPOS>MOLECULE
ZINC01493878
   48    50     0     0     0
SMALL
USER_CHARGES

@<TRIPOS>ATOM
      1 C1         -1.0955   -5.0083   -6.9234 C.3       1 <0>         0.0847
      2 N1         -1.5520   -4.3038   -5.7228 N.am      1 <0>        -0.7137
      3 C2         -1.8827   -5.0004   -4.6175 C.2       1 <0>         0.5696
      4 O1         -1.8023   -6.2129   -4.6168 O.2       1 <0>        -0.5284
      5 C3         -2.3445   -4.2878   -3.4031 C.ar      1 <0>         0.1129
      6 C4         -2.6788   -5.0128   -2.2640 C.ar      1 <0>        -0.1883
      7 C5         -3.1110   -4.3279   -1.1310 C.ar      1 <0>         0.1595
      8 C6         -3.1903   -2.9389   -1.1877 C.ar      1 <0>        -0.1766
      9 C7         -2.8404   -2.2885   -2.3571 C.ar      1 <0>         0.1349
     10 N2         -2.4302   -2.9626   -3.4105 N.ar      1 <0>        -0.4815
     11 O2         -3.4471   -4.9979    0.0005 O.3       1 <0>        -0.2437
     12 C8         -3.4462   -6.3570   -0.0383 C.ar      1 <0>         0.0568
     13 C9         -2.2447   -7.0505   -0.0178 C.ar      1 <0>        -0.1074
     14 C10        -2.2431   -8.4307   -0.0577 C.ar      1 <0>        -0.1009
     15 C11        -3.4442   -9.1246   -0.1179 C.ar      1 <0>         0.1671
     16 C12        -4.6464   -8.4301   -0.1379 C.ar      1 <0>        -0.1272
     17 C13        -4.6469   -7.0500   -0.0928 C.ar      1 <0>        -0.0940
     18 N3         -3.4432  -10.5252   -0.1588 N.am      1 <0>        -0.6776
     19 C14        -2.5108  -11.2187    0.5239 C.2       1 <0>         0.7077
     20 O3         -1.6217  -10.6297    1.1080 O.2       1 <0>        -0.5493
     21 N4         -2.5639  -12.5649    0.5593 N.am      1 <0>        -0.6795
     22 C15        -1.6655  -13.2800    1.3600 C.ar      1 <0>         0.1700
     23 C16        -1.2529  -12.7583    2.5792 C.ar      1 <0>        -0.0742
     24 C17        -0.3670  -13.4659    3.3674 C.ar      1 <0>        -0.0871
     25 C18         0.1097  -14.6941    2.9434 C.ar      1 <0>        -0.0077
     26 C19        -0.2993  -15.2159    1.7290 C.ar      1 <0>        -0.1564
     27 C20        -1.1898  -14.5147    0.9394 C.ar      1 <0>        -0.0879
     28 C21         0.2222  -16.5533    1.2702 C.3       1 <0>         0.5112
     29 F1         -0.3299  -16.8663    0.0234 F         1 <0>        -0.1743
     30 F2          1.6160  -16.4983    1.1626 F         1 <0>        -0.1671
     31 F3         -0.1354  -17.5367    2.1987 F         1 <0>        -0.1677
     32 Cl1         1.2234  -15.5812    3.9366 Cl        1 <0>        -0.0394
     33 H1         -0.8760   -4.2843   -7.7081 H         1 <0>         0.0803
     34 H2         -0.1948   -5.5764   -6.6909 H         1 <0>         0.0631
     35 H3         -1.8761   -5.6883   -7.2645 H         1 <0>         0.0629
     36 H4         -1.6162   -3.3359   -5.7233 H         1 <0>         0.4141
     37 H5         -2.6047   -6.0902   -2.2584 H         1 <0>         0.1546
     38 H6         -3.5217   -2.3755   -0.3280 H         1 <0>         0.1523
     39 H7         -2.9005   -1.2112   -2.4052 H         1 <0>         0.1747
     40 H8         -1.3104   -6.5106    0.0290 H         1 <0>         0.1364
     41 H9         -1.3078   -8.9704   -0.0424 H         1 <0>         0.1514
     42 H10        -5.5809   -8.9693   -0.1851 H         1 <0>         0.1386
     43 H11        -5.5820   -6.5098   -0.1039 H         1 <0>         0.1400
     44 H12        -4.1137  -10.9957   -0.6785 H         1 <0>         0.4131
     45 H13        -3.2246  -13.0383    0.0299 H         1 <0>         0.4146
     46 H14        -1.6244  -11.7997    2.9103 H         1 <0>         0.1546
     47 H15        -0.0456  -13.0604    4.3154 H         1 <0>         0.1524
     48 H16        -1.5123  -14.9245   -0.0064 H         1 <0>         0.1525
@<TRIPOS>BOND
     1    1    2 1
     2    1   33 1
     3    1   34 1
     4    1   35 1
     5    2    3 am
     6    2   36 1
     7    3    4 2
     8    3    5 1
     9    5   10 ar
    10    5    6 ar
    11    6    7 ar
    12    6   37 1
    13    7    8 ar
    14    7   11 1
    15    8    9 ar
    16    8   38 1
    17    9   10 ar
    18    9   39 1
    19   11   12 1
    20   12   17 ar
    21   12   13 ar
    22   13   14 ar
    23   13   40 1
    24   14   15 ar
    25   14   41 1
    26   15   16 ar
    27   15   18 1
    28   16   17 ar
    29   16   42 1
    30   17   43 1
    31   18   19 am
    32   18   44 1
    33   19   20 2
    34   19   21 am
    35   21   22 1
    36   21   45 1
    37   22   27 ar
    38   22   23 ar
    39   23   24 ar
    40   23   46 1
    41   24   25 ar
    42   24   47 1
    43   25   26 ar
    44   25   32 1
    45   26   27 ar
    46   26   28 1
    47   27   48 1
    48   28   29 1
    49   28   30 1
    50   28   31 1
@<TRIPOS>MOLECULE
ZINC35902489
   54    57     0     0     0
SMALL
USER_CHARGES

@<TRIPOS>ATOM
      1 C1         -0.2366    1.5009   -0.1002 C.3       1 <0>        -0.1868
      2 C2          0.0023   -0.0068    0.0032 C.3       1 <0>         0.1262
      3 H1         -0.9541   -0.5203    0.1009 H         1 <0>         0.1027
      4 C3          0.8549   -0.2986    1.2111 C.ar      1 <0>        -0.0648
      5 C4          2.2095   -0.0176    1.1860 C.ar      1 <0>        -0.0174
      6 C5          2.9928   -0.2851    2.2943 C.ar      1 <0>        -0.0698
      7 C6          2.4230   -0.8330    3.4283 C.ar      1 <0>        -0.1110
      8 C7          1.0682   -1.1142    3.4552 C.ar      1 <0>         0.1278
      9 C8          0.2825   -0.8418    2.3465 C.ar      1 <0>        -0.0562
     10 Cl1        -1.4183   -1.1878    2.3810 Cl        1 <0>        -0.0259
     11 F1          0.5110   -1.6502    4.5631 F         1 <0>        -0.1090
     12 Cl2         2.9265    0.6706   -0.2374 Cl        1 <0>        -0.0327
     13 O1          0.6709   -0.4649   -1.1737 O.3       1 <0>        -0.2750
     14 C9         -0.1076   -0.7749   -2.2450 C.ar      1 <0>         0.0922
     15 C10        -1.4721   -0.5389   -2.2126 C.ar      1 <0>        -0.0840
     16 C11        -2.2312   -0.8738   -3.3386 C.ar      1 <0>         0.0162
     17 C12        -1.5947   -1.4281   -4.4440 C.ar      1 <0>         0.0781
     18 N1         -0.2926   -1.6388   -4.4381 N.ar      1 <0>        -0.4651
     19 C13         0.4590   -1.3297   -3.3941 C.ar      1 <0>         0.4321
     20 N2          1.8309   -1.5659   -3.4397 N.pl3     1 <0>        -0.8070
     21 C14        -3.6979   -0.6410   -3.3535 C.2       1 <0>        -0.2043
     22 C15        -4.4627   -0.0847   -2.3100 C.2       1 <0>         0.0864
     23 N3         -5.7097   -0.0414   -2.6987 N.2       1 <0>        -0.2628
     24 N4         -5.7898   -0.5640   -3.9951 N.pl3     1 <0>        -0.3634
     25 C16        -4.5480   -0.9216   -4.3826 C.2       1 <0>         0.0838
     26 C17        -7.0103   -0.6949   -4.7948 C.3       1 <0>         0.1502
     27 C18        -6.9271   -1.9605   -5.6529 C.3       1 <0>        -0.1621
     28 C19        -8.1684   -2.0490   -6.5433 C.3       1 <0>        -0.0015
     29 N5         -8.2355   -0.8693   -7.4141 N.4       1 <0>        -0.5088
     30 C20        -8.3877    0.3426   -6.6000 C.3       1 <0>        -0.0035
     31 C21        -7.1548    0.5231   -5.7117 C.3       1 <0>        -0.1623
     32 H2          0.7199    2.0145   -0.1979 H         1 <0>         0.0878
     33 H3         -0.8533    1.7120   -0.9739 H         1 <0>         0.0744
     34 H4         -0.7466    1.8504    0.7975 H         1 <0>         0.0940
     35 H5          4.0502   -0.0661    2.2735 H         1 <0>         0.1611
     36 H6          3.0352   -1.0420    4.2932 H         1 <0>         0.1666
     37 H7         -1.9384   -0.1073   -1.3393 H         1 <0>         0.1754
     38 H8         -2.1735   -1.6895   -5.3175 H         1 <0>         0.2000
     39 H9          2.3867   -1.3451   -2.6760 H         1 <0>         0.4445
     40 H10         2.2306   -1.9511   -4.2352 H         1 <0>         0.4249
     41 H11        -4.0846    0.2477   -1.3545 H         1 <0>         0.1959
     42 H12        -4.2766   -1.3540   -5.3343 H         1 <0>         0.1825
     43 H13        -7.8744   -0.7577   -4.1333 H         1 <0>         0.1289
     44 H14        -6.0340   -1.9194   -6.2765 H         1 <0>         0.0978
     45 H15        -6.8801   -2.8365   -5.0059 H         1 <0>         0.1266
     46 H16        -8.1124   -2.9491   -7.1555 H         1 <0>         0.1473
     47 H17        -9.0608   -2.0903   -5.9188 H         1 <0>         0.1409
     48 H18        -7.3873   -0.8043   -7.9567 H         1 <0>         0.4290
     49 H19        -8.4936    1.2082   -7.2540 H         1 <0>         0.1462
     50 H20        -9.2754    0.2503   -5.9742 H         1 <0>         0.1402
     51 H21        -7.2705    1.4224   -5.1068 H         1 <0>         0.1256
     52 H22        -6.2665    0.6158   -6.3365 H         1 <0>         0.0962
     53 H23        -9.0248   -0.9564   -8.0365 H         1 <0>         0.4414
     54 H24         0.1260   -2.0273   -5.2222 H         1 <0>         0.4508
@<TRIPOS>BOND
     1    1    2 1
     2    1   32 1
     3    1   33 1
     4    1   34 1
     5    2    3 1
     6    2    4 1
     7    2   13 1
     8    4    9 ar
     9    4    5 ar
    10    5    6 ar
    11    5   12 1
    12    6    7 ar
    13    6   35 1
    14    7    8 ar
    15    7   36 1
    16    8    9 ar
    17    8   11 1
    18    9   10 1
    19   13   14 1
    20   14   19 ar
    21   14   15 ar
    22   15   16 ar
    23   15   37 1
    24   16   17 ar
    25   16   21 1
    26   17   18 ar
    27   17   38 1
    28   18   19 ar
    29   18   54 1
    30   19   20 1
    31   20   39 1
    32   20   40 1
    33   21   25 2
    34   21   22 1
    35   22   23 2
    36   22   41 1
    37   23   24 1
    38   24   25 1
    39   24   26 1
    40   25   42 1
    41   26   31 1
    42   26   27 1
    43   26   43 1
    44   27   28 1
    45   27   44 1
    46   27   45 1
    47   28   29 1
    48   28   46 1
    49   28   47 1
    50   29   30 1
    51   29   48 1
    52   29   53 1
    53   30   31 1
    54   30   49 1
    55   30   50 1
    56   31   51 1
    57   31   52 1
@<TRIPOS>MOLECULE
ZINC35902489
   53    56     0     0     0
SMALL
USER_CHARGES

@<TRIPOS>ATOM
      1 C1         -0.2366    1.5009   -0.1002 C.3       1 <0>        -0.1800
      2 C2          0.0023   -0.0068    0.0032 C.3       1 <0>         0.1238
      3 H1         -0.9541   -0.5203    0.1009 H         1 <0>         0.0939
      4 C3          0.8549   -0.2986    1.2111 C.ar      1 <0>        -0.0507
      5 C4          2.2095   -0.0176    1.1860 C.ar      1 <0>        -0.0168
      6 C5          2.9928   -0.2851    2.2943 C.ar      1 <0>        -0.0751
      7 C6          2.4230   -0.8330    3.4283 C.ar      1 <0>        -0.1208
      8 C7          1.0682   -1.1142    3.4552 C.ar      1 <0>         0.1197
      9 C8          0.2825   -0.8418    2.3465 C.ar      1 <0>        -0.0574
     10 Cl1        -1.4183   -1.1878    2.3810 Cl        1 <0>        -0.0303
     11 F1          0.5110   -1.6502    4.5631 F         1 <0>        -0.1157
     12 Cl2         2.9265    0.6706   -0.2374 Cl        1 <0>        -0.0266
     13 O1          0.6709   -0.4649   -1.1737 O.3       1 <0>        -0.2903
     14 C9         -0.1076   -0.7749   -2.2450 C.ar      1 <0>         0.0299
     15 C10        -1.4721   -0.5389   -2.2126 C.ar      1 <0>        -0.1219
     16 C11        -2.2312   -0.8738   -3.3386 C.ar      1 <0>        -0.0860
     17 C12        -1.5947   -1.4281   -4.4440 C.ar      1 <0>         0.1181
     18 N1         -0.2926   -1.6388   -4.4381 N.ar      1 <0>        -0.5097
     19 C13         0.4590   -1.3297   -3.3941 C.ar      1 <0>         0.3993
     20 N2          1.8309   -1.5659   -3.4397 N.pl3     1 <0>        -0.8414
     21 C14        -3.6979   -0.6410   -3.3535 C.2       1 <0>        -0.1558
     22 C15        -4.4627   -0.0847   -2.3100 C.2       1 <0>         0.0711
     23 N3         -5.7097   -0.0414   -2.6987 N.2       1 <0>        -0.2815
     24 N4         -5.7898   -0.5640   -3.9951 N.pl3     1 <0>        -0.3795
     25 C16        -4.5480   -0.9216   -4.3826 C.2       1 <0>         0.0495
     26 C17        -7.0103   -0.6949   -4.7948 C.3       1 <0>         0.1592
     27 C18        -6.9271   -1.9605   -5.6529 C.3       1 <0>        -0.1636
     28 C19        -8.1684   -2.0490   -6.5433 C.3       1 <0>         0.0000
     29 N5         -8.2355   -0.8693   -7.4141 N.4       1 <0>        -0.5082
     30 C20        -8.3877    0.3426   -6.6000 C.3       1 <0>        -0.0019
     31 C21        -7.1548    0.5231   -5.7117 C.3       1 <0>        -0.1640
     32 H2          0.7199    2.0145   -0.1979 H         1 <0>         0.0791
     33 H3         -0.8533    1.7120   -0.9739 H         1 <0>         0.0735
     34 H4         -0.7466    1.8504    0.7975 H         1 <0>         0.0781
     35 H5          4.0502   -0.0661    2.2735 H         1 <0>         0.1565
     36 H6          3.0352   -1.0420    4.2932 H         1 <0>         0.1608
     37 H7         -1.9384   -0.1073   -1.3393 H         1 <0>         0.1391
     38 H8         -2.1735   -1.6895   -5.3175 H         1 <0>         0.1503
     39 H9          2.3867   -1.3451   -2.6760 H         1 <0>         0.4140
     40 H10         2.2306   -1.9511   -4.2352 H         1 <0>         0.4065
     41 H11        -4.0846    0.2477   -1.3545 H         1 <0>         0.1874
     42 H12        -4.2766   -1.3540   -5.3343 H         1 <0>         0.1760
     43 H13        -7.8744   -0.7577   -4.1333 H         1 <0>         0.1197
     44 H14        -6.0340   -1.9194   -6.2765 H         1 <0>         0.0999
     45 H15        -6.8801   -2.8365   -5.0059 H         1 <0>         0.1250
     46 H16        -8.1124   -2.9491   -7.1555 H         1 <0>         0.1440
     47 H17        -9.0608   -2.0903   -5.9188 H         1 <0>         0.1374
     48 H18        -7.3873   -0.8043   -7.9567 H         1 <0>         0.4300
     49 H19        -8.4936    1.2082   -7.2540 H         1 <0>         0.1421
     50 H20        -9.2754    0.2503   -5.9742 H         1 <0>         0.1368
     51 H21        -7.2705    1.4224   -5.1068 H         1 <0>         0.1226
     52 H22        -6.2665    0.6158   -6.3365 H         1 <0>         0.0966
     53 H23        -9.0248   -0.9564   -8.0365 H         1 <0>         0.4369
@<TRIPOS>BOND
     1    1    2 1
     2    1   32 1
     3    1   33 1
     4    1   34 1
     5    2    3 1
     6    2    4 1
     7    2   13 1
     8    4    9 ar
     9    4    5 ar
    10    5    6 ar
    11    5   12 1
    12    6    7 ar
    13    6   35 1
    14    7    8 ar
    15    7   36 1
    16    8    9 ar
    17    8   11 1
    18    9   10 1
    19   13   14 1
    20   14   19 ar
    21   14   15 ar
    22   15   16 ar
    23   15   37 1
    24   16   17 ar
    25   16   21 1
    26   17   18 ar
    27   17   38 1
    28   18   19 ar
    29   19   20 1
    30   20   39 1
    31   20   40 1
    32   21   25 2
    33   21   22 1
    34   22   23 2
    35   22   41 1
    36   23   24 1
    37   24   25 1
    38   24   26 1
    39   25   42 1
    40   26   31 1
    41   26   27 1
    42   26   43 1
    43   27   28 1
    44   27   44 1
    45   27   45 1
    46   28   29 1
    47   28   46 1
    48   28   47 1
    49   29   30 1
    50   29   48 1
    51   29   53 1
    52   30   31 1
    53   30   49 1
    54   30   50 1
    55   31   51 1
    56   31   52 1
@<TRIPOS>MOLECULE
ZINC19632618
   69    73     0     0     0
SMALL
USER_CHARGES

@<TRIPOS>ATOM
      1 C1         -0.1643    1.5374    0.2772 C.3       1 <0>        -0.1166
      2 C2          0.0708    0.1281   -0.2021 C.ar      1 <0>        -0.1228
      3 C3         -0.6192   -0.3521   -1.2987 C.ar      1 <0>        -0.0806
      4 C4         -0.4070   -1.6434   -1.7410 C.ar      1 <0>        -0.1294
      5 C5          0.5017   -2.4641   -1.0837 C.ar      1 <0>         0.1504
      6 C6          1.1965   -1.9850    0.0175 C.ar      1 <0>        -0.1394
      7 C7          0.9852   -0.6852    0.4558 C.ar      1 <0>         0.1826
      8 N1          1.6874   -0.1967    1.5617 N.pl3     1 <0>        -0.6314
      9 C8          2.1285   -1.0695    2.5429 C.ar      1 <0>         0.5659
     10 N2          1.7764   -2.3456    2.4776 N.ar      1 <0>        -0.5577
     11 C9          2.1776   -3.2107    3.3953 C.ar      1 <0>         0.1910
     12 C10         2.9764   -2.7714    4.4364 C.ar      1 <0>        -0.2706
     13 C11         3.3313   -1.4207    4.4789 C.ar      1 <0>         0.2697
     14 N3          2.8950   -0.6087    3.5185 N.ar      1 <0>        -0.5576
     15 C12         4.1856   -0.9008    5.5740 C.ar      1 <0>        -0.1200
     16 C13         4.4510    0.4679    5.6793 C.ar      1 <0>        -0.0267
     17 C14         5.2541    0.9026    6.7193 C.ar      1 <0>        -0.1772
     18 C15         5.7636   -0.0222    7.6129 C.ar      1 <0>         0.1192
     19 N4          5.4957   -1.3077    7.4879 N.ar      1 <0>        -0.4844
     20 C16         4.7320   -1.7677    6.5181 C.ar      1 <0>         0.1336
     21 N5          0.7153   -3.7716   -1.5315 N.am      1 <0>        -0.6649
     22 C17         0.7404   -4.0356   -2.8529 C.2       1 <0>         0.5545
     23 O1          0.4912   -3.1555   -3.6535 O.2       1 <0>        -0.5086
     24 C18         1.0709   -5.3955   -3.3287 C.ar      1 <0>        -0.1216
     25 C19         1.3519   -6.4100   -2.4119 C.ar      1 <0>        -0.0841
     26 C20         1.6592   -7.6771   -2.8626 C.ar      1 <0>        -0.1244
     27 C21         1.6892   -7.9435   -4.2200 C.ar      1 <0>        -0.0692
     28 C22         1.4117   -6.9425   -5.1341 C.ar      1 <0>        -0.0994
     29 C23         1.0978   -5.6724   -4.6966 C.ar      1 <0>        -0.0536
     30 C24         2.0262   -9.3299   -4.7050 C.3       1 <0>         0.0939
     31 N6          0.7933  -10.1196   -4.8258 N.3       1 <0>        -0.5345
     32 C25         0.1866  -10.3538   -3.5078 C.3       1 <0>         0.0185
     33 C26        -1.1228  -11.1262   -3.6823 C.3       1 <0>        -0.0025
     34 N7         -0.8513  -12.4061   -4.3498 N.4       1 <0>        -0.3884
     35 C27        -0.2685  -12.1554   -5.6746 C.3       1 <0>        -0.0024
     36 C28         1.0481  -11.3916   -5.5166 C.3       1 <0>         0.0250
     37 C29        -2.1059  -13.1551   -4.5009 C.3       1 <0>        -0.0460
     38 H1          0.5251    2.2130   -0.2290 H         1 <0>         0.0728
     39 H2         -1.1901    1.8307    0.0540 H         1 <0>         0.0743
     40 H3          0.0021    1.5877    1.3533 H         1 <0>         0.0627
     41 H4         -1.3262    0.2836   -1.8111 H         1 <0>         0.1320
     42 H5         -0.9481   -2.0158   -2.5982 H         1 <0>         0.1349
     43 H6          1.9030   -2.6209    0.5302 H         1 <0>         0.1479
     44 H7          1.8658    0.7534    1.6418 H         1 <0>         0.4260
     45 H8          1.8844   -4.2483    3.3325 H         1 <0>         0.1734
     46 H9          3.3172   -3.4566    5.1985 H         1 <0>         0.1507
     47 H10         4.0401    1.1680    4.9670 H         1 <0>         0.1466
     48 H11         5.4807    1.9525    6.8318 H         1 <0>         0.1437
     49 H12         6.3909    0.3135    8.4254 H         1 <0>         0.1633
     50 H13         4.5316   -2.8268    6.4514 H         1 <0>         0.1617
     51 H14         0.8453   -4.4884   -0.8911 H         1 <0>         0.4084
     52 H15         1.3291   -6.2032   -1.3521 H         1 <0>         0.1294
     53 H16         1.8771   -8.4627   -2.1544 H         1 <0>         0.1265
     54 H17         1.4372   -7.1570   -6.1922 H         1 <0>         0.1340
     55 H18         0.8770   -4.8931   -5.4110 H         1 <0>         0.1424
     56 H19         2.5135   -9.2661   -5.6779 H         1 <0>         0.1008
     57 H20         2.6973   -9.8107   -3.9933 H         1 <0>         0.0595
     58 H21         0.8718  -10.9344   -2.8900 H         1 <0>         0.0618
     59 H22        -0.0167   -9.3975   -3.0259 H         1 <0>         0.1265
     60 H23        -1.5673  -11.3133   -2.7048 H         1 <0>         0.1359
     61 H24        -1.8127  -10.5393   -4.2887 H         1 <0>         0.1379
     62 H25        -0.0795  -13.1056   -6.1741 H         1 <0>         0.1367
     63 H26        -0.9627  -11.5633   -6.2708 H         1 <0>         0.1381
     64 H27         1.4733  -11.1924   -6.5003 H         1 <0>         0.1253
     65 H28         1.7474  -11.9892   -4.9320 H         1 <0>         0.0621
     66 H29        -2.8061  -12.5737   -5.1008 H         1 <0>         0.1233
     67 H30        -1.9046  -14.1049   -4.9963 H         1 <0>         0.1246
     68 H31        -2.5379  -13.3423   -3.5179 H         1 <0>         0.1243
     69 H32        -0.2036  -12.9443   -3.7940 H         1 <0>         0.4222
@<TRIPOS>BOND
     1    1    2 1
     2    1   38 1
     3    1   39 1
     4    1   40 1
     5    2    7 ar
     6    2    3 ar
     7    3    4 ar
     8    3   41 1
     9    4    5 ar
    10    4   42 1
    11    5    6 ar
    12    5   21 1
    13    6    7 ar
    14    6   43 1
    15    7    8 1
    16    8    9 1
    17    8   44 1
    18    9   14 ar
    19    9   10 ar
    20   10   11 ar
    21   11   12 ar
    22   11   45 1
    23   12   13 ar
    24   12   46 1
    25   13   14 ar
    26   13   15 1
    27   15   20 ar
    28   15   16 ar
    29   16   17 ar
    30   16   47 1
    31   17   18 ar
    32   17   48 1
    33   18   19 ar
    34   18   49 1
    35   19   20 ar
    36   20   50 1
    37   21   22 am
    38   21   51 1
    39   22   23 2
    40   22   24 1
    41   24   29 ar
    42   24   25 ar
    43   25   26 ar
    44   25   52 1
    45   26   27 ar
    46   26   53 1
    47   27   28 ar
    48   27   30 1
    49   28   29 ar
    50   28   54 1
    51   29   55 1
    52   30   31 1
    53   30   56 1
    54   30   57 1
    55   31   36 1
    56   31   32 1
    57   32   33 1
    58   32   58 1
    59   32   59 1
    60   33   34 1
    61   33   60 1
    62   33   61 1
    63   34   35 1
    64   34   37 1
    65   34   69 1
    66   35   36 1
    67   35   62 1
    68   35   63 1
    69   36   64 1
    70   36   65 1
    71   37   66 1
    72   37   67 1
    73   37   68 1
@<TRIPOS>MOLECULE
ZINC19632618
   69    73     0     0     0
SMALL
USER_CHARGES

@<TRIPOS>ATOM
      1 C1         -0.1643    1.5374    0.2772 C.3       1 <0>        -0.1179
      2 C2          0.0708    0.1281   -0.2021 C.ar      1 <0>        -0.1195
      3 C3         -0.6192   -0.3521   -1.2987 C.ar      1 <0>        -0.0803
      4 C4         -0.4070   -1.6434   -1.7410 C.ar      1 <0>        -0.1287
      5 C5          0.5017   -2.4641   -1.0837 C.ar      1 <0>         0.1452
      6 C6          1.1965   -1.9850    0.0175 C.ar      1 <0>        -0.1374
      7 C7          0.9852   -0.6852    0.4558 C.ar      1 <0>         0.1839
      8 N1          1.6874   -0.1967    1.5617 N.pl3     1 <0>        -0.6318
      9 C8          2.1285   -1.0695    2.5429 C.ar      1 <0>         0.5654
     10 N2          1.7764   -2.3456    2.4776 N.ar      1 <0>        -0.5590
     11 C9          2.1776   -3.2107    3.3953 C.ar      1 <0>         0.1907
     12 C10         2.9764   -2.7714    4.4364 C.ar      1 <0>        -0.2695
     13 C11         3.3313   -1.4207    4.4789 C.ar      1 <0>         0.2707
     14 N3          2.8950   -0.6087    3.5185 N.ar      1 <0>        -0.5571
     15 C12         4.1856   -0.9008    5.5740 C.ar      1 <0>        -0.1213
     16 C13         4.4510    0.4679    5.6793 C.ar      1 <0>        -0.0264
     17 C14         5.2541    0.9026    6.7193 C.ar      1 <0>        -0.1772
     18 C15         5.7636   -0.0222    7.6129 C.ar      1 <0>         0.1201
     19 N4          5.4957   -1.3077    7.4879 N.ar      1 <0>        -0.4842
     20 C16         4.7320   -1.7677    6.5181 C.ar      1 <0>         0.1342
     21 N5          0.7153   -3.7716   -1.5315 N.am      1 <0>        -0.6603
     22 C17         0.7404   -4.0356   -2.8529 C.2       1 <0>         0.5491
     23 O1          0.4912   -3.1555   -3.6535 O.2       1 <0>        -0.5015
     24 C18         1.0709   -5.3955   -3.3287 C.ar      1 <0>        -0.0938
     25 C19         1.3519   -6.4100   -2.4119 C.ar      1 <0>        -0.0834
     26 C20         1.6592   -7.6771   -2.8626 C.ar      1 <0>        -0.1009
     27 C21         1.6892   -7.9435   -4.2200 C.ar      1 <0>        -0.1382
     28 C22         1.4117   -6.9425   -5.1341 C.ar      1 <0>        -0.0966
     29 C23         1.0978   -5.6724   -4.6966 C.ar      1 <0>        -0.0538
     30 C24         2.0262   -9.3299   -4.7050 C.3       1 <0>         0.0425
     31 N6          0.7933  -10.1196   -4.8258 N.4       1 <0>        -0.3856
     32 C25         0.1989  -10.3052   -3.4955 C.3       1 <0>        -0.0078
     33 C26        -1.0954  -11.1117   -3.6230 C.3       1 <0>         0.0256
     34 N7         -0.7986  -12.4159   -4.2323 N.3       1 <0>        -0.5431
     35 C27        -0.1799  -12.2456   -5.5546 C.3       1 <0>         0.0239
     36 C28         1.1068  -11.4297   -5.4112 C.3       1 <0>        -0.0024
     37 C29        -2.0090  -13.2436   -4.3201 C.3       1 <0>         0.0192
     38 H1          0.5251    2.2130   -0.2290 H         1 <0>         0.0738
     39 H2         -1.1901    1.8307    0.0540 H         1 <0>         0.0752
     40 H3          0.0021    1.5877    1.3533 H         1 <0>         0.0636
     41 H4         -1.3262    0.2836   -1.8111 H         1 <0>         0.1330
     42 H5         -0.9481   -2.0158   -2.5982 H         1 <0>         0.1345
     43 H6          1.9030   -2.6209    0.5302 H         1 <0>         0.1487
     44 H7          1.8658    0.7534    1.6418 H         1 <0>         0.4265
     45 H8          1.8844   -4.2483    3.3325 H         1 <0>         0.1737
     46 H9          3.3172   -3.4566    5.1985 H         1 <0>         0.1513
     47 H10         4.0401    1.1680    4.9670 H         1 <0>         0.1465
     48 H11         5.4807    1.9525    6.8318 H         1 <0>         0.1439
     49 H12         6.3909    0.3135    8.4254 H         1 <0>         0.1636
     50 H13         4.5316   -2.8268    6.4514 H         1 <0>         0.1618
     51 H14         0.8453   -4.4884   -0.8911 H         1 <0>         0.4091
     52 H15         1.3291   -6.2032   -1.3521 H         1 <0>         0.1399
     53 H16         1.8771   -8.4627   -2.1544 H         1 <0>         0.1405
     54 H17         1.4372   -7.1570   -6.1922 H         1 <0>         0.1409
     55 H18         0.8770   -4.8931   -5.4110 H         1 <0>         0.1513
     56 H19         2.5135   -9.2661   -5.6779 H         1 <0>         0.1411
     57 H20         2.6973   -9.8107   -3.9933 H         1 <0>         0.1402
     58 H21         0.8998  -10.8418   -2.8560 H         1 <0>         0.1385
     59 H22        -0.0212   -9.3320   -3.0568 H         1 <0>         0.1352
     60 H23        -1.5289  -11.2624   -2.6343 H         1 <0>         0.1235
     61 H24        -1.8016  -10.5690   -4.2513 H         1 <0>         0.0601
     62 H25         0.0544  -13.2235   -5.9751 H         1 <0>         0.1247
     63 H26        -0.8711  -11.7216   -6.2147 H         1 <0>         0.0606
     64 H27         1.5598  -11.2902   -6.3927 H         1 <0>         0.1372
     65 H28         1.8030  -11.9606   -4.7619 H         1 <0>         0.1392
     66 H29        -2.7542  -12.7340   -4.9308 H         1 <0>         0.0396
     67 H30        -1.7610  -14.2028   -4.7745 H         1 <0>         0.0842
     68 H31        -2.4099  -13.4082   -3.3199 H         1 <0>         0.0844
     69 H32         0.1396   -9.6332   -5.4209 H         1 <0>         0.4206
@<TRIPOS>BOND
     1    1    2 1
     2    1   38 1
     3    1   39 1
     4    1   40 1
     5    2    7 ar
     6    2    3 ar
     7    3    4 ar
     8    3   41 1
     9    4    5 ar
    10    4   42 1
    11    5    6 ar
    12    5   21 1
    13    6    7 ar
    14    6   43 1
    15    7    8 1
    16    8    9 1
    17    8   44 1
    18    9   14 ar
    19    9   10 ar
    20   10   11 ar
    21   11   12 ar
    22   11   45 1
    23   12   13 ar
    24   12   46 1
    25   13   14 ar
    26   13   15 1
    27   15   20 ar
    28   15   16 ar
    29   16   17 ar
    30   16   47 1
    31   17   18 ar
    32   17   48 1
    33   18   19 ar
    34   18   49 1
    35   19   20 ar
    36   20   50 1
    37   21   22 am
    38   21   51 1
    39   22   23 2
    40   22   24 1
    41   24   29 ar
    42   24   25 ar
    43   25   26 ar
    44   25   52 1
    45   26   27 ar
    46   26   53 1
    47   27   28 ar
    48   27   30 1
    49   28   29 ar
    50   28   54 1
    51   29   55 1
    52   30   31 1
    53   30   56 1
    54   30   57 1
    55   31   36 1
    56   31   32 1
    57   31   69 1
    58   32   33 1
    59   32   58 1
    60   32   59 1
    61   33   34 1
    62   33   60 1
    63   33   61 1
    64   34   35 1
    65   34   37 1
    66   35   36 1
    67   35   62 1
    68   35   63 1
    69   36   64 1
    70   36   65 1
    71   37   66 1
    72   37   67 1
    73   37   68 1
@<TRIPOS>MOLECULE
ZINC19632618
   68    72     0     0     0
SMALL
USER_CHARGES

@<TRIPOS>ATOM
      1 C1         -0.1643    1.5374    0.2772 C.3       1 <0>        -0.1139
      2 C2          0.0708    0.1281   -0.2021 C.ar      1 <0>        -0.1276
      3 C3         -0.6192   -0.3521   -1.2987 C.ar      1 <0>        -0.0809
      4 C4         -0.4070   -1.6434   -1.7410 C.ar      1 <0>        -0.1296
      5 C5          0.5017   -2.4641   -1.0837 C.ar      1 <0>         0.1575
      6 C6          1.1965   -1.9850    0.0175 C.ar      1 <0>        -0.1408
      7 C7          0.9852   -0.6852    0.4558 C.ar      1 <0>         0.1805
      8 N1          1.6874   -0.1967    1.5617 N.pl3     1 <0>        -0.6310
      9 C8          2.1285   -1.0695    2.5429 C.ar      1 <0>         0.5658
     10 N2          1.7764   -2.3456    2.4776 N.ar      1 <0>        -0.5548
     11 C9          2.1776   -3.2107    3.3953 C.ar      1 <0>         0.1930
     12 C10         2.9764   -2.7714    4.4364 C.ar      1 <0>        -0.2707
     13 C11         3.3313   -1.4207    4.4789 C.ar      1 <0>         0.2660
     14 N3          2.8950   -0.6087    3.5185 N.ar      1 <0>        -0.5591
     15 C12         4.1856   -0.9008    5.5740 C.ar      1 <0>        -0.1161
     16 C13         4.4510    0.4679    5.6793 C.ar      1 <0>        -0.0277
     17 C14         5.2541    0.9026    6.7193 C.ar      1 <0>        -0.1780
     18 C15         5.7636   -0.0222    7.6129 C.ar      1 <0>         0.1167
     19 N4          5.4957   -1.3077    7.4879 N.ar      1 <0>        -0.4846
     20 C16         4.7320   -1.7677    6.5181 C.ar      1 <0>         0.1331
     21 N5          0.7153   -3.7716   -1.5315 N.am      1 <0>        -0.6684
     22 C17         0.7404   -4.0356   -2.8529 C.2       1 <0>         0.5607
     23 O1          0.4912   -3.1555   -3.6535 O.2       1 <0>        -0.5149
     24 C18         1.0709   -5.3955   -3.3287 C.ar      1 <0>        -0.1367
     25 C19         1.3519   -6.4100   -2.4119 C.ar      1 <0>        -0.0845
     26 C20         1.6592   -7.6771   -2.8626 C.ar      1 <0>        -0.1214
     27 C21         1.6892   -7.9435   -4.2200 C.ar      1 <0>        -0.0481
     28 C22         1.4117   -6.9425   -5.1341 C.ar      1 <0>        -0.1045
     29 C23         1.0978   -5.6724   -4.6966 C.ar      1 <0>        -0.0549
     30 C24         2.0262   -9.3299   -4.7050 C.3       1 <0>         0.0887
     31 N6          0.7933  -10.1196   -4.8258 N.3       1 <0>        -0.5346
     32 C25         0.1854  -10.3517   -3.5082 C.3       1 <0>         0.0528
     33 C26        -1.1341  -11.1069   -3.6840 C.3       1 <0>         0.0560
     34 N7         -0.8794  -12.3787   -4.3748 N.3       1 <0>        -0.5467
     35 C27        -0.2715  -12.1466   -5.6924 C.3       1 <0>         0.0557
     36 C28         1.0481  -11.3914   -5.5165 C.3       1 <0>         0.0569
     37 C29        -2.1122  -13.1683   -4.4955 C.3       1 <0>         0.0243
     38 H1          0.5251    2.2130   -0.2290 H         1 <0>         0.0707
     39 H2         -1.1901    1.8307    0.0540 H         1 <0>         0.0727
     40 H3          0.0021    1.5877    1.3533 H         1 <0>         0.0612
     41 H4         -1.3262    0.2836   -1.8111 H         1 <0>         0.1306
     42 H5         -0.9481   -2.0158   -2.5982 H         1 <0>         0.1361
     43 H6          1.9030   -2.6209    0.5302 H         1 <0>         0.1478
     44 H7          1.8658    0.7534    1.6418 H         1 <0>         0.4247
     45 H8          1.8844   -4.2483    3.3325 H         1 <0>         0.1749
     46 H9          3.3172   -3.4566    5.1985 H         1 <0>         0.1504
     47 H10         4.0401    1.1680    4.9670 H         1 <0>         0.1465
     48 H11         5.4807    1.9525    6.8318 H         1 <0>         0.1424
     49 H12         6.3909    0.3135    8.4254 H         1 <0>         0.1620
     50 H13         4.5316   -2.8268    6.4514 H         1 <0>         0.1624
     51 H14         0.8453   -4.4884   -0.8911 H         1 <0>         0.4098
     52 H15         1.3291   -6.2032   -1.3521 H         1 <0>         0.1256
     53 H16         1.8771   -8.4627   -2.1544 H         1 <0>         0.1277
     54 H17         1.4372   -7.1570   -6.1922 H         1 <0>         0.1323
     55 H18         0.8770   -4.8931   -5.4110 H         1 <0>         0.1380
     56 H19         2.5135   -9.2661   -5.6779 H         1 <0>         0.0885
     57 H20         2.6973   -9.8107   -3.9933 H         1 <0>         0.0490
     58 H21         0.8640  -10.9435   -2.8938 H         1 <0>         0.0436
     59 H22        -0.0051   -9.3950   -3.0219 H         1 <0>         0.0840
     60 H23        -1.5725  -11.3056   -2.7060 H         1 <0>         0.0799
     61 H24        -1.8225  -10.5033   -4.2756 H         1 <0>         0.0432
     62 H25        -0.0810  -13.1033   -6.1787 H         1 <0>         0.0811
     63 H26        -0.9501  -11.5548   -6.3068 H         1 <0>         0.0437
     64 H27         1.4864  -11.1926   -6.4945 H         1 <0>         0.0821
     65 H28         1.7364  -11.9950   -4.9250 H         1 <0>         0.0450
     66 H29        -2.8511  -12.6037   -5.0641 H         1 <0>         0.0271
     67 H30        -1.8953  -14.1043   -5.0104 H         1 <0>         0.0693
     68 H31        -2.5051  -13.3830   -3.5017 H         1 <0>         0.0693
@<TRIPOS>BOND
     1    1    2 1
     2    1   38 1
     3    1   39 1
     4    1   40 1
     5    2    7 ar
     6    2    3 ar
     7    3    4 ar
     8    3   41 1
     9    4    5 ar
    10    4   42 1
    11    5    6 ar
    12    5   21 1
    13    6    7 ar
    14    6   43 1
    15    7    8 1
    16    8    9 1
    17    8   44 1
    18    9   14 ar
    19    9   10 ar
    20   10   11 ar
    21   11   12 ar
    22   11   45 1
    23   12   13 ar
    24   12   46 1
    25   13   14 ar
    26   13   15 1
    27   15   20 ar
    28   15   16 ar
    29   16   17 ar
    30   16   47 1
    31   17   18 ar
    32   17   48 1
    33   18   19 ar
    34   18   49 1
    35   19   20 ar
    36   20   50 1
    37   21   22 am
    38   21   51 1
    39   22   23 2
    40   22   24 1
    41   24   29 ar
    42   24   25 ar
    43   25   26 ar
    44   25   52 1
    45   26   27 ar
    46   26   53 1
    47   27   28 ar
    48   27   30 1
    49   28   29 ar
    50   28   54 1
    51   29   55 1
    52   30   31 1
    53   30   56 1
    54   30   57 1
    55   31   36 1
    56   31   32 1
    57   32   33 1
    58   32   58 1
    59   32   59 1
    60   33   34 1
    61   33   60 1
    62   33   61 1
    63   34   35 1
    64   34   37 1
    65   35   36 1
    66   35   62 1
    67   35   63 1
    68   36   64 1
    69   36   65 1
    70   37   66 1
    71   37   67 1
    72   37   68 1
