@<TRIPOS>MOLECULE
ZINC49114528
   52    56     0     0     0
SMALL
USER_CHARGES

@<TRIPOS>ATOM
      1 C1         -0.1945    1.5410    1.0932 C.3       1 <0>        -0.1140
      2 C2         -0.1408    0.0380    0.9973 C.ar      1 <0>        -0.1306
      3 C3          0.0794   -0.5654   -0.2227 C.ar      1 <0>        -0.0227
      4 C4          0.1294   -1.9579   -0.3039 C.ar      1 <0>        -0.2529
      5 C5         -0.0399   -2.7402    0.8502 C.ar      1 <0>         0.1801
      6 C6         -0.2636   -2.1117    2.0672 C.ar      1 <0>        -0.1600
      7 C7         -0.3073   -0.7334    2.1364 C.ar      1 <0>        -0.0150
      8 C8         -0.5439   -0.0608    3.4641 C.3       1 <0>        -0.1248
      9 O1          0.0178   -4.0909    0.7863 O.3       1 <0>        -0.2966
     10 C9         -0.2362   -4.7281   -0.4650 C.3       1 <0>         0.1311
     11 C10        -1.7003   -4.5209   -0.8586 C.3       1 <0>        -0.1627
     12 C11        -2.6050   -5.1096    0.2286 C.3       1 <0>         0.1187
     13 N1         -2.2307   -6.5137    0.4457 N.am      1 <0>        -0.6036
     14 C12        -0.8275   -6.8333    0.7418 C.3       1 <0>         0.0994
     15 C13         0.0582   -6.2248   -0.3501 C.3       1 <0>        -0.1192
     16 C14        -3.1569   -7.4902    0.3740 C.2       1 <0>         0.5650
     17 O2         -4.3269   -7.2070    0.2027 O.2       1 <0>        -0.5335
     18 C15        -2.7512   -8.9024    0.5034 C.ar      1 <0>        -0.1577
     19 C16        -2.0171   -9.3221    1.6090 C.ar      1 <0>        -0.0346
     20 C17        -1.6334  -10.6466    1.7361 C.ar      1 <0>        -0.1667
     21 C18        -1.9701  -11.5714    0.7730 C.ar      1 <0>        -0.0110
     22 C19        -2.7076  -11.1770   -0.3480 C.ar      1 <0>        -0.1855
     23 C20        -3.1084   -9.8349   -0.4864 C.ar      1 <0>         0.1713
     24 N2         -3.8077   -9.7496   -1.6558 N.pl3     1 <0>        -0.5005
     25 H1         -4.2049   -8.9410   -2.0155 H         1 <0>         0.4435
     26 N3         -3.8596  -11.0131   -2.2532 N.2       1 <0>        -0.2437
     27 C21        -3.2176  -11.8791   -1.5224 C.2       1 <0>         0.0824
     28 C22         0.6687   -4.1144   -1.5427 C.3       1 <0>        -0.1931
     29 C23         0.3567   -2.6291   -1.5959 C.2       1 <0>         0.4025
     30 O3          0.2973   -2.0268   -2.6471 O.2       1 <0>        -0.4431
     31 H2          0.8065    1.9290    1.2819 H         1 <0>         0.0716
     32 H3         -0.5729    1.9516    0.1571 H         1 <0>         0.0678
     33 H4         -0.8559    1.8295    1.9102 H         1 <0>         0.0711
     34 H5          0.2121    0.0357   -1.1101 H         1 <0>         0.1357
     35 H6         -0.3997   -2.7013    2.9618 H         1 <0>         0.1381
     36 H7         -1.6147    0.0738    3.6174 H         1 <0>         0.0798
     37 H8         -0.1376   -0.6810    4.2631 H         1 <0>         0.0732
     38 H9         -0.0507    0.9112    3.4721 H         1 <0>         0.0763
     39 H10        -1.9019   -3.4547   -0.9617 H         1 <0>         0.0832
     40 H11        -1.8967   -5.0223   -1.8063 H         1 <0>         0.0889
     41 H12        -2.4756   -4.5495    1.1546 H         1 <0>         0.0770
     42 H13        -3.6453   -5.0542   -0.0922 H         1 <0>         0.0986
     43 H14        -0.5539   -6.4142    1.7101 H         1 <0>         0.0852
     44 H15        -0.6950   -7.9151    0.7591 H         1 <0>         0.1007
     45 H16        -0.1525   -6.7113   -1.3025 H         1 <0>         0.0927
     46 H17         1.1069   -6.3704   -0.0909 H         1 <0>         0.0957
     47 H18        -1.7445   -8.6094    2.3733 H         1 <0>         0.1370
     48 H19        -1.0637  -10.9573    2.5994 H         1 <0>         0.1374
     49 H20        -1.6643  -12.6014    0.8832 H         1 <0>         0.1367
     50 H21        -3.0952  -12.9299   -1.7396 H         1 <0>         0.2029
     51 H22         1.7155   -4.2648   -1.2786 H         1 <0>         0.1167
     52 H23         0.4590   -4.5729   -2.5091 H         1 <0>         0.1112
@<TRIPOS>BOND
     1    1    2 1
     2    1   31 1
     3    1   32 1
     4    1   33 1
     5    2    7 ar
     6    2    3 ar
     7    3    4 ar
     8    3   34 1
     9    4   29 1
    10    4    5 ar
    11    5    6 ar
    12    5    9 1
    13    6    7 ar
    14    6   35 1
    15    7    8 1
    16    8   36 1
    17    8   37 1
    18    8   38 1
    19    9   10 1
    20   10   15 1
    21   10   11 1
    22   10   28 1
    23   11   12 1
    24   11   39 1
    25   11   40 1
    26   12   13 1
    27   12   41 1
    28   12   42 1
    29   13   14 1
    30   13   16 am
    31   14   15 1
    32   14   43 1
    33   14   44 1
    34   15   45 1
    35   15   46 1
    36   16   17 2
    37   16   18 1
    38   18   23 ar
    39   18   19 ar
    40   19   20 ar
    41   19   47 1
    42   20   21 ar
    43   20   48 1
    44   21   22 ar
    45   21   49 1
    46   22   27 1
    47   22   23 ar
    48   23   24 1
    49   24   25 1
    50   24   26 1
    51   26   27 2
    52   27   50 1
    53   28   29 1
    54   28   51 1
    55   28   52 1
    56   29   30 2
@<TRIPOS>MOLECULE
ZINC49067414
   49    53     0     0     0
SMALL
USER_CHARGES

@<TRIPOS>ATOM
      1 C1          0.1592    1.5559   -1.0783 C.3       1 <0>        -0.1127
      2 C2          0.1464    0.0511   -0.9975 C.ar      1 <0>        -0.1290
      3 C3          0.3386   -0.7043   -2.1439 C.ar      1 <0>        -0.0501
      4 C4          0.3282   -2.0834   -2.0894 C.ar      1 <0>        -0.1566
      5 C5          0.1251   -2.7305   -0.8779 C.ar      1 <0>         0.1756
      6 C6         -0.0655   -1.9648    0.2834 C.ar      1 <0>        -0.2468
      7 C7         -0.0507   -0.5703    0.2169 C.ar      1 <0>        -0.0274
      8 C8         -0.2710   -2.6551    1.5690 C.2       1 <0>         0.4019
      9 O1         -0.2247   -2.0624    2.6263 O.2       1 <0>        -0.4416
     10 C9         -0.5442   -4.1473    1.5007 C.3       1 <0>        -0.1934
     11 C10         0.3765   -4.7272    0.4171 C.3       1 <0>         0.1313
     12 O2          0.1095   -4.0829   -0.8274 O.3       1 <0>        -0.2967
     13 C11         1.8344   -4.4919    0.8169 C.3       1 <0>        -0.1626
     14 C12         2.7565   -5.0519   -0.2706 C.3       1 <0>         0.1187
     15 N1          2.4131   -6.4617   -0.5016 N.am      1 <0>        -0.6038
     16 C13         1.0184   -6.8076   -0.8081 C.3       1 <0>         0.0993
     17 C14         0.1156   -6.2289    0.2859 C.3       1 <0>        -0.1193
     18 C15         3.3593   -7.4191   -0.4342 C.2       1 <0>         0.5651
     19 O3          4.5224   -7.1129   -0.2549 O.2       1 <0>        -0.5335
     20 C16         2.9840   -8.8382   -0.5777 C.ar      1 <0>        -0.1578
     21 C17         2.2642   -9.2636   -1.6906 C.ar      1 <0>        -0.0346
     22 C18         1.9090  -10.5947   -1.8310 C.ar      1 <0>        -0.1667
     23 C19         2.2604  -11.5207   -0.8743 C.ar      1 <0>        -0.0109
     24 C20         2.9841  -11.1206    0.2537 C.ar      1 <0>        -0.1855
     25 C21         3.3559   -9.7717    0.4057 C.ar      1 <0>         0.1713
     26 N2          4.0477   -9.6819    1.5793 N.pl3     1 <0>        -0.5006
     27 H1          4.4261   -8.8684    1.9479 H         1 <0>         0.4435
     28 N3          4.1232  -10.9493    2.1660 N.2       1 <0>        -0.2437
     29 C22         3.5031  -11.8222    1.4246 C.2       1 <0>         0.0825
     30 H2          1.1766    1.9189   -0.9330 H         1 <0>         0.0718
     31 H3         -0.2025    1.8703   -2.0573 H         1 <0>         0.0692
     32 H4         -0.4874    1.9668   -0.3029 H         1 <0>         0.0679
     33 H5          0.4978   -0.2082   -3.0900 H         1 <0>         0.1355
     34 H6          0.4780   -2.6599   -2.9903 H         1 <0>         0.1388
     35 H7         -0.1967    0.0178    1.1109 H         1 <0>         0.1355
     36 H8         -0.3229   -4.6098    2.4626 H         1 <0>         0.1116
     37 H9         -1.5867   -4.3221    1.2347 H         1 <0>         0.1170
     38 H10         2.0125   -3.4224    0.9294 H         1 <0>         0.0830
     39 H11         2.0383   -4.9961    1.7616 H         1 <0>         0.0891
     40 H12         2.6197   -4.4866   -1.1925 H         1 <0>         0.0771
     41 H13         3.7939   -4.9772    0.0558 H         1 <0>         0.0987
     42 H14         0.7404   -6.3841   -1.7732 H         1 <0>         0.0853
     43 H15         0.9086   -7.8917   -0.8370 H         1 <0>         0.1008
     44 H16         0.3331   -6.7201    1.2344 H         1 <0>         0.0928
     45 H17        -0.9286   -6.3949    0.0212 H         1 <0>         0.0957
     46 H18         1.9804   -8.5502   -2.4501 H         1 <0>         0.1370
     47 H19         1.3502  -10.9098   -2.6998 H         1 <0>         0.1374
     48 H20         1.9769  -12.5558   -0.9949 H         1 <0>         0.1367
     49 H21         3.4017  -12.8772    1.6321 H         1 <0>         0.2029
@<TRIPOS>BOND
     1    1    2 1
     2    1   30 1
     3    1   31 1
     4    1   32 1
     5    2    7 ar
     6    2    3 ar
     7    3    4 ar
     8    3   33 1
     9    4    5 ar
    10    4   34 1
    11    5   12 1
    12    5    6 ar
    13    6    7 ar
    14    6    8 1
    15    7   35 1
    16    8    9 2
    17    8   10 1
    18   10   11 1
    19   10   36 1
    20   10   37 1
    21   11   17 1
    22   11   12 1
    23   11   13 1
    24   13   14 1
    25   13   38 1
    26   13   39 1
    27   14   15 1
    28   14   40 1
    29   14   41 1
    30   15   16 1
    31   15   18 am
    32   16   17 1
    33   16   42 1
    34   16   43 1
    35   17   44 1
    36   17   45 1
    37   18   19 2
    38   18   20 1
    39   20   25 ar
    40   20   21 ar
    41   21   22 ar
    42   21   46 1
    43   22   23 ar
    44   22   47 1
    45   23   24 ar
    46   23   48 1
    47   24   29 1
    48   24   25 ar
    49   25   26 1
    50   26   27 1
    51   26   28 1
    52   28   29 2
    53   29   49 1
@<TRIPOS>MOLECULE
ZINC19866683
   59    64     0     0     0
SMALL
USER_CHARGES
[4-(1,3-benzodioxol-5-ylmethyl)piperazin-1-yl]-(2-phenyl-4-quinolyl)methanone
@<TRIPOS>ATOM
      1 C1          6.0420   -6.7188   -6.3665 C.ar      1 <0>        -0.1031
      2 C2          6.2223   -7.8268   -5.5581 C.ar      1 <0>        -0.1251
      3 C3          6.7603   -7.6827   -4.2954 C.ar      1 <0>        -0.0737
      4 C4          7.1227   -6.4178   -3.8353 C.ar      1 <0>        -0.0593
      5 C5          6.9343   -5.3043   -4.6526 C.ar      1 <0>        -0.0980
      6 C6          6.4003   -5.4611   -5.9154 C.ar      1 <0>        -0.1221
      7 C7          7.7008   -6.2564   -2.4794 C.ar      1 <0>         0.2056
      8 C8          8.0562   -4.9709   -2.0433 C.ar      1 <0>        -0.1329
      9 C9          8.5981   -4.8068   -0.7767 C.ar      1 <0>        -0.0611
     10 C10         8.7742   -6.0085    0.0391 C.ar      1 <0>        -0.0712
     11 C11         9.3060   -5.9434    1.3317 C.ar      1 <0>        -0.0923
     12 C12         9.4482   -7.0873    2.0598 C.ar      1 <0>        -0.1079
     13 C13         9.0642   -8.3197    1.5355 C.ar      1 <0>        -0.0969
     14 C14         8.5378   -8.4178    0.2844 C.ar      1 <0>        -0.0904
     15 C15         8.3761   -7.2588   -0.4974 C.ar      1 <0>         0.1354
     16 N1          7.8630   -7.3240   -1.7270 N.ar      1 <0>        -0.4557
     17 C16         8.9877   -3.4716   -0.2736 C.2       1 <0>         0.5657
     18 O1         10.1045   -3.2918    0.1711 O.2       1 <0>        -0.5195
     19 N2          8.1044   -2.4542   -0.3084 N.am      1 <0>        -0.6037
     20 C17         8.4401   -1.1430    0.2672 C.3       1 <0>         0.1149
     21 C18         7.3116   -0.7244    1.2156 C.3       1 <0>         0.0408
     22 N3          6.0297   -0.7790    0.5004 N.3       1 <0>        -0.5308
     23 C19         5.7159   -2.1489    0.0728 C.3       1 <0>         0.0345
     24 C20         6.7790   -2.6259   -0.9224 C.3       1 <0>         0.0986
     25 C21         4.9454   -0.2220    1.3202 C.3       1 <0>         0.0967
     26 C22         3.7064   -0.0672    0.4764 C.ar      1 <0>        -0.0702
     27 C23         2.7967   -1.1047    0.3899 C.ar      1 <0>        -0.1059
     28 C24         1.6589   -0.9676   -0.3832 C.ar      1 <0>        -0.0986
     29 C25         1.4275    0.2111   -1.0735 C.ar      1 <0>         0.0329
     30 C26         2.3436    1.2564   -0.9860 C.ar      1 <0>         0.0333
     31 C27         3.4817    1.1120   -0.2092 C.ar      1 <0>        -0.0779
     32 O2          1.8937    2.2957   -1.7479 O.3       1 <0>        -0.3100
     33 C28         0.4968    2.0299   -1.9744 C.3       1 <0>         0.2089
     34 O3          0.4037    0.5956   -1.8903 O.3       1 <0>        -0.3048
     35 H1          5.6203   -6.8362   -7.3539 H         1 <0>         0.1256
     36 H2          5.9411   -8.8063   -5.9156 H         1 <0>         0.1275
     37 H3          6.9005   -8.5484   -3.6651 H         1 <0>         0.1362
     38 H4          7.2091   -4.3213   -4.2996 H         1 <0>         0.1254
     39 H5          6.2573   -4.5996   -6.5509 H         1 <0>         0.1280
     40 H6          7.9089   -4.1168   -2.6877 H         1 <0>         0.1475
     41 H7          9.6067   -4.9934    1.7483 H         1 <0>         0.1340
     42 H8          9.8634   -7.0374    3.0556 H         1 <0>         0.1319
     43 H9          9.1867   -9.2119    2.1316 H         1 <0>         0.1346
     44 H10         8.2450   -9.3810   -0.1066 H         1 <0>         0.1404
     45 H11         9.3875   -1.2175    0.8211 H         1 <0>         0.1010
     46 H12         8.5448   -0.4038   -0.5407 H         1 <0>         0.0825
     47 H13         7.2824   -1.4095    2.0757 H         1 <0>         0.0426
     48 H14         7.4918    0.3013    1.5698 H         1 <0>         0.0950
     49 H15         5.7077   -2.8137    0.9491 H         1 <0>         0.0421
     50 H16         4.7272   -2.1652   -0.4091 H         1 <0>         0.0975
     51 H17         6.7227   -2.0305   -1.8456 H         1 <0>         0.0854
     52 H18         6.6201   -3.6879   -1.1608 H         1 <0>         0.0946
     53 H19         4.7348   -0.9007    2.1598 H         1 <0>         0.0513
     54 H20         5.2485    0.7608    1.7104 H         1 <0>         0.0919
     55 H21         2.9754   -2.0243    0.9273 H         1 <0>         0.1349
     56 H22         0.9499   -1.7797   -0.4489 H         1 <0>         0.1364
     57 H23         4.1937    1.9210   -0.1392 H         1 <0>         0.1366
     58 H24        -0.1022    2.5324   -1.2007 H         1 <0>         0.0863
     59 H25         0.2075    2.4088   -2.9657 H         1 <0>         0.1346
@<TRIPOS>BOND
     1    1    6 ar
     2    1    2 ar
     3    1   35 1
     4    2    3 ar
     5    2   36 1
     6    3    4 ar
     7    3   37 1
     8    4    5 ar
     9    4    7 1
    10    5    6 ar
    11    5   38 1
    12    6   39 1
    13    7   16 ar
    14    7    8 ar
    15    8    9 ar
    16    8   40 1
    17    9   10 ar
    18    9   17 1
    19   10   15 ar
    20   10   11 ar
    21   11   12 ar
    22   11   41 1
    23   12   13 ar
    24   12   42 1
    25   13   14 ar
    26   13   43 1
    27   14   15 ar
    28   14   44 1
    29   15   16 ar
    30   17   18 2
    31   17   19 am
    32   19   24 1
    33   19   20 1
    34   20   21 1
    35   20   45 1
    36   20   46 1
    37   21   22 1
    38   21   47 1
    39   21   48 1
    40   22   23 1
    41   22   25 1
    42   23   24 1
    43   23   49 1
    44   23   50 1
    45   24   51 1
    46   24   52 1
    47   25   26 1
    48   25   53 1
    49   25   54 1
    50   26   31 ar
    51   26   27 ar
    52   27   28 ar
    53   27   55 1
    54   28   29 ar
    55   28   56 1
    56   29   34 1
    57   29   30 ar
    58   30   31 ar
    59   30   32 1
    60   31   57 1
    61   32   33 1
    62   33   34 1
    63   33   58 1
    64   33   59 1
@<TRIPOS>MOLECULE
ZINC08582037
   45    47     0     0     0
SMALL
USER_CHARGES
N-[(1S)-1-methyl-3-[2-(4-phenoxyphenoxy)thiazol-5-yl]prop-2-ynyl]acetamide
@<TRIPOS>ATOM
      1 C1          1.5083   -5.2317   -1.5272 C.3       1 <0>        -0.1600
      2 C2          2.0948   -4.6207   -0.2531 C.3       1 <0>         0.2571
      3 H1          3.1766   -4.7545   -0.2505 H         1 <0>         0.1169
      4 C3          1.7780   -3.1839   -0.2071 C.1       1 <0>        -0.1294
      5 C4          1.5254   -2.0380   -0.1704 C.1       1 <0>        -0.0742
      6 C5          1.2172   -0.6403   -0.1257 C.2       1 <0>        -0.1238
      7 C6         -0.0026   -0.0118   -0.1126 C.2       1 <0>         0.0966
      8 N1         -0.0211    1.3015   -0.0695 N.2       1 <0>        -0.5517
      9 C7          1.0951    2.0049   -0.0395 C.2       1 <0>         0.2470
     10 S1          2.3146    0.7691   -0.0726 S.3       1 <0>         0.1990
     11 O1          1.2502    3.3497    0.0053 O.3       1 <0>        -0.1772
     12 C8          0.1363    4.1240   -0.0839 C.ar      1 <0>         0.0823
     13 C9          0.2555    5.5035   -0.1713 C.ar      1 <0>        -0.1074
     14 C10        -0.8759    6.2897   -0.2667 C.ar      1 <0>        -0.0970
     15 C11        -2.1321    5.7007   -0.2645 C.ar      1 <0>         0.0709
     16 C12        -2.2515    4.3216   -0.1717 C.ar      1 <0>        -0.1084
     17 C13        -1.1199    3.5351   -0.0817 C.ar      1 <0>        -0.1749
     18 O2         -3.2460    6.4750   -0.3536 O.3       1 <0>        -0.2568
     19 C14        -3.9784    6.6712    0.7739 C.ar      1 <0>         0.1198
     20 C15        -3.6446    6.0047    1.9443 C.ar      1 <0>        -0.1965
     21 C16        -4.3877    6.2100    3.0906 C.ar      1 <0>        -0.0819
     22 C17        -5.4696    7.0707    3.0697 C.ar      1 <0>        -0.1522
     23 C18        -5.8079    7.7318    1.9033 C.ar      1 <0>        -0.0824
     24 C19        -5.0650    7.5341    0.7556 C.ar      1 <0>        -0.1453
     25 N2          1.5178   -5.2857    0.9178 N.am      1 <0>        -0.7281
     26 C20         2.0567   -6.4334    1.3747 C.2       1 <0>         0.5152
     27 O3          3.0194   -6.9157    0.8166 O.2       1 <0>        -0.5413
     28 C21         1.4631   -7.1175    2.5792 C.3       1 <0>        -0.1714
     29 H2          1.7429   -6.2956   -1.5613 H         1 <0>         0.0752
     30 H3          0.4266   -5.0979   -1.5298 H         1 <0>         0.0641
     31 H4          1.9377   -4.7370   -2.3984 H         1 <0>         0.0738
     32 H5         -0.9208   -0.5800   -0.1366 H         1 <0>         0.1859
     33 H6          1.2332    5.9622   -0.1690 H         1 <0>         0.1447
     34 H7         -0.7830    7.3633   -0.3386 H         1 <0>         0.1448
     35 H8         -3.2293    3.8632   -0.1697 H         1 <0>         0.1369
     36 H9         -1.2128    2.4615   -0.0098 H         1 <0>         0.2075
     37 H10        -2.8024    5.3288    1.9600 H         1 <0>         0.1284
     38 H11        -4.1260    5.6943    4.0027 H         1 <0>         0.1258
     39 H12        -6.0518    7.2266    3.9659 H         1 <0>         0.1258
     40 H13        -6.6534    8.4035    1.8896 H         1 <0>         0.1319
     41 H14        -5.3298    8.0504   -0.1553 H         1 <0>         0.1328
     42 H15         0.7478   -4.9000    1.3643 H         1 <0>         0.4051
     43 H16         0.6118   -6.5412    2.9415 H         1 <0>         0.0769
     44 H17         1.1328   -8.1186    2.3024 H         1 <0>         0.0980
     45 H18         2.2154   -7.1873    3.3649 H         1 <0>         0.0977
@<TRIPOS>BOND
     1    1    2 1
     2    1   29 1
     3    1   30 1
     4    1   31 1
     5    2    3 1
     6    2    4 1
     7    2   25 1
     8    4    5 3
     9    5    6 1
    10    6   10 1
    11    6    7 2
    12    7    8 1
    13    7   32 1
    14    8    9 2
    15    9   10 1
    16    9   11 1
    17   11   12 1
    18   12   17 ar
    19   12   13 ar
    20   13   14 ar
    21   13   33 1
    22   14   15 ar
    23   14   34 1
    24   15   16 ar
    25   15   18 1
    26   16   17 ar
    27   16   35 1
    28   17   36 1
    29   18   19 1
    30   19   24 ar
    31   19   20 ar
    32   20   21 ar
    33   20   37 1
    34   21   22 ar
    35   21   38 1
    36   22   23 ar
    37   22   39 1
    38   23   24 ar
    39   23   40 1
    40   24   41 1
    41   25   26 am
    42   25   42 1
    43   26   27 2
    44   26   28 1
    45   28   43 1
    46   28   44 1
    47   28   45 1
@<TRIPOS>MOLECULE
ZINC08582038
   45    47     0     0     0
SMALL
USER_CHARGES
N-[(1R)-1-methyl-3-[2-(4-phenoxyphenoxy)thiazol-5-yl]prop-2-ynyl]acetamide
@<TRIPOS>ATOM
      1 C1          3.5137    6.1842    0.1783 C.3       1 <0>        -0.1599
      2 C2          2.0004    5.9613    0.2108 C.3       1 <0>         0.2570
      3 H1          1.5898    6.3885    1.1256 H         1 <0>         0.1165
      4 C3          1.7162    4.5175    0.1728 C.1       1 <0>        -0.1296
      5 C4          1.4895    3.3660    0.1426 C.1       1 <0>        -0.0742
      6 C5          1.2130    1.9614    0.1057 C.2       1 <0>        -0.1240
      7 C6          0.0080    1.3049    0.1165 C.2       1 <0>         0.0974
      8 N1          0.0192   -0.0085    0.0745 N.2       1 <0>        -0.5515
      9 C7          1.1506   -0.6859    0.0233 C.2       1 <0>         0.2472
     10 S1          2.3415    0.5777    0.0322 S.3       1 <0>         0.1977
     11 O1          1.3358   -2.0268   -0.0244 O.3       1 <0>        -0.1772
     12 C8          0.2421   -2.8266    0.0870 C.ar      1 <0>         0.0821
     13 C9          0.3950   -4.2030    0.1721 C.ar      1 <0>        -0.1081
     14 C10        -0.7157   -5.0151    0.2906 C.ar      1 <0>        -0.1109
     15 C11        -1.9850   -4.4554    0.3130 C.ar      1 <0>         0.0714
     16 C12        -2.1382   -3.0795    0.2227 C.ar      1 <0>        -0.0950
     17 C13        -1.0272   -2.2670    0.1099 C.ar      1 <0>        -0.1737
     18 O2         -3.0788   -5.2553    0.4240 O.3       1 <0>        -0.2566
     19 C14        -3.3555   -5.7923    1.6411 C.ar      1 <0>         0.1195
     20 C15        -2.4764   -5.6070    2.6986 C.ar      1 <0>        -0.1969
     21 C16        -2.7627   -6.1496    3.9363 C.ar      1 <0>        -0.0819
     22 C17        -3.9189   -6.8856    4.1192 C.ar      1 <0>        -0.1522
     23 C18        -4.7938   -7.0765    3.0656 C.ar      1 <0>        -0.0823
     24 C19        -4.5148   -6.5317    1.8272 C.ar      1 <0>        -0.1453
     25 N2          1.3862    6.6106   -0.9500 N.am      1 <0>        -0.7283
     26 C20         1.0645    7.9184   -0.8988 C.2       1 <0>         0.5153
     27 O3          1.2835    8.5577    0.1083 O.2       1 <0>        -0.5413
     28 C21         0.4327    8.5863   -2.0928 C.3       1 <0>        -0.1714
     29 H2          3.7242    7.2533    0.2064 H         1 <0>         0.0759
     30 H3          3.9707    5.7011    1.0420 H         1 <0>         0.0738
     31 H4          3.9244    5.7570   -0.7365 H         1 <0>         0.0638
     32 H5         -0.9225    1.8519    0.1538 H         1 <0>         0.1862
     33 H6          1.3828   -4.6389    0.1501 H         1 <0>         0.1435
     34 H7         -0.5965   -6.0862    0.3609 H         1 <0>         0.1429
     35 H8         -3.1263   -2.6438    0.2402 H         1 <0>         0.1389
     36 H9         -1.1464   -1.1958    0.0400 H         1 <0>         0.2083
     37 H10        -1.5710   -5.0360    2.5552 H         1 <0>         0.1284
     38 H11        -2.0807   -6.0025    4.7607 H         1 <0>         0.1260
     39 H12        -4.1389   -7.3124    5.0866 H         1 <0>         0.1258
     40 H13        -5.6962   -7.6518    3.2110 H         1 <0>         0.1320
     41 H14        -5.1983   -6.6814    1.0045 H         1 <0>         0.1328
     42 H15         1.2110    6.0992   -1.7554 H         1 <0>         0.4051
     43 H16         0.3148    7.8588   -2.8959 H         1 <0>         0.0769
     44 H17        -0.5443    8.9809   -1.8137 H         1 <0>         0.0978
     45 H18         1.0705    9.4023   -2.4325 H         1 <0>         0.0979
@<TRIPOS>BOND
     1    1    2 1
     2    1   29 1
     3    1   30 1
     4    1   31 1
     5    2    3 1
     6    2    4 1
     7    2   25 1
     8    4    5 3
     9    5    6 1
    10    6   10 1
    11    6    7 2
    12    7    8 1
    13    7   32 1
    14    8    9 2
    15    9   10 1
    16    9   11 1
    17   11   12 1
    18   12   17 ar
    19   12   13 ar
    20   13   14 ar
    21   13   33 1
    22   14   15 ar
    23   14   34 1
    24   15   16 ar
    25   15   18 1
    26   16   17 ar
    27   16   35 1
    28   17   36 1
    29   18   19 1
    30   19   24 ar
    31   19   20 ar
    32   20   21 ar
    33   20   37 1
    34   21   22 ar
    35   21   38 1
    36   22   23 ar
    37   22   39 1
    38   23   24 ar
    39   23   40 1
    40   24   41 1
    41   25   26 am
    42   25   42 1
    43   26   27 2
    44   26   28 1
    45   28   43 1
    46   28   44 1
    47   28   45 1
