@<TRIPOS>MOLECULE
ZINC00895862
   12    11     0     0     0
SMALL
USER_CHARGES

@<TRIPOS>ATOM
      1 C1         -0.0187    1.5258    0.0104 C.3       1 <0>        -0.1954
      2 C2          0.0021   -0.0041    0.0020 C.3       1 <0>         0.0081
      3 N1         -1.3723   -0.5112    0.0124 N.pl3     1 <0>        -0.0067
      4 O1         -2.2027   -0.0218   -0.7174 O.2       1 <0>        -0.1765
      5 O2         -1.6762   -1.4189    0.7508 O.3       1 <0>        -0.1880
      6 C3          1.3951    2.0474   -0.0003 C.2       1 <0>         0.5026
      7 O3          2.3325    1.2678   -0.0134 O.co2     1 <0>        -0.6929
      8 O4          1.6016    3.2490    0.0042 O.co2     1 <0>        -0.6826
      9 H1         -0.5459    1.8868   -0.8726 H         1 <0>         0.0893
     10 H2         -0.5289    1.8773    0.9072 H         1 <0>         0.0746
     11 H3          0.5123   -0.3556   -0.8948 H         1 <0>         0.1371
     12 H4          0.5293   -0.3651    0.8851 H         1 <0>         0.1304
@<TRIPOS>BOND
     1    1    2 1
     2    1    6 1
     3    1    9 1
     4    1   10 1
     5    2    3 1
     6    2   11 1
     7    2   12 1
     8    3    4 2
     9    3    5 1
    10    6    7 2
    11    6    8 1
