@<TRIPOS>MOLECULE
ZINC00002009
   26    26     0     0     0
SMALL
USER_CHARGES

@<TRIPOS>ATOM
      1 C1          0.2034    1.4237   -0.0505 C.3       1 <0>         0.0099
      2 N1          0.1008   -0.0377   -0.0358 N.ar      1 <0>        -0.3220
      3 C2         -0.0104   -0.6846   -1.1796 C.ar      1 <0>         0.1214
      4 C3         -0.1092   -2.0628   -1.2085 C.ar      1 <0>        -0.0984
      5 C4         -0.0903   -2.7676   -0.0154 C.ar      1 <0>        -0.0125
      6 C5          0.0283   -2.0536    1.1723 C.ar      1 <0>         0.1209
      7 C6          0.1277   -0.6708    1.1201 C.ar      1 <0>         0.1163
      8 O1          0.0512   -2.7018    2.3671 O.3       1 <0>        -0.2925
      9 C7          1.1407   -3.4339    2.6684 C.2       1 <0>         0.6461
     10 O2          2.1079   -3.4148    1.9331 O.2       1 <0>        -0.5461
     11 N2          1.1581   -4.1878    3.7854 N.am      1 <0>        -0.5811
     12 C8          2.3432   -4.9843    4.1132 C.3       1 <0>         0.0917
     13 C9         -0.0080   -4.2109    4.6719 C.3       1 <0>         0.0682
     14 H1          1.2520    1.7136   -0.1176 H         1 <0>         0.1267
     15 H2         -0.3382    1.8173   -0.9106 H         1 <0>         0.1293
     16 H3         -0.2273    1.8274    0.8658 H         1 <0>         0.1263
     17 H4         -0.0250   -0.1299   -2.1061 H         1 <0>         0.2151
     18 H5         -0.2003   -2.5844   -2.1497 H         1 <0>         0.1957
     19 H6         -0.1660   -3.8449   -0.0080 H         1 <0>         0.1802
     20 H7          0.2245   -0.1069    2.0361 H         1 <0>         0.2129
     21 H8          3.0233   -4.3897    4.7231 H         1 <0>         0.0710
     22 H9          2.0417   -5.8734    4.6669 H         1 <0>         0.0914
     23 H10         2.8464   -5.2824    3.1934 H         1 <0>         0.0868
     24 H11        -0.7849   -3.5622    4.2673 H         1 <0>         0.0865
     25 H12        -0.3878   -5.2299    4.7462 H         1 <0>         0.0784
     26 H13         0.2811   -3.8578    5.6618 H         1 <0>         0.0778
@<TRIPOS>BOND
     1    1    2 1
     2    1   14 1
     3    1   15 1
     4    1   16 1
     5    2    7 ar
     6    2    3 ar
     7    3    4 ar
     8    3   17 1
     9    4    5 ar
    10    4   18 1
    11    5    6 ar
    12    5   19 1
    13    6    7 ar
    14    6    8 1
    15    7   20 1
    16    8    9 1
    17    9   10 2
    18    9   11 am
    19   11   12 1
    20   11   13 1
    21   12   21 1
    22   12   22 1
    23   12   23 1
    24   13   24 1
    25   13   25 1
    26   13   26 1
@<TRIPOS>MOLECULE
ZINC00001341
   28    28     0     0     0
SMALL
USER_CHARGES

@<TRIPOS>ATOM
      1 C1         -0.0187    1.5258    0.0104 C.3       1 <0>        -0.1889
      2 C2          0.0021   -0.0041    0.0020 C.3       1 <0>        -0.0145
      3 N1          0.6897   -0.4778   -1.2066 N.4       1 <0>        -0.2084
      4 C3         -0.0208    0.0088   -2.3967 C.3       1 <0>        -0.0500
      5 C4          2.0678    0.0307   -1.2170 C.3       1 <0>        -0.0503
      6 C5          0.7086   -1.8757   -1.2143 C.ar      1 <0>        -0.0241
      7 C6          0.1240   -2.5802   -0.1778 C.ar      1 <0>        -0.1105
      8 C7          0.1411   -3.9625   -0.1825 C.ar      1 <0>        -0.0760
      9 C8          0.7430   -4.6436   -1.2231 C.ar      1 <0>        -0.1032
     10 C9          1.3301   -3.9393   -2.2639 C.ar      1 <0>         0.1400
     11 C10         1.3063   -2.5519   -2.2599 C.ar      1 <0>        -0.1269
     12 O1          1.9227   -4.6069   -3.2886 O.3       1 <0>        -0.4870
     13 H1          1.0039    1.9031    0.0027 H         1 <0>         0.0828
     14 H2         -0.5459    1.8868   -0.8726 H         1 <0>         0.0827
     15 H3         -0.5289    1.8773    0.9072 H         1 <0>         0.1080
     16 H4          0.5293   -0.3651    0.8851 H         1 <0>         0.1314
     17 H5         -1.0205   -0.3814    0.0098 H         1 <0>         0.1314
     18 H6         -0.0356    1.0987   -2.3907 H         1 <0>         0.1291
     19 H7          0.4894   -0.3427   -3.2935 H         1 <0>         0.1209
     20 H8         -1.0434   -0.3685   -2.3890 H         1 <0>         0.1233
     21 H9          2.5950   -0.3304   -0.3340 H         1 <0>         0.1235
     22 H10         2.5780   -0.3209   -2.1138 H         1 <0>         0.1215
     23 H11         2.0530    1.1205   -1.2110 H         1 <0>         0.1292
     24 H12        -0.3463   -2.0496    0.6368 H         1 <0>         0.1520
     25 H13        -0.3161   -4.5105    0.6281 H         1 <0>         0.1546
     26 H14         0.7567   -5.7236   -1.2259 H         1 <0>         0.1528
     27 H15         1.7585   -2.0013   -3.0715 H         1 <0>         0.1489
     28 H16         1.3272   -4.8084   -4.0233 H         1 <0>         0.4078
@<TRIPOS>BOND
     1    1    2 1
     2    1   13 1
     3    1   14 1
     4    1   15 1
     5    2    3 1
     6    2   16 1
     7    2   17 1
     8    3    4 1
     9    3    5 1
    10    3    6 1
    11    4   18 1
    12    4   19 1
    13    4   20 1
    14    5   21 1
    15    5   22 1
    16    5   23 1
    17    6   11 ar
    18    6    7 ar
    19    7    8 ar
    20    7   24 1
    21    8    9 ar
    22    8   25 1
    23    9   10 ar
    24    9   26 1
    25   10   11 ar
    26   10   12 1
    27   11   27 1
    28   12   28 1
@<TRIPOS>MOLECULE
ZINC03814201
   68    69     0     0     0
SMALL
USER_CHARGES

@<TRIPOS>ATOM
      1 C1         -0.0178    1.4648    0.0101 C.3       1 <0>        -0.0438
      2 N1          0.0021   -0.0041    0.0020 N.4       1 <0>        -0.2059
      3 C2          0.7126   -0.4907    1.1921 C.3       1 <0>        -0.0477
      4 C3         -1.3761   -0.5125    0.0124 C.3       1 <0>         0.0265
      5 C4         -2.0815   -0.0265    1.2523 C.2       1 <0>        -0.2340
      6 C5         -3.2108    0.6292    1.1489 C.2       1 <0>        -0.1033
      7 C6          0.6564   -0.4549   -1.1482 C.ar      1 <0>        -0.0459
      8 C7         -0.0149   -1.2492   -2.0589 C.ar      1 <0>        -0.0942
      9 C8          0.6321   -1.6950   -3.1962 C.ar      1 <0>        -0.0951
     10 C9          1.9503   -1.3462   -3.4231 C.ar      1 <0>        -0.0354
     11 C10         2.6214   -0.5512   -2.5128 C.ar      1 <0>        -0.0944
     12 C11         1.9731   -0.1018   -1.3776 C.ar      1 <0>        -0.0861
     13 C12         2.6560   -1.8330   -4.6624 C.3       1 <0>        -0.0878
     14 C13         2.4608   -0.8194   -5.7918 C.3       1 <0>        -0.1661
     15 C14         3.1665   -1.3062   -7.0312 C.2       1 <0>         0.3539
     16 O1          3.7639   -2.3556   -7.0131 O.2       1 <0>        -0.4384
     17 C15         3.1267   -0.4835   -8.2932 C.3       1 <0>        -0.1661
     18 C16         3.9152   -1.1978   -9.3927 C.3       1 <0>        -0.0878
     19 C17         3.8754   -0.3751  -10.6547 C.ar      1 <0>        -0.0353
     20 C18         2.8594   -0.5660  -11.5724 C.ar      1 <0>        -0.0945
     21 C19         2.8229    0.1886  -12.7301 C.ar      1 <0>        -0.0860
     22 C20         3.8021    1.1344  -12.9698 C.ar      1 <0>        -0.0460
     23 C21         4.8176    1.3259  -12.0516 C.ar      1 <0>        -0.0941
     24 C22         4.8517    0.5743  -10.8920 C.ar      1 <0>        -0.0952
     25 N2          3.7657    1.8970  -14.1409 N.4       1 <0>        -0.2058
     26 C23         3.8389    1.0069  -15.3072 C.3       1 <0>        -0.0478
     27 C24         2.5132    2.6632  -14.1876 C.3       1 <0>        -0.0437
     28 C25         4.9066    2.8221  -14.1585 C.3       1 <0>         0.0265
     29 C26         4.8674    3.6441  -15.4210 C.2       1 <0>        -0.2340
     30 C27         4.8788    4.9522  -15.3515 C.2       1 <0>        -0.1033
     31 H1          1.0047    1.8421    0.0024 H         1 <0>         0.1202
     32 H2         -0.5450    1.8259   -0.8730 H         1 <0>         0.1198
     33 H3         -0.5280    1.8163    0.9069 H         1 <0>         0.1271
     34 H4          0.2024   -0.1392    2.0889 H         1 <0>         0.1280
     35 H5          0.7273   -1.5806    1.1861 H         1 <0>         0.1228
     36 H6          1.7352   -0.1134    1.1844 H         1 <0>         0.1209
     37 H7         -1.9033   -0.1515   -0.8706 H         1 <0>         0.1298
     38 H8         -1.3613   -1.6024    0.0064 H         1 <0>         0.1353
     39 H9         -1.6559   -0.2188    2.2261 H         1 <0>         0.1359
     40 H10        -3.6364    0.8214    0.1751 H         1 <0>         0.1108
     41 H11        -3.7163    0.9775    2.0375 H         1 <0>         0.1253
     42 H12        -1.0448   -1.5217   -1.8816 H         1 <0>         0.1491
     43 H13         0.1078   -2.3161   -3.9073 H         1 <0>         0.1476
     44 H14         3.6514   -0.2790   -2.6899 H         1 <0>         0.1477
     45 H15         2.4962    0.5224   -0.6683 H         1 <0>         0.1443
     46 H16         3.7201   -1.9448   -4.4544 H         1 <0>         0.0920
     47 H17         2.2413   -2.7954   -4.9623 H         1 <0>         0.0920
     48 H18         1.3967   -0.7076   -5.9998 H         1 <0>         0.1033
     49 H19         2.8755    0.1430   -5.4919 H         1 <0>         0.1033
     50 H20         2.0921   -0.3569   -8.6119 H         1 <0>         0.1033
     51 H21         3.5708    0.4937   -8.1040 H         1 <0>         0.1033
     52 H22         4.9498   -1.3245   -9.0741 H         1 <0>         0.0919
     53 H23         3.4711   -2.1751   -9.5819 H         1 <0>         0.0920
     54 H24         2.0943   -1.3049  -11.3852 H         1 <0>         0.1476
     55 H25         2.0295    0.0390  -13.4474 H         1 <0>         0.1443
     56 H26         5.5829    2.0646  -12.2391 H         1 <0>         0.1492
     57 H27         5.6430    0.7264  -10.1729 H         1 <0>         0.1476
     58 H28         2.9923    0.3204  -15.2942 H         1 <0>         0.1210
     59 H29         3.8105    1.6014  -16.2204 H         1 <0>         0.1281
     60 H30         4.7683    0.4383  -15.2726 H         1 <0>         0.1228
     61 H31         2.4589    3.3237  -13.3222 H         1 <0>         0.1198
     62 H32         2.4848    3.2577  -15.1007 H         1 <0>         0.1271
     63 H33         1.6666    1.9768  -14.1745 H         1 <0>         0.1202
     64 H34         4.8523    3.4826  -13.2931 H         1 <0>         0.1299
     65 H35         5.8360    2.2536  -14.1239 H         1 <0>         0.1353
     66 H36         4.8298    3.1547  -16.3831 H         1 <0>         0.1360
     67 H37         4.8507    5.5413  -16.2563 H         1 <0>         0.1253
     68 H38         4.9163    5.4416  -14.3895 H         1 <0>         0.1109
@<TRIPOS>BOND
     1    1    2 1
     2    1   31 1
     3    1   32 1
     4    1   33 1
     5    2    3 1
     6    2    4 1
     7    2    7 1
     8    3   34 1
     9    3   35 1
    10    3   36 1
    11    4    5 1
    12    4   37 1
    13    4   38 1
    14    5    6 2
    15    5   39 1
    16    6   40 1
    17    6   41 1
    18    7   12 ar
    19    7    8 ar
    20    8    9 ar
    21    8   42 1
    22    9   10 ar
    23    9   43 1
    24   10   11 ar
    25   10   13 1
    26   11   12 ar
    27   11   44 1
    28   12   45 1
    29   13   14 1
    30   13   46 1
    31   13   47 1
    32   14   15 1
    33   14   48 1
    34   14   49 1
    35   15   16 2
    36   15   17 1
    37   17   18 1
    38   17   50 1
    39   17   51 1
    40   18   19 1
    41   18   52 1
    42   18   53 1
    43   19   24 ar
    44   19   20 ar
    45   20   21 ar
    46   20   54 1
    47   21   22 ar
    48   21   55 1
    49   22   23 ar
    50   22   25 1
    51   23   24 ar
    52   23   56 1
    53   24   57 1
    54   25   26 1
    55   25   27 1
    56   25   28 1
    57   26   58 1
    58   26   59 1
    59   26   60 1
    60   27   61 1
    61   27   62 1
    62   27   63 1
    63   28   29 1
    64   28   64 1
    65   28   65 1
    66   29   30 2
    67   29   66 1
    68   30   67 1
    69   30   68 1
@<TRIPOS>MOLECULE
ZINC00367097
   41    44     0     0     0
SMALL
USER_CHARGES

@<TRIPOS>ATOM
      1 C1         -0.0187    1.5258    0.0104 C.3       1 <0>        -0.1447
      2 C2          0.0021   -0.0041    0.0020 C.3       1 <0>        -0.0990
      3 C3          0.7074   -0.4901   -1.2379 C.2       1 <0>        -0.0987
      4 C4          1.9676   -0.7761   -1.1521 C.2       1 <0>        -0.1702
      5 C5          2.8028   -1.2650   -2.2969 C.3       1 <0>        -0.0486
      6 H1          3.4403   -2.0817   -1.9583 H         1 <0>         0.1105
      7 C6          3.6734   -0.1272   -2.8302 C.3       1 <0>        -0.1024
      8 C7          2.8126    0.9269   -3.4829 C.ar      1 <0>         0.2732
      9 C8          1.5157    0.6647   -3.8896 C.ar      1 <0>        -0.1983
     10 C9          0.7664    1.6713   -4.4909 C.ar      1 <0>         0.3632
     11 C10         1.3607    2.9413   -4.6635 C.ar      1 <0>        -0.1279
     12 C11         0.6660    4.0032   -5.2580 C.ar      1 <0>        -0.0521
     13 C12         1.2793    5.2124   -5.4032 C.ar      1 <0>        -0.0378
     14 C13         2.5893    5.4044   -4.9677 C.ar      1 <0>        -0.0246
     15 C14         3.2911    4.3930   -4.3870 C.ar      1 <0>        -0.1322
     16 C15         2.6908    3.1329   -4.2197 C.ar      1 <0>         0.1838
     17 N1          3.3516    2.1216   -3.6534 N.ar      1 <0>        -0.5137
     18 Cl1         0.4186    6.5280   -6.1395 Cl        1 <0>        -0.0210
     19 N2         -0.5334    1.4332   -4.9114 N.pl3     1 <0>        -0.7960
     20 C16         0.8583   -0.6771   -3.7068 C.3       1 <0>        -0.0385
     21 H2          0.2933   -0.9307   -4.6038 H         1 <0>         0.0966
     22 C17         1.9075   -1.7565   -3.4395 C.3       1 <0>        -0.1179
     23 C18        -0.0914   -0.6216   -2.5028 C.3       1 <0>        -0.0877
     24 H3          1.0039    1.9031    0.0027 H         1 <0>         0.0503
     25 H4         -0.5459    1.8868   -0.8726 H         1 <0>         0.0487
     26 H5         -0.5289    1.8773    0.9072 H         1 <0>         0.0636
     27 H6          0.5293   -0.3651    0.8851 H         1 <0>         0.0749
     28 H7         -1.0205   -0.3814    0.0098 H         1 <0>         0.0744
     29 H8          2.4485   -0.6541   -0.1928 H         1 <0>         0.1136
     30 H9          4.2284    0.3197   -2.0054 H         1 <0>         0.1127
     31 H10         4.3766   -0.5236   -3.5627 H         1 <0>         0.1248
     32 H11        -0.3492    3.8646   -5.5996 H         1 <0>         0.1554
     33 H12         3.0551    6.3707   -5.0934 H         1 <0>         0.1648
     34 H13         4.3054    4.5583   -4.0551 H         1 <0>         0.1657
     35 H14        -0.9303    0.5568   -4.7877 H         1 <0>         0.4267
     36 H15        -1.0456    2.1430   -5.3293 H         1 <0>         0.4220
     37 H16         2.5072   -1.9197   -4.3349 H         1 <0>         0.0814
     38 H17         1.4145   -2.6845   -3.1497 H         1 <0>         0.0924
     39 H18        -0.6860   -1.5343   -2.4632 H         1 <0>         0.0975
     40 H19        -0.7538    0.2381   -2.6047 H         1 <0>         0.0742
     41 H20         4.2629    2.2688   -3.3554 H         1 <0>         0.4409
@<TRIPOS>BOND
     1    1    2 1
     2    1   24 1
     3    1   25 1
     4    1   26 1
     5    2    3 1
     6    2   27 1
     7    2   28 1
     8    3   23 1
     9    3    4 2
    10    4    5 1
    11    4   29 1
    12    5    6 1
    13    5   22 1
    14    5    7 1
    15    7    8 1
    16    7   30 1
    17    7   31 1
    18    8   17 ar
    19    8    9 ar
    20    9   10 ar
    21    9   20 1
    22   10   11 ar
    23   10   19 1
    24   11   16 ar
    25   11   12 ar
    26   12   13 ar
    27   12   32 1
    28   13   14 ar
    29   13   18 1
    30   14   15 ar
    31   14   33 1
    32   15   16 ar
    33   15   34 1
    34   16   17 ar
    35   17   41 1
    36   19   35 1
    37   19   36 1
    38   20   21 1
    39   20   22 1
    40   20   23 1
    41   22   37 1
    42   22   38 1
    43   23   39 1
    44   23   40 1
@<TRIPOS>MOLECULE
ZINC00367100
   41    44     0     0     0
SMALL
USER_CHARGES

@<TRIPOS>ATOM
      1 C1         -0.0187    1.5258    0.0104 C.3       1 <0>        -0.1499
      2 C2          0.0021   -0.0041    0.0020 C.3       1 <0>        -0.0956
      3 C3          0.7074   -0.4901   -1.2379 C.2       1 <0>        -0.0988
      4 C4          1.9676   -0.7761   -1.1521 C.2       1 <0>        -0.1703
      5 C5          2.8005   -1.2744   -2.2945 C.3       1 <0>        -0.0487
      6 H1          3.7626   -0.7621   -2.2928 H         1 <0>         0.1104
      7 C6          3.0254   -2.7802   -2.1577 C.3       1 <0>        -0.1022
      8 C7          1.7260   -3.5222   -2.3552 C.ar      1 <0>         0.2732
      9 C8          0.6357   -2.9374   -2.9761 C.ar      1 <0>        -0.1994
     10 C9         -0.5380   -3.6674   -3.1367 C.ar      1 <0>         0.3632
     11 C10        -0.5777   -4.9936   -2.6512 C.ar      1 <0>        -0.1279
     12 C11        -1.7257   -5.7876   -2.7754 C.ar      1 <0>        -0.0520
     13 C12        -1.7189   -7.0625   -2.2914 C.ar      1 <0>        -0.0379
     14 C13        -0.5835   -7.5849   -1.6745 C.ar      1 <0>        -0.0247
     15 C14         0.5470   -6.8393   -1.5382 C.ar      1 <0>        -0.1321
     16 C15         0.5769   -5.5211   -2.0257 C.ar      1 <0>         0.1838
     17 N1          1.6697   -4.7647   -1.9079 N.ar      1 <0>        -0.5137
     18 Cl1        -3.1411   -8.0460   -2.4450 Cl        1 <0>        -0.0209
     19 N2         -1.6431   -3.1061   -3.7584 N.pl3     1 <0>        -0.7960
     20 C16         0.6514   -1.5233   -3.4918 C.3       1 <0>        -0.0379
     21 H2          0.1574   -1.4846   -4.4626 H         1 <0>         0.0968
     22 C17         2.0880   -1.0175   -3.6268 C.3       1 <0>        -0.1176
     23 C18        -0.0914   -0.6216   -2.5028 C.3       1 <0>        -0.0878
     24 H3          1.0039    1.9031    0.0027 H         1 <0>         0.0584
     25 H4         -0.5459    1.8868   -0.8726 H         1 <0>         0.0565
     26 H5         -0.5289    1.8773    0.9072 H         1 <0>         0.0614
     27 H6          0.5293   -0.3651    0.8851 H         1 <0>         0.0705
     28 H7         -1.0205   -0.3814    0.0098 H         1 <0>         0.0676
     29 H8          2.4502   -0.6468   -0.1947 H         1 <0>         0.1137
     30 H9          3.7455   -3.1073   -2.9078 H         1 <0>         0.1248
     31 H10         3.4181   -2.9978   -1.1645 H         1 <0>         0.1129
     32 H11        -2.6109   -5.3920   -3.2512 H         1 <0>         0.1555
     33 H12        -0.6011   -8.5972   -1.2985 H         1 <0>         0.1648
     34 H13         1.4181   -7.2589   -1.0571 H         1 <0>         0.1658
     35 H14        -1.6036   -2.1944   -4.0873 H         1 <0>         0.4267
     36 H15        -2.4556   -3.6252   -3.8645 H         1 <0>         0.4220
     37 H16         2.0826    0.0509   -3.8430 H         1 <0>         0.0922
     38 H17         2.5963   -1.5548   -4.4274 H         1 <0>         0.0816
     39 H18        -1.0647   -1.0557   -2.2738 H         1 <0>         0.0742
     40 H19        -0.2300    0.3634   -2.9485 H         1 <0>         0.0965
     41 H20         2.4532   -5.1412   -1.4776 H         1 <0>         0.4409
@<TRIPOS>BOND
     1    1    2 1
     2    1   24 1
     3    1   25 1
     4    1   26 1
     5    2    3 1
     6    2   27 1
     7    2   28 1
     8    3   23 1
     9    3    4 2
    10    4    5 1
    11    4   29 1
    12    5    6 1
    13    5   22 1
    14    5    7 1
    15    7    8 1
    16    7   30 1
    17    7   31 1
    18    8   17 ar
    19    8    9 ar
    20    9   10 ar
    21    9   20 1
    22   10   11 ar
    23   10   19 1
    24   11   16 ar
    25   11   12 ar
    26   12   13 ar
    27   12   32 1
    28   13   14 ar
    29   13   18 1
    30   14   15 ar
    31   14   33 1
    32   15   16 ar
    33   15   34 1
    34   16   17 ar
    35   17   41 1
    36   19   35 1
    37   19   36 1
    38   20   21 1
    39   20   22 1
    40   20   23 1
    41   22   37 1
    42   22   38 1
    43   23   39 1
    44   23   40 1
@<TRIPOS>MOLECULE
ZINC03995599
   78    79     0     0     0
SMALL
USER_CHARGES

@<TRIPOS>ATOM
      1 C1         -4.6735    1.1423    4.1239 C.3       1 <0>        -0.1945
      2 C2         -4.8227   -0.3214    3.7040 C.3       1 <0>        -0.0252
      3 N1         -3.8668   -0.6226    2.6301 N.4       1 <0>        -0.2565
      4 C3         -4.0100   -2.0280    2.2269 C.3       1 <0>        -0.0237
      5 C4         -3.1315   -2.2999    1.0042 C.3       1 <0>        -0.1952
      6 C5         -4.1353    0.2473    1.4772 C.3       1 <0>        -0.0322
      7 C6         -5.5599    0.0034    0.9752 C.3       1 <0>         0.0949
      8 N2         -5.8276    0.8710   -0.1745 N.am      1 <0>        -0.7000
      9 C7         -7.0281    0.8284   -0.7858 C.2       1 <0>         0.5181
     10 O1         -7.8871    0.0714   -0.3838 O.2       1 <0>        -0.4978
     11 C8         -7.3013    1.7134   -1.9586 C.2       1 <0>         0.5180
     12 O2         -6.4423    2.4705   -2.3606 O.2       1 <0>        -0.4978
     13 N3         -8.5017    1.6708   -2.5699 N.am      1 <0>        -0.6999
     14 C9         -8.7695    2.5384   -3.7196 C.3       1 <0>         0.0949
     15 C10       -10.1940    2.2945   -4.2217 C.3       1 <0>        -0.0322
     16 N4        -10.4626    3.1645   -5.3745 N.4       1 <0>        -0.2565
     17 C11       -10.3193    4.5698   -4.9714 C.3       1 <0>        -0.0252
     18 C12       -11.3150    4.8835   -3.8528 C.3       1 <0>        -0.1945
     19 C13        -9.5066    2.8632   -6.4484 C.3       1 <0>        -0.0238
     20 C14        -9.5426    1.3653   -6.7580 C.3       1 <0>        -0.1952
     21 C15       -11.8303    2.9303   -5.8566 C.3       1 <0>         0.0329
     22 C16       -12.1630    3.9335   -6.9308 C.ar      1 <0>        -0.1447
     23 C17       -12.7133    5.1548   -6.5897 C.ar      1 <0>        -0.0924
     24 C18       -13.0184    6.0750   -7.5749 C.ar      1 <0>        -0.1044
     25 C19       -12.7734    5.7746   -8.9021 C.ar      1 <0>        -0.0701
     26 C20       -12.2232    4.5540   -9.2443 C.ar      1 <0>        -0.1000
     27 C21       -11.9123    3.6346   -8.2580 C.ar      1 <0>        -0.0263
     28 Cl1       -11.2150    2.1037   -8.6866 Cl        1 <0>        -0.0444
     29 C22        -2.4990   -0.3885    3.1121 C.3       1 <0>         0.0329
     30 C23        -2.2785   -1.1562    4.3900 C.ar      1 <0>        -0.1448
     31 C24        -2.5856   -0.5763    5.6067 C.ar      1 <0>        -0.0925
     32 C25        -2.3834   -1.2803    6.7788 C.ar      1 <0>        -0.1044
     33 C26        -1.8738   -2.5649    6.7353 C.ar      1 <0>        -0.0701
     34 C27        -1.5664   -3.1457    5.5196 C.ar      1 <0>        -0.1001
     35 C28        -1.7739   -2.4435    4.3454 C.ar      1 <0>        -0.0263
     36 Cl2        -1.3941   -3.1748    2.8175 Cl        1 <0>        -0.0444
     37 H1         -3.6587    1.3160    4.4816 H         1 <0>         0.0860
     38 H2         -4.8728    1.7878    3.2685 H         1 <0>         0.0810
     39 H3         -5.3829    1.3658    4.9208 H         1 <0>         0.1106
     40 H4         -4.6235   -0.9669    4.5594 H         1 <0>         0.1355
     41 H5         -5.8376   -0.4951    3.3463 H         1 <0>         0.1313
     42 H6         -3.7005   -2.6748    3.0478 H         1 <0>         0.1331
     43 H7         -5.0518   -2.2301    1.9780 H         1 <0>         0.1308
     44 H8         -3.5207   -1.7496    0.1475 H         1 <0>         0.0783
     45 H9         -2.1113   -1.9764    1.2107 H         1 <0>         0.0891
     46 H10        -3.1366   -3.3672    0.7833 H         1 <0>         0.1070
     47 H11        -4.0290    1.2901    1.7764 H         1 <0>         0.1420
     48 H12        -3.4260    0.0238    0.6804 H         1 <0>         0.1425
     49 H13        -5.6662   -1.0393    0.6760 H         1 <0>         0.0995
     50 H14        -6.2692    0.2270    1.7720 H         1 <0>         0.0994
     51 H15        -5.1410    1.4761   -0.4959 H         1 <0>         0.4218
     52 H16        -9.1883    1.0657   -2.2486 H         1 <0>         0.4218
     53 H17        -8.6632    3.5811   -3.4205 H         1 <0>         0.0994
     54 H18        -8.0602    2.3149   -4.5165 H         1 <0>         0.0995
     55 H19       -10.3003    1.2518   -4.5208 H         1 <0>         0.1425
     56 H20       -10.9034    2.5180   -3.4248 H         1 <0>         0.1420
     57 H21        -9.3044    4.7435   -4.6137 H         1 <0>         0.1313
     58 H22       -10.5186    5.2153   -5.8268 H         1 <0>         0.1355
     59 H23       -11.2087    5.9263   -3.5537 H         1 <0>         0.1106
     60 H24       -12.3299    4.7098   -4.2105 H         1 <0>         0.0859
     61 H25       -11.1157    4.2380   -2.9974 H         1 <0>         0.0810
     62 H26        -9.7756    3.4256   -7.3426 H         1 <0>         0.1331
     63 H27        -8.5026    3.1445   -6.1306 H         1 <0>         0.1308
     64 H28        -8.9320    1.1613   -7.6375 H         1 <0>         0.1070
     65 H29        -9.1509    0.8088   -5.9066 H         1 <0>         0.0782
     66 H30       -10.5708    1.0587   -6.9504 H         1 <0>         0.0891
     67 H31       -11.9040    1.9225   -6.2652 H         1 <0>         0.1411
     68 H32       -12.5309    3.0388   -5.0286 H         1 <0>         0.1431
     69 H33       -12.9053    5.3899   -5.5532 H         1 <0>         0.1463
     70 H34       -13.4488    7.0290   -7.3079 H         1 <0>         0.1458
     71 H35       -13.0124    6.4939   -9.6714 H         1 <0>         0.1486
     72 H36       -12.0322    4.3193  -10.2810 H         1 <0>         0.1491
     73 H37        -1.7860   -0.7240    2.3591 H         1 <0>         0.1411
     74 H38        -2.3567    0.6760    3.2986 H         1 <0>         0.1431
     75 H39        -2.9834    0.4272    5.6414 H         1 <0>         0.1464
     76 H40        -2.6232   -0.8267    7.7292 H         1 <0>         0.1457
     77 H41        -1.7157   -3.1144    7.6515 H         1 <0>         0.1486
     78 H42        -1.1680   -4.1490    5.4857 H         1 <0>         0.1491
@<TRIPOS>BOND
     1    1    2 1
     2    1   37 1
     3    1   38 1
     4    1   39 1
     5    2    3 1
     6    2   40 1
     7    2   41 1
     8    3    4 1
     9    3    6 1
    10    3   29 1
    11    4    5 1
    12    4   42 1
    13    4   43 1
    14    5   44 1
    15    5   45 1
    16    5   46 1
    17    6    7 1
    18    6   47 1
    19    6   48 1
    20    7    8 1
    21    7   49 1
    22    7   50 1
    23    8    9 am
    24    8   51 1
    25    9   10 2
    26    9   11 1
    27   11   12 2
    28   11   13 am
    29   13   14 1
    30   13   52 1
    31   14   15 1
    32   14   53 1
    33   14   54 1
    34   15   16 1
    35   15   55 1
    36   15   56 1
    37   16   17 1
    38   16   19 1
    39   16   21 1
    40   17   18 1
    41   17   57 1
    42   17   58 1
    43   18   59 1
    44   18   60 1
    45   18   61 1
    46   19   20 1
    47   19   62 1
    48   19   63 1
    49   20   64 1
    50   20   65 1
    51   20   66 1
    52   21   22 1
    53   21   67 1
    54   21   68 1
    55   22   27 ar
    56   22   23 ar
    57   23   24 ar
    58   23   69 1
    59   24   25 ar
    60   24   70 1
    61   25   26 ar
    62   25   71 1
    63   26   27 ar
    64   26   72 1
    65   27   28 1
    66   29   30 1
    67   29   73 1
    68   29   74 1
    69   30   35 ar
    70   30   31 ar
    71   31   32 ar
    72   31   75 1
    73   32   33 ar
    74   32   76 1
    75   33   34 ar
    76   33   77 1
    77   34   35 ar
    78   34   78 1
    79   35   36 1
@<TRIPOS>MOLECULE
ZINC00016827
   30    32     0     0     0
SMALL
USER_CHARGES
1,2,3,4-tetrahydroacridin-9-amine
@<TRIPOS>ATOM
      1 C1         -2.2590   -4.1734    0.7266 C.ar      1 <0>        -0.1151
      2 C2         -1.1015   -4.8453    0.3414 C.ar      1 <0>        -0.0282
      3 C3          0.0181   -4.1626   -0.0240 C.ar      1 <0>        -0.1547
      4 C4          0.0125   -2.7569   -0.0146 C.ar      1 <0>         0.1855
      5 C5         -1.1660   -2.0778    0.3770 C.ar      1 <0>        -0.1377
      6 C6         -2.3011   -2.8116    0.7474 C.ar      1 <0>        -0.0565
      7 C7         -1.1623   -0.6653    0.3817 C.ar      1 <0>         0.3675
      8 C8          0.0021   -0.0041    0.0020 C.ar      1 <0>        -0.2105
      9 C9          1.1175   -0.7361   -0.3646 C.ar      1 <0>         0.2712
     10 C10         2.4120   -0.0754   -0.7701 C.3       1 <0>        -0.1168
     11 C11         2.1762    1.3865   -1.1417 C.3       1 <0>        -0.1213
     12 C12         1.4039    2.0583   -0.0003 C.3       1 <0>        -0.1267
     13 C13        -0.0183    1.5015    0.0103 C.3       1 <0>        -0.0727
     14 N1         -2.2920    0.0458    0.7563 N.pl3     1 <0>        -0.7940
     15 H1         -3.1340   -4.7385    1.0119 H         1 <0>         0.1511
     16 H2         -1.0919   -5.9252    0.3327 H         1 <0>         0.1529
     17 H3          0.9072   -4.6991   -0.3207 H         1 <0>         0.1539
     18 H4         -3.2041   -2.3007    1.0473 H         1 <0>         0.1465
     19 H5          3.1167   -0.1260    0.0600 H         1 <0>         0.1184
     20 H6          2.8304   -0.6013   -1.6283 H         1 <0>         0.1086
     21 H7          3.1338    1.8881   -1.2812 H         1 <0>         0.0939
     22 H8          1.5929    1.4414   -2.0609 H         1 <0>         0.0797
     23 H9          1.3752    3.1361   -0.1607 H         1 <0>         0.0897
     24 H10         1.8906    1.8408    0.9505 H         1 <0>         0.0760
     25 H11        -0.5506    1.8586   -0.8713 H         1 <0>         0.0921
     26 H12        -0.5337    1.8490    0.9057 H         1 <0>         0.0852
     27 H13        -2.2768    1.0157    0.7558 H         1 <0>         0.4265
     28 H14        -3.0975   -0.4265    1.0190 H         1 <0>         0.4221
     29 N2          1.1637   -2.1007   -0.3898 N.ar      1 <0>        -0.5514
     30 H15         2.0097   -2.6092   -0.6727 H         1 <0>         0.4649
@<TRIPOS>BOND
     1    1    6 ar
     2    1    2 ar
     3    1   15 1
     4    2    3 ar
     5    2   16 1
     6    3    4 ar
     7    3   17 1
     8    4    5 ar
     9    4   29 ar
    10    5    6 ar
    11    5    7 ar
    12    6   18 1
    13    7    8 ar
    14    7   14 1
    15    8   13 1
    16    8    9 ar
    17    9   10 1
    18    9   29 ar
    19   10   11 1
    20   10   19 1
    21   10   20 1
    22   11   12 1
    23   11   21 1
    24   11   22 1
    25   12   13 1
    26   12   23 1
    27   12   24 1
    28   13   25 1
    29   13   26 1
    30   14   27 1
    31   14   28 1
    32   29   30 1
@<TRIPOS>MOLECULE
ZINC00597013
   58    61     0     0     0
SMALL
USER_CHARGES

@<TRIPOS>ATOM
      1 C1         -0.0173    1.4248    0.0099 C.3       1 <0>         0.0208
      2 O1          0.0021   -0.0041    0.0020 O.3       1 <0>        -0.2950
      3 C2          0.6051   -0.6064   -1.0545 C.ar      1 <0>         0.1532
      4 C3          1.1721    0.1632   -2.0609 C.ar      1 <0>        -0.1821
      5 C4          1.7866   -0.4410   -3.1387 C.ar      1 <0>        -0.0371
      6 C5          1.8416   -1.8340   -3.2219 C.ar      1 <0>        -0.2044
      7 C6          1.2663   -2.6106   -2.2012 C.ar      1 <0>        -0.1044
      8 C7          0.6597   -1.9984   -1.1254 C.ar      1 <0>         0.0877
      9 O2          0.1088   -2.7516   -0.1361 O.3       1 <0>        -0.3011
     10 C8          0.2013   -4.1710   -0.2735 C.3       1 <0>         0.0231
     11 C9          2.5389   -2.2531   -4.4456 C.2       1 <0>         0.4182
     12 O3          2.7420   -3.3976   -4.7923 O.2       1 <0>        -0.4477
     13 C10         2.9584   -1.0129   -5.1966 C.3       1 <0>        -0.1391
     14 H1          4.0434   -0.9806   -5.2959 H         1 <0>         0.1138
     15 C11         2.4673    0.1645   -4.3432 C.3       1 <0>        -0.0780
     16 C12         2.2994   -0.9808   -6.5770 C.3       1 <0>        -0.0982
     17 C13         2.8476   -2.1260   -7.4307 C.3       1 <0>        -0.1155
     18 C14         4.3380   -1.8972   -7.6982 C.3       1 <0>        -0.1415
     19 C15         4.8612   -3.0029   -8.6175 C.3       1 <0>        -0.0066
     20 N1          4.1252   -2.9777   -9.8872 N.4       1 <0>        -0.3801
     21 C16         2.7066   -3.2675   -9.6464 C.3       1 <0>        -0.0118
     22 C17         2.1004   -2.1720   -8.7666 C.3       1 <0>        -0.1383
     23 C18         4.6828   -3.9891  -10.7949 C.3       1 <0>         0.0438
     24 C19         4.0113   -3.8820  -12.1398 C.ar      1 <0>        -0.1605
     25 C20         2.8641   -4.6083  -12.3993 C.ar      1 <0>        -0.0978
     26 C21         2.2481   -4.5101  -13.6329 C.ar      1 <0>        -0.1135
     27 C22         2.7790   -3.6851  -14.6068 C.ar      1 <0>        -0.0847
     28 C23         3.9256   -2.9580  -14.3470 C.ar      1 <0>        -0.1130
     29 C24         4.5392   -3.0530  -13.1119 C.ar      1 <0>        -0.0942
     30 H2          1.0053    1.8021    0.0021 H         1 <0>         0.0608
     31 H3         -0.5445    1.7859   -0.8732 H         1 <0>         0.0604
     32 H4         -0.5275    1.7763    0.9067 H         1 <0>         0.1088
     33 H5          1.1317    1.2407   -2.0004 H         1 <0>         0.1449
     34 H6          1.3038   -3.6885   -2.2575 H         1 <0>         0.1426
     35 H7         -0.2763   -4.6506    0.5809 H         1 <0>         0.1075
     36 H8         -0.2996   -4.4806   -1.1908 H         1 <0>         0.0566
     37 H9          1.2502   -4.4644   -0.3155 H         1 <0>         0.0572
     38 H10         1.7583    0.7678   -4.9101 H         1 <0>         0.0961
     39 H11         3.3123    0.7764   -4.0277 H         1 <0>         0.0964
     40 H12         1.2208   -1.0934   -6.4674 H         1 <0>         0.0800
     41 H13         2.5179   -0.0293   -7.0618 H         1 <0>         0.0849
     42 H14         2.7114   -3.0706   -6.9042 H         1 <0>         0.1081
     43 H15         4.4772   -0.9286   -8.1782 H         1 <0>         0.0886
     44 H16         4.8846   -1.9188   -6.7553 H         1 <0>         0.1118
     45 H17         5.9222   -2.8432   -8.8098 H         1 <0>         0.1305
     46 H18         4.7218   -3.9711   -8.1364 H         1 <0>         0.1303
     47 H19         2.1768   -3.3031  -10.5983 H         1 <0>         0.1310
     48 H20         2.6131   -4.2300   -9.1434 H         1 <0>         0.1282
     49 H21         1.0476   -2.3899   -8.5875 H         1 <0>         0.1106
     50 H22         2.1932   -1.2090   -9.2688 H         1 <0>         0.0874
     51 H23         5.7540   -3.8234  -10.9095 H         1 <0>         0.1365
     52 H24         4.5111   -4.9828  -10.3812 H         1 <0>         0.1348
     53 H25         2.4494   -5.2529  -11.6384 H         1 <0>         0.1308
     54 H26         1.3522   -5.0781  -13.8359 H         1 <0>         0.1360
     55 H27         2.2981   -3.6088  -15.5708 H         1 <0>         0.1358
     56 H28         4.3405   -2.3138  -15.1080 H         1 <0>         0.1360
     57 H29         5.4329   -2.4822  -12.9076 H         1 <0>         0.1309
     58 H30         4.2142   -2.0651  -10.3083 H         1 <0>         0.4207
@<TRIPOS>BOND
     1    1    2 1
     2    1   30 1
     3    1   31 1
     4    1   32 1
     5    2    3 1
     6    3    8 ar
     7    3    4 ar
     8    4    5 ar
     9    4   33 1
    10    5   15 1
    11    5    6 ar
    12    6    7 ar
    13    6   11 1
    14    7    8 ar
    15    7   34 1
    16    8    9 1
    17    9   10 1
    18   10   35 1
    19   10   36 1
    20   10   37 1
    21   11   12 2
    22   11   13 1
    23   13   14 1
    24   13   15 1
    25   13   16 1
    26   15   38 1
    27   15   39 1
    28   16   17 1
    29   16   40 1
    30   16   41 1
    31   17   22 1
    32   17   18 1
    33   17   42 1
    34   18   19 1
    35   18   43 1
    36   18   44 1
    37   19   20 1
    38   19   45 1
    39   19   46 1
    40   20   21 1
    41   20   23 1
    42   20   58 1
    43   21   22 1
    44   21   47 1
    45   21   48 1
    46   22   49 1
    47   22   50 1
    48   23   24 1
    49   23   51 1
    50   23   52 1
    51   24   29 ar
    52   24   25 ar
    53   25   26 ar
    54   25   53 1
    55   26   27 ar
    56   26   54 1
    57   27   28 ar
    58   27   55 1
    59   28   29 ar
    60   28   56 1
    61   29   57 1
@<TRIPOS>MOLECULE
ZINC00897251
   58    61     0     0     0
SMALL
USER_CHARGES

@<TRIPOS>ATOM
      1 C1         -0.4000    2.7928   -9.4111 C.3       1 <0>         0.0217
      2 O1         -0.3921    3.3043   -8.0768 O.3       1 <0>        -0.2952
      3 C2          0.2864    2.5865   -7.1456 C.ar      1 <0>         0.1496
      4 C3          0.9365    1.4157   -7.5106 C.ar      1 <0>        -0.1810
      5 C4          1.6280    0.6797   -6.5702 C.ar      1 <0>        -0.0432
      6 C5          1.6776    1.1109   -5.2428 C.ar      1 <0>        -0.1980
      7 C6          1.0179    2.2969   -4.8763 C.ar      1 <0>        -0.1053
      8 C7          0.3345    3.0288   -5.8236 C.ar      1 <0>         0.0903
      9 O2         -0.2981    4.1789   -5.4680 O.3       1 <0>        -0.3013
     10 C8         -0.2072    4.5722   -4.0972 C.3       1 <0>         0.0223
     11 C9          2.4645    0.1785   -4.4238 C.2       1 <0>         0.4126
     12 O3          2.6844    0.2862   -3.2359 O.2       1 <0>        -0.4369
     13 C10         2.9517   -0.9365   -5.3169 C.3       1 <0>        -0.1385
     14 H1          2.5591   -1.8938   -4.9740 H         1 <0>         0.1136
     15 C11         2.4055   -0.6071   -6.7129 C.3       1 <0>        -0.0752
     16 C12         4.4812   -0.9687   -5.3380 C.3       1 <0>        -0.1018
     17 C13         4.9548   -2.1846   -6.1369 C.3       1 <0>        -0.0999
     18 C14         4.5565   -3.4674   -5.4014 C.3       1 <0>        -0.1473
     19 C15         5.1018   -4.6765   -6.1643 C.3       1 <0>        -0.0062
     20 N1          6.5650   -4.5904   -6.2436 N.4       1 <0>        -0.3817
     21 C16         6.9530   -3.4000   -7.0098 C.3       1 <0>        -0.0117
     22 C17         6.4789   -2.1417   -6.2794 C.3       1 <0>        -0.1414
     23 C18         7.0894   -5.7910   -6.9081 C.3       1 <0>         0.0445
     24 C19         8.5959   -5.7625   -6.8811 C.ar      1 <0>        -0.1617
     25 C20         9.2944   -5.1622   -7.9119 C.ar      1 <0>        -0.0980
     26 C21        10.6763   -5.1361   -7.8871 C.ar      1 <0>        -0.1136
     27 C22        11.3596   -5.7098   -6.8313 C.ar      1 <0>        -0.0841
     28 C23        10.6611   -6.3093   -5.8000 C.ar      1 <0>        -0.1126
     29 C24         9.2791   -6.3317   -5.8227 C.ar      1 <0>        -0.0940
     30 H2          0.6233    2.7264   -9.7808 H         1 <0>         0.0592
     31 H3         -0.8537    1.8018   -9.4176 H         1 <0>         0.0598
     32 H4         -0.9755    3.4601  -10.0527 H         1 <0>         0.1082
     33 H5          0.9006    1.0787   -8.5360 H         1 <0>         0.1432
     34 H6          1.0506    2.6377   -3.8520 H         1 <0>         0.1438
     35 H7         -0.7539    5.5035   -3.9494 H         1 <0>         0.1078
     36 H8         -0.6376    3.7942   -3.4667 H         1 <0>         0.0580
     37 H9          0.8393    4.7188   -3.8299 H         1 <0>         0.0577
     38 H10         1.7480   -1.4060   -7.0558 H         1 <0>         0.0927
     39 H11         3.2285   -0.4716   -7.4146 H         1 <0>         0.0925
     40 H12         4.8574   -0.0583   -5.8047 H         1 <0>         0.0823
     41 H13         4.8574   -1.0358   -4.3172 H         1 <0>         0.0822
     42 H14         4.4958   -2.1724   -7.1255 H         1 <0>         0.0950
     43 H15         4.9736   -3.4540   -4.3944 H         1 <0>         0.0914
     44 H16         3.4699   -3.5323   -5.3452 H         1 <0>         0.1144
     45 H17         4.8199   -5.5916   -5.6435 H         1 <0>         0.1311
     46 H18         4.6840   -4.6890   -7.1710 H         1 <0>         0.1295
     47 H19         8.0378   -3.3726   -7.1131 H         1 <0>         0.1315
     48 H20         6.4957   -3.4397   -7.9984 H         1 <0>         0.1282
     49 H21         6.7664   -1.2591   -6.8507 H         1 <0>         0.1129
     50 H22         6.9359   -2.1009   -5.2906 H         1 <0>         0.0893
     51 H23         6.7334   -6.6795   -6.3867 H         1 <0>         0.1365
     52 H24         6.7449   -5.8138   -7.9420 H         1 <0>         0.1348
     53 H25         8.7606   -4.7139   -8.7368 H         1 <0>         0.1306
     54 H26        11.2221   -4.6677   -8.6928 H         1 <0>         0.1361
     55 H27        12.4393   -5.6901   -6.8123 H         1 <0>         0.1360
     56 H28        11.1949   -6.7579   -4.9753 H         1 <0>         0.1363
     57 H29         8.7332   -6.7968   -5.0151 H         1 <0>         0.1311
     58 H30         6.9482   -4.5293   -5.3123 H         1 <0>         0.4220
@<TRIPOS>BOND
     1    1    2 1
     2    1   30 1
     3    1   31 1
     4    1   32 1
     5    2    3 1
     6    3    8 ar
     7    3    4 ar
     8    4    5 ar
     9    4   33 1
    10    5   15 1
    11    5    6 ar
    12    6    7 ar
    13    6   11 1
    14    7    8 ar
    15    7   34 1
    16    8    9 1
    17    9   10 1
    18   10   35 1
    19   10   36 1
    20   10   37 1
    21   11   12 2
    22   11   13 1
    23   13   14 1
    24   13   15 1
    25   13   16 1
    26   15   38 1
    27   15   39 1
    28   16   17 1
    29   16   40 1
    30   16   41 1
    31   17   22 1
    32   17   18 1
    33   17   42 1
    34   18   19 1
    35   18   43 1
    36   18   44 1
    37   19   20 1
    38   19   45 1
    39   19   46 1
    40   20   21 1
    41   20   23 1
    42   20   58 1
    43   21   22 1
    44   21   47 1
    45   21   48 1
    46   22   49 1
    47   22   50 1
    48   23   24 1
    49   23   51 1
    50   23   52 1
    51   24   29 ar
    52   24   25 ar
    53   25   26 ar
    54   25   53 1
    55   26   27 ar
    56   26   54 1
    57   27   28 ar
    58   27   55 1
    59   28   29 ar
    60   28   56 1
    61   29   57 1
@<TRIPOS>MOLECULE
ZINC03872828
   40    43     0     0     0
SMALL
USER_CHARGES
methylBLAHone
@<TRIPOS>ATOM
      1 C1          4.4843    1.0291    2.2134 C.3       1 <0>        -0.1276
      2 C2          3.4250    1.6835    1.3644 C.2       1 <0>        -0.1021
      3 C3          3.6986    2.8233    0.8148 C.2       1 <0>        -0.1581
      4 C4          2.7512    3.5843   -0.0603 C.3       1 <0>        -0.0359
      5 H1          2.7954    4.6440    0.1912 H         1 <0>         0.1172
      6 C5          3.1301    3.3908   -1.5292 C.3       1 <0>        -0.1068
      7 C6          2.8622    1.9710   -1.9600 C.2       1 <0>         0.2384
      8 C7          2.0539    1.1408   -1.2702 C.2       1 <0>        -0.2400
      9 C8          1.8414   -0.1718   -1.7360 C.2       1 <0>        -0.0463
     10 C9          2.4535   -0.5959   -2.8748 C.2       1 <0>        -0.2000
     11 C10         3.2940    0.2925   -3.5674 C.2       1 <0>         0.5178
     12 O1          3.8550   -0.0667   -4.5902 O.2       1 <0>        -0.5151
     13 N1          3.4773    1.5380   -3.1002 N.am      1 <0>        -0.6106
     14 H2          4.0781    2.1631   -3.5986 H         1 <0>         0.4303
     15 C11         1.3516    1.5495   -0.0025 C.3       1 <0>         0.1448
     16 C12         2.1107    0.9788    1.2021 C.3       1 <0>        -0.0967
     17 C13         1.3141    3.0735    0.1231 C.3       1 <0>        -0.0906
     18 H3          0.9171    3.3620    1.0964 H         1 <0>         0.1116
     19 C14         0.4527    3.6657   -0.9973 C.3       1 <0>        -0.1413
     20 C15        -0.9446    3.0448   -0.9569 C.3       1 <0>        -0.1419
     21 C16        -0.8160    1.5258   -1.1030 C.3       1 <0>        -0.0043
     22 H4          5.3739    1.6587    2.2336 H         1 <0>         0.0719
     23 H5          4.1079    0.8993    3.2280 H         1 <0>         0.0733
     24 H6          4.7374    0.0560    1.7925 H         1 <0>         0.0711
     25 H7          4.6724    3.2524    0.9989 H         1 <0>         0.1241
     26 H8          2.5427    4.0713   -2.1456 H         1 <0>         0.1163
     27 H9          4.1890    3.6135   -1.6606 H         1 <0>         0.1079
     28 H10         1.1933   -0.8409   -1.1894 H         1 <0>         0.1292
     29 H11         2.2957   -1.5996   -3.2410 H         1 <0>         0.1622
     30 H12         1.5132    1.1155    2.1035 H         1 <0>         0.0999
     31 H13         2.2881   -0.0853    1.0463 H         1 <0>         0.0996
     32 H14         0.3742    4.7445   -0.8627 H         1 <0>         0.0992
     33 H15         0.9158    3.4540   -1.9611 H         1 <0>         0.0844
     34 H16        -1.4217    3.2810   -0.0057 H         1 <0>         0.0903
     35 H17        -1.5448    3.4426   -1.7751 H         1 <0>         0.1137
     36 H18        -0.3278    1.2905   -2.0487 H         1 <0>         0.1292
     37 H19        -1.8068    1.0721   -1.0799 H         1 <0>         0.1346
     38 N2         -0.0173    0.9940    0.0190 N.4       1 <0>        -0.5123
     39 H20        -0.4700    1.2482    0.9048 H         1 <0>         0.4338
     40 H21         0.0331   -0.0286   -0.0585 H         1 <0>         0.4288
@<TRIPOS>BOND
     1    1    2 1
     2    1   22 1
     3    1   23 1
     4    1   24 1
     5    2   16 1
     6    2    3 2
     7    3    4 1
     8    3   25 1
     9    4    5 1
    10    4   17 1
    11    4    6 1
    12    6    7 1
    13    6   26 1
    14    6   27 1
    15    7   13 1
    16    7    8 2
    17    8    9 1
    18    8   15 1
    19    9   10 2
    20    9   28 1
    21   10   11 1
    22   10   29 1
    23   11   12 2
    24   11   13 am
    25   13   14 1
    26   15   16 1
    27   15   17 1
    28   15   38 1
    29   16   30 1
    30   16   31 1
    31   17   18 1
    32   17   19 1
    33   19   20 1
    34   19   32 1
    35   19   33 1
    36   20   21 1
    37   20   34 1
    38   20   35 1
    39   21   36 1
    40   21   37 1
    41   21   38 1
    42   38   39 1
    43   38   40 1
@<TRIPOS>MOLECULE
ZINC00538159
   50    53     0     0     0
SMALL
USER_CHARGES

@<TRIPOS>ATOM
      1 C1          3.4448   -4.9754    0.0380 C.ar      1 <0>        -0.0775
      2 C2          4.3831   -4.5773    0.9715 C.ar      1 <0>        -0.1273
      3 C3          4.2731   -3.3382    1.5753 C.ar      1 <0>        -0.0519
      4 C4          3.2213   -2.4942    1.2481 C.ar      1 <0>        -0.1546
      5 C5          2.2716   -2.8931    0.3118 C.ar      1 <0>         0.1855
      6 C6          2.3948   -4.1403   -0.2925 C.ar      1 <0>        -0.1633
      7 N1          1.1944   -2.0824   -0.0350 N.pl3     1 <0>        -0.5638
      8 C7          1.1704   -0.6950    0.0856 C.ar      1 <0>         0.1857
      9 C8          0.3084    0.0298   -0.7232 C.ar      1 <0>        -0.1206
     10 C9          0.2556    1.4228   -0.6247 C.ar      1 <0>         0.0110
     11 C10         1.0738    2.0876    0.2925 C.ar      1 <0>        -0.0770
     12 C11         1.9306    1.3657    1.0939 C.ar      1 <0>        -0.0561
     13 C12         1.9863   -0.0207    0.9948 C.ar      1 <0>        -0.1219
     14 S1          3.1004   -0.9175    2.0238 S.3       1 <0>         0.0496
     15 C13        -0.6350    2.1679   -1.4627 C.1       1 <0>         0.2451
     16 N2         -1.3416    2.7589   -2.1275 N.1       1 <0>        -0.3970
     17 C14        -0.0033   -2.7373   -0.5670 C.3       1 <0>         0.1193
     18 C15         0.1059   -2.8410   -2.0896 C.3       1 <0>        -0.1877
     19 C16        -1.1448   -3.5250   -2.6452 C.3       1 <0>        -0.0087
     20 N3         -1.0400   -3.6246   -4.1070 N.4       1 <0>        -0.3843
     21 C17        -1.0334   -2.2769   -4.6886 C.3       1 <0>        -0.0089
     22 C18        -0.8430   -2.3720   -6.2039 C.3       1 <0>        -0.1432
     23 C19        -1.9923   -3.1845   -6.8073 C.3       1 <0>         0.0961
     24 C20        -2.0358   -4.5623   -6.1402 C.3       1 <0>        -0.1837
     25 C21        -2.1820   -4.3860   -4.6272 C.3       1 <0>        -0.0026
     26 O1         -1.7814   -3.3402   -8.2120 O.3       1 <0>        -0.5525
     27 H1          3.5351   -5.9406   -0.4380 H         1 <0>         0.1331
     28 H2          5.2012   -5.2335    1.2294 H         1 <0>         0.1373
     29 H3          5.0074   -3.0267    2.3035 H         1 <0>         0.1392
     30 H4          1.6656   -4.4575   -1.0233 H         1 <0>         0.1249
     31 H5         -0.3242   -0.4839   -1.4319 H         1 <0>         0.1325
     32 H6          1.0348    3.1639    0.3726 H         1 <0>         0.1476
     33 H7          2.5632    1.8791    1.8028 H         1 <0>         0.1506
     34 H8         -0.0910   -3.7364   -0.1401 H         1 <0>         0.0994
     35 H9         -0.8844   -2.1516   -0.3050 H         1 <0>         0.0974
     36 H10         0.1936   -1.8419   -2.5165 H         1 <0>         0.0962
     37 H11         0.9871   -3.4267   -2.3516 H         1 <0>         0.0997
     38 H12        -1.2326   -4.5241   -2.2183 H         1 <0>         0.1376
     39 H13        -2.0260   -2.9393   -2.3831 H         1 <0>         0.1347
     40 H14        -1.9811   -1.7837   -4.4722 H         1 <0>         0.1330
     41 H15        -0.2169   -1.6989   -4.2558 H         1 <0>         0.1366
     42 H16        -0.8402   -1.3705   -6.6339 H         1 <0>         0.1202
     43 H17         0.1046   -2.8649   -6.4214 H         1 <0>         0.0968
     44 H18        -2.9353   -2.6659   -6.6344 H         1 <0>         0.0736
     45 H19        -2.8856   -5.1262   -6.5247 H         1 <0>         0.1159
     46 H20        -1.1130   -5.1006   -6.3564 H         1 <0>         0.0973
     47 H21        -2.2135   -5.3650   -4.1492 H         1 <0>         0.1356
     48 H22        -3.1052   -3.8478   -4.4122 H         1 <0>         0.1316
     49 H23        -2.4732   -3.8462   -8.6599 H         1 <0>         0.3947
     50 H24        -0.1827   -4.0978   -4.3503 H         1 <0>         0.4247
@<TRIPOS>BOND
     1    1    6 ar
     2    1    2 ar
     3    1   27 1
     4    2    3 ar
     5    2   28 1
     6    3    4 ar
     7    3   29 1
     8    4   14 1
     9    4    5 ar
    10    5    6 ar
    11    5    7 1
    12    6   30 1
    13    7    8 1
    14    7   17 1
    15    8   13 ar
    16    8    9 ar
    17    9   10 ar
    18    9   31 1
    19   10   11 ar
    20   10   15 1
    21   11   12 ar
    22   11   32 1
    23   12   13 ar
    24   12   33 1
    25   13   14 1
    26   15   16 3
    27   17   18 1
    28   17   34 1
    29   17   35 1
    30   18   19 1
    31   18   36 1
    32   18   37 1
    33   19   20 1
    34   19   38 1
    35   19   39 1
    36   20   25 1
    37   20   21 1
    38   20   50 1
    39   21   22 1
    40   21   40 1
    41   21   41 1
    42   22   23 1
    43   22   42 1
    44   22   43 1
    45   23   24 1
    46   23   26 1
    47   23   44 1
    48   24   25 1
    49   24   45 1
    50   24   46 1
    51   25   47 1
    52   25   48 1
    53   26   49 1
@<TRIPOS>MOLECULE
ZINC01893945
   79    84     0     0     0
SMALL
USER_CHARGES

@<TRIPOS>ATOM
      1 C1         -4.3674  -12.0500   -0.6935 C.ar      1 <0>        -0.1084
      2 C2         -3.2283  -12.4382    0.0076 C.ar      1 <0>        -0.0299
      3 C3         -2.0127  -12.4917   -0.6026 C.ar      1 <0>        -0.1478
      4 C4         -1.8984  -12.1507   -1.9615 C.ar      1 <0>         0.1538
      5 C5         -3.0585  -11.7581   -2.6709 C.ar      1 <0>        -0.1057
      6 C6         -4.2945  -11.7134   -2.0119 C.ar      1 <0>        -0.0611
      7 C7         -2.9337  -11.4204   -4.0369 C.ar      1 <0>         0.3440
      8 C8         -1.6732  -11.4852   -4.6233 C.ar      1 <0>        -0.1441
      9 C9         -0.5831  -11.8727   -3.8640 C.ar      1 <0>         0.2496
     10 N1         -0.7214  -12.1902   -2.5879 N.ar      1 <0>        -0.4773
     11 C10         0.8097  -11.9455   -4.4399 C.3       1 <0>        -0.1140
     12 C11         0.7589  -11.9899   -5.9651 C.3       1 <0>        -0.1221
     13 C12        -0.1140  -10.8287   -6.4553 C.3       1 <0>        -0.1317
     14 C13        -1.5646  -11.1271   -6.0818 C.3       1 <0>        -0.0717
     15 N2         -4.0410  -11.0339   -4.7762 N.pl3     1 <0>        -0.7950
     16 C14        -4.4753   -9.6347   -4.7678 C.3       1 <0>         0.1342
     17 C15        -5.4341   -9.4053   -3.5978 C.3       1 <0>        -0.1553
     18 C16        -5.8877   -7.9441   -3.5892 C.3       1 <0>        -0.1209
     19 C17        -6.8465   -7.7147   -2.4192 C.3       1 <0>        -0.1174
     20 C18        -7.3001   -6.2534   -2.4105 C.3       1 <0>        -0.1208
     21 C19        -8.2589   -6.0240   -1.2405 C.3       1 <0>        -0.1454
     22 C20        -8.7124   -4.5628   -1.2318 C.3       1 <0>         0.1352
     23 N3         -9.6305   -4.3431   -0.1115 N.pl3     1 <0>        -0.7952
     24 C21       -10.9513   -3.9988   -0.3549 C.ar      1 <0>         0.3431
     25 C22       -11.9243   -4.9933   -0.5993 C.ar      1 <0>        -0.1056
     26 C23       -11.5974   -6.3561   -0.6049 C.ar      1 <0>        -0.0599
     27 C24       -12.5693   -7.2807   -0.8438 C.ar      1 <0>        -0.1060
     28 C25       -13.8839   -6.8879   -1.0830 C.ar      1 <0>        -0.0301
     29 C26       -14.2345   -5.5726   -1.0849 C.ar      1 <0>        -0.1466
     30 C27       -13.2589   -4.5899   -0.8428 C.ar      1 <0>         0.1534
     31 N4        -13.5687   -3.2925   -0.8408 N.ar      1 <0>        -0.4769
     32 C28       -12.6724   -2.3467   -0.6160 C.ar      1 <0>         0.2497
     33 C29       -11.3506   -2.6657   -0.3584 C.ar      1 <0>        -0.1441
     34 C30       -10.3007   -1.6241   -0.0753 C.3       1 <0>        -0.0711
     35 C31       -10.7756   -0.2454   -0.5294 C.3       1 <0>        -0.1323
     36 C32       -12.1684    0.0035    0.0612 C.3       1 <0>        -0.1214
     37 C33       -13.1598   -0.9191   -0.6521 C.3       1 <0>        -0.1143
     38 H1         -5.3209  -12.0198   -0.1872 H         1 <0>         0.1503
     39 H2         -3.3108  -12.7004    1.0520 H         1 <0>         0.1557
     40 H3         -1.1392  -12.7948   -0.0446 H         1 <0>         0.1568
     41 H4         -5.1842  -11.4141   -2.5460 H         1 <0>         0.1614
     42 H5          1.3753  -11.0687   -4.1245 H         1 <0>         0.1235
     43 H6          1.3047  -12.8437   -4.0705 H         1 <0>         0.1133
     44 H7          1.7663  -11.8866   -6.3684 H         1 <0>         0.0985
     45 H8          0.3262  -12.9361   -6.2899 H         1 <0>         0.0815
     46 H9          0.2052   -9.9023   -5.9777 H         1 <0>         0.0750
     47 H10        -0.0254  -10.7341   -7.5375 H         1 <0>         0.0922
     48 H11        -1.9268  -11.9601   -6.6843 H         1 <0>         0.0966
     49 H12        -2.1756  -10.2470   -6.2822 H         1 <0>         0.0969
     50 H13        -4.5282  -11.6898   -5.2989 H         1 <0>         0.4197
     51 H14        -3.6067   -8.9853   -4.6585 H         1 <0>         0.0703
     52 H15        -4.9839   -9.4066   -5.7045 H         1 <0>         0.0922
     53 H16        -6.3027  -10.0547   -3.7072 H         1 <0>         0.0723
     54 H17        -4.9255   -9.6334   -2.6612 H         1 <0>         0.0671
     55 H18        -5.0191   -7.2947   -3.4798 H         1 <0>         0.0652
     56 H19        -6.3963   -7.7159   -4.5258 H         1 <0>         0.0685
     57 H20        -7.7151   -8.3640   -2.5285 H         1 <0>         0.0628
     58 H21        -6.3379   -7.9428   -1.4825 H         1 <0>         0.0620
     59 H22        -6.4315   -5.6041   -2.3011 H         1 <0>         0.0681
     60 H23        -7.8087   -6.0253   -3.3471 H         1 <0>         0.0655
     61 H24        -9.1275   -6.6734   -1.3498 H         1 <0>         0.0663
     62 H25        -7.7503   -6.2522   -0.3038 H         1 <0>         0.0718
     63 H26        -7.8439   -3.9134   -1.1224 H         1 <0>         0.0785
     64 H27        -9.2210   -4.3347   -2.1685 H         1 <0>         0.0735
     65 H28        -9.3144   -4.4385    0.8006 H         1 <0>         0.4186
     66 H29       -10.5810   -6.6715   -0.4211 H         1 <0>         0.1572
     67 H30       -12.3171   -8.3309   -0.8481 H         1 <0>         0.1508
     68 H31       -14.6372   -7.6388   -1.2703 H         1 <0>         0.1563
     69 H32       -15.2585   -5.2850   -1.2720 H         1 <0>         0.1571
     70 H33       -10.0980   -1.5998    0.9954 H         1 <0>         0.0961
     71 H34        -9.3854   -1.8824   -0.6080 H         1 <0>         0.0967
     72 H35       -10.0836    0.5174   -0.1725 H         1 <0>         0.0917
     73 H36       -10.8274   -0.2147   -1.6178 H         1 <0>         0.0754
     74 H37       -12.1574   -0.2131    1.1294 H         1 <0>         0.0821
     75 H38       -12.4554    1.0423   -0.1022 H         1 <0>         0.0982
     76 H39       -13.2782   -0.6061   -1.6895 H         1 <0>         0.1244
     77 H40       -14.1230   -0.8554   -0.1460 H         1 <0>         0.1127
     78 H41         0.0637  -12.4627   -2.0878 H         1 <0>         0.4430
     79 H42       -14.4876   -3.0326   -1.0112 H         1 <0>         0.4432
@<TRIPOS>BOND
     1    1    6 ar
     2    1    2 ar
     3    1   38 1
     4    2    3 ar
     5    2   39 1
     6    3    4 ar
     7    3   40 1
     8    4   10 ar
     9    4    5 ar
    10    5    6 ar
    11    5    7 ar
    12    6   41 1
    13    7    8 ar
    14    7   15 1
    15    8   14 1
    16    8    9 ar
    17    9   10 ar
    18    9   11 1
    19   10   78 1
    20   11   12 1
    21   11   42 1
    22   11   43 1
    23   12   13 1
    24   12   44 1
    25   12   45 1
    26   13   14 1
    27   13   46 1
    28   13   47 1
    29   14   48 1
    30   14   49 1
    31   15   16 1
    32   15   50 1
    33   16   17 1
    34   16   51 1
    35   16   52 1
    36   17   18 1
    37   17   53 1
    38   17   54 1
    39   18   19 1
    40   18   55 1
    41   18   56 1
    42   19   20 1
    43   19   57 1
    44   19   58 1
    45   20   21 1
    46   20   59 1
    47   20   60 1
    48   21   22 1
    49   21   61 1
    50   21   62 1
    51   22   23 1
    52   22   63 1
    53   22   64 1
    54   23   24 1
    55   23   65 1
    56   24   33 ar
    57   24   25 ar
    58   25   30 ar
    59   25   26 ar
    60   26   27 ar
    61   26   66 1
    62   27   28 ar
    63   27   67 1
    64   28   29 ar
    65   28   68 1
    66   29   30 ar
    67   29   69 1
    68   30   31 ar
    69   31   32 ar
    70   31   79 1
    71   32   37 1
    72   32   33 ar
    73   33   34 1
    74   34   35 1
    75   34   70 1
    76   34   71 1
    77   35   36 1
    78   35   72 1
    79   35   73 1
    80   36   37 1
    81   36   74 1
    82   36   75 1
    83   37   76 1
    84   37   77 1
@<TRIPOS>MOLECULE
ZINC00622264
   65    68     0     0     0
SMALL
USER_CHARGES

@<TRIPOS>ATOM
      1 C1         -0.0325    0.9961   -0.3223 C.3       1 <0>        -0.1897
      2 C2         -0.0791   -0.5278   -0.1935 C.3       1 <0>        -0.0231
      3 N1          0.6441   -0.9392    1.0171 N.4       1 <0>        -0.2653
      4 C3          0.5993   -2.4023    1.1408 C.3       1 <0>        -0.0579
      5 C4          2.0423   -0.4981    0.9260 C.3       1 <0>        -0.0144
      6 C5          2.6988   -1.1339   -0.3010 C.3       1 <0>        -0.1908
      7 C6          0.0137   -0.3288    2.1953 C.3       1 <0>        -0.0080
      8 C7         -1.4425   -0.7883    2.2902 C.3       1 <0>        -0.1738
      9 C8         -2.0990   -0.1525    3.5172 C.3       1 <0>         0.0378
     10 N2         -3.5201   -0.5071    3.5496 N.ar      1 <0>        -0.3467
     11 C9         -4.3856    0.2692    2.8794 C.ar      1 <0>         0.1264
     12 C10        -3.9240    1.3889    2.1703 C.ar      1 <0>        -0.2389
     13 C11        -4.8196    2.1825    1.4830 C.ar      1 <0>         0.2703
     14 C12        -6.1839    1.8832    1.4857 C.ar      1 <0>        -0.1433
     15 C13        -6.6541    0.7997    2.1682 C.ar      1 <0>        -0.0367
     16 C14        -5.7700   -0.0206    2.8717 C.ar      1 <0>        -0.0682
     17 C15        -6.2485   -1.1919    3.6139 C.ar      1 <0>        -0.0155
     18 C16        -7.5957   -1.5478    3.6572 C.ar      1 <0>        -0.0735
     19 C17        -7.9826   -2.6497    4.3645 C.ar      1 <0>        -0.1022
     20 C18        -7.0437   -3.4262    5.0465 C.ar      1 <0>         0.2369
     21 C19        -5.7017   -3.0940    5.0195 C.ar      1 <0>        -0.1624
     22 C20        -5.2885   -1.9710    4.3009 C.ar      1 <0>        -0.0610
     23 C21        -3.8813   -1.5712    4.2285 C.ar      1 <0>         0.3298
     24 C22        -2.8553   -2.3730    4.9331 C.ar      1 <0>        -0.1302
     25 C23        -2.6758   -3.7187    4.6119 C.ar      1 <0>        -0.0721
     26 C24        -1.7180   -4.4607    5.2721 C.ar      1 <0>        -0.1096
     27 C25        -0.9369   -3.8729    6.2511 C.ar      1 <0>        -0.0720
     28 C26        -1.1101   -2.5388    6.5742 C.ar      1 <0>        -0.1068
     29 C27        -2.0603   -1.7846    5.9169 C.ar      1 <0>        -0.0935
     30 N3         -7.4640   -4.5489    5.7631 N.pl3     1 <0>        -0.8547
     31 N4         -4.3576    3.2956    0.7785 N.pl3     1 <0>        -0.8528
     32 H1          1.0050    1.3234   -0.3899 H         1 <0>         0.0870
     33 H2         -0.5691    1.3014   -1.2206 H         1 <0>         0.1083
     34 H3         -0.5002    1.4490    0.5519 H         1 <0>         0.0751
     35 H4         -1.1166   -0.8551   -0.1259 H         1 <0>         0.1254
     36 H5          0.3886   -0.9807   -1.0677 H         1 <0>         0.1373
     37 H6          1.0670   -2.8553    0.2666 H         1 <0>         0.1311
     38 H7          1.1359   -2.7076    2.0391 H         1 <0>         0.1262
     39 H8         -0.4382   -2.7297    1.2084 H         1 <0>         0.1187
     40 H9          2.0755    0.5876    0.8343 H         1 <0>         0.1322
     41 H10         2.5789   -0.8034    1.8244 H         1 <0>         0.1313
     42 H11         3.7362   -0.8065   -0.3686 H         1 <0>         0.1100
     43 H12         2.6656   -2.2195   -0.2093 H         1 <0>         0.0832
     44 H13         2.1622   -0.8286   -1.1993 H         1 <0>         0.0820
     45 H14         0.5503   -0.6341    3.0936 H         1 <0>         0.1382
     46 H15         0.0469    0.7568    2.1036 H         1 <0>         0.1380
     47 H16        -1.9791   -0.4830    1.3919 H         1 <0>         0.1072
     48 H17        -1.4757   -1.8739    2.3819 H         1 <0>         0.1060
     49 H18        -1.6123   -0.5194    4.4208 H         1 <0>         0.1400
     50 H19        -1.9962    0.9313    3.4637 H         1 <0>         0.1336
     51 H20        -2.8711    1.6289    2.1628 H         1 <0>         0.1391
     52 H21        -6.8720    2.5147    0.9434 H         1 <0>         0.1512
     53 H22        -7.7107    0.5763    2.1644 H         1 <0>         0.1562
     54 H23        -8.3305   -0.9541    3.1337 H         1 <0>         0.1538
     55 H24        -9.0268   -2.9237    4.3971 H         1 <0>         0.1517
     56 H25        -4.9799   -3.6981    5.5492 H         1 <0>         0.1461
     57 H26        -3.2854   -4.1788    3.8483 H         1 <0>         0.1391
     58 H27        -1.5781   -5.5025    5.0244 H         1 <0>         0.1450
     59 H28        -0.1890   -4.4580    6.7656 H         1 <0>         0.1433
     60 H29        -0.4973   -2.0857    7.3394 H         1 <0>         0.1450
     61 H30        -2.1913   -0.7421    6.1666 H         1 <0>         0.1355
     62 H31        -8.4043   -4.7859    5.7854 H         1 <0>         0.4133
     63 H32        -6.8156   -5.0915    6.2386 H         1 <0>         0.4100
     64 H33        -3.4111    3.5080    0.7738 H         1 <0>         0.4062
     65 H34        -4.9830    3.8567    0.2938 H         1 <0>         0.4157
@<TRIPOS>BOND
     1    1    2 1
     2    1   32 1
     3    1   33 1
     4    1   34 1
     5    2    3 1
     6    2   35 1
     7    2   36 1
     8    3    4 1
     9    3    5 1
    10    3    7 1
    11    4   37 1
    12    4   38 1
    13    4   39 1
    14    5    6 1
    15    5   40 1
    16    5   41 1
    17    6   42 1
    18    6   43 1
    19    6   44 1
    20    7    8 1
    21    7   45 1
    22    7   46 1
    23    8    9 1
    24    8   47 1
    25    8   48 1
    26    9   10 1
    27    9   49 1
    28    9   50 1
    29   10   23 ar
    30   10   11 ar
    31   11   16 ar
    32   11   12 ar
    33   12   13 ar
    34   12   51 1
    35   13   14 ar
    36   13   31 1
    37   14   15 ar
    38   14   52 1
    39   15   16 ar
    40   15   53 1
    41   16   17 ar
    42   17   22 ar
    43   17   18 ar
    44   18   19 ar
    45   18   54 1
    46   19   20 ar
    47   19   55 1
    48   20   21 ar
    49   20   30 1
    50   21   22 ar
    51   21   56 1
    52   22   23 ar
    53   23   24 1
    54   24   29 ar
    55   24   25 ar
    56   25   26 ar
    57   25   57 1
    58   26   27 ar
    59   26   58 1
    60   27   28 ar
    61   27   59 1
    62   28   29 ar
    63   28   60 1
    64   29   61 1
    65   30   62 1
    66   30   63 1
    67   31   64 1
    68   31   65 1
@<TRIPOS>MOLECULE
ZINC19796050
   37    39     0     0     0
SMALL
USER_CHARGES

@<TRIPOS>ATOM
      1 C1         -0.0184    1.5028    0.0103 C.3       1 <0>        -0.1375
      2 C2          0.0021   -0.0041    0.0020 C.2       1 <0>        -0.1076
      3 C3         -1.1234   -0.6744    0.0092 C.2       1 <0>        -0.1652
      4 C4         -2.4960   -0.0123    0.0193 C.3       1 <0>        -0.0011
      5 H1         -2.4129    1.0627   -0.1403 H         1 <0>         0.1246
      6 C5         -3.1070   -0.3186    1.3902 C.3       1 <0>        -0.0998
      7 C6         -3.0034   -1.7886    1.7079 C.2       1 <0>         0.2465
      8 C7         -2.1410   -2.6282    1.1033 C.2       1 <0>        -0.2448
      9 C8         -2.1016   -3.9856    1.4792 C.2       1 <0>        -0.0472
     10 C9         -2.9396   -4.4482    2.4460 C.2       1 <0>        -0.1975
     11 C10        -3.8368   -3.5512    3.0511 C.2       1 <0>         0.5174
     12 O1         -4.6023   -3.9423    3.9176 O.2       1 <0>        -0.5134
     13 N1         -3.8491   -2.2639    2.6734 N.am      1 <0>        -0.6088
     14 H2         -4.4740   -1.6539    3.0957 H         1 <0>         0.4241
     15 C11        -1.1948   -2.1939    0.0017 C.3       1 <0>         0.1727
     16 C12        -1.8053   -2.5953   -1.3498 C.3       1 <0>        -0.0814
     17 C13        -3.0324   -1.7778   -1.6215 C.2       1 <0>        -0.1018
     18 C14        -3.3273   -0.6547   -1.0592 C.2       1 <0>        -0.1547
     19 C15        -3.9923   -2.2986   -2.6599 C.3       1 <0>        -0.1299
     20 N2          0.1376   -2.7833    0.1896 N.4       1 <0>        -0.6289
     21 H3          1.0042    1.8801    0.0026 H         1 <0>         0.0766
     22 H4         -0.5455    1.8639   -0.8728 H         1 <0>         0.0831
     23 H5         -0.5286    1.8543    0.9071 H         1 <0>         0.0810
     24 H6          0.9446   -0.5313   -0.0098 H         1 <0>         0.1110
     25 H7         -2.5778    0.2514    2.1539 H         1 <0>         0.1147
     26 H8         -4.1568   -0.0253    1.3884 H         1 <0>         0.1097
     27 H9         -1.4060   -4.6586    1.0001 H         1 <0>         0.1321
     28 H10        -2.9161   -5.4863    2.7431 H         1 <0>         0.1635
     29 H11        -1.0751   -2.4257   -2.1412 H         1 <0>         0.1017
     30 H12        -2.0723   -3.6518   -1.3266 H         1 <0>         0.1027
     31 H13        -4.2382   -0.1584   -1.3598 H         1 <0>         0.1270
     32 H14        -4.7304   -2.9427   -2.1819 H         1 <0>         0.0742
     33 H15        -4.4978   -1.4607   -3.1401 H         1 <0>         0.0744
     34 H16        -3.4430   -2.8691   -3.4089 H         1 <0>         0.0686
     35 H17         0.5173   -2.4811    1.0742 H         1 <0>         0.4399
     36 H18         0.0645   -3.7896    0.1810 H         1 <0>         0.4359
     37 H19         0.7462   -2.4839   -0.5575 H         1 <0>         0.4382
@<TRIPOS>BOND
     1    1    2 1
     2    1   21 1
     3    1   22 1
     4    1   23 1
     5    2    3 2
     6    2   24 1
     7    3   15 1
     8    3    4 1
     9    4    5 1
    10    4   18 1
    11    4    6 1
    12    6    7 1
    13    6   25 1
    14    6   26 1
    15    7   13 1
    16    7    8 2
    17    8    9 1
    18    8   15 1
    19    9   10 2
    20    9   27 1
    21   10   11 1
    22   10   28 1
    23   11   12 2
    24   11   13 am
    25   13   14 1
    26   15   16 1
    27   15   20 1
    28   16   17 1
    29   16   29 1
    30   16   30 1
    31   17   18 2
    32   17   19 1
    33   18   31 1
    34   19   32 1
    35   19   33 1
    36   19   34 1
    37   20   35 1
    38   20   36 1
    39   20   37 1
@<TRIPOS>MOLECULE
ZINC13492737
   29    31     0     0     0
SMALL
USER_CHARGES
6,8-dichloro-1,2,3,4-tetrahydroacridin-9-amine
@<TRIPOS>ATOM
      1 C1         -1.1692   -0.7059    0.4602 C.ar      1 <0>        -0.0858
      2 C2         -2.3206   -0.0179    0.7025 C.ar      1 <0>        -0.0020
      3 C3         -2.3350    1.3750    0.7200 C.ar      1 <0>        -0.1184
      4 C4         -1.1951    2.0875    0.4884 C.ar      1 <0>         0.0139
      5 C5          0.0074    1.4096    0.2415 C.ar      1 <0>        -0.1428
      6 C6          0.0255   -0.0058    0.2234 C.ar      1 <0>         0.1846
      7 N1          1.1692   -0.6499   -0.0162 N.ar      1 <0>        -0.5081
      8 C7          2.3089   -0.0178   -0.2400 C.ar      1 <0>         0.2101
      9 C8          2.3673    1.3647   -0.2421 C.ar      1 <0>        -0.1895
     10 C9          1.2135    2.1040    0.0018 C.ar      1 <0>         0.2625
     11 N2          1.2475    3.4900    0.0087 N.pl3     1 <0>        -0.8743
     12 C10         3.6398    2.1264   -0.5025 C.3       1 <0>        -0.0673
     13 C11         4.8555    1.2203   -0.3187 C.3       1 <0>        -0.1213
     14 C12         4.6358   -0.0541   -1.1424 C.3       1 <0>        -0.1204
     15 C13         3.5292   -0.8719   -0.4810 C.3       1 <0>        -0.0732
     16 Cl1        -1.2298    3.8229    0.5140 Cl        1 <0>        -0.0404
     17 Cl2        -3.7924   -0.8911    0.9942 Cl        1 <0>        -0.0477
     18 H1         -1.1752   -1.7858    0.4508 H         1 <0>         0.1533
     19 H2         -3.2603    1.8968    0.9147 H         1 <0>         0.1483
     20 H3          0.7842    3.9830    0.7039 H         1 <0>         0.4038
     21 H4          1.7345    3.9667   -0.6815 H         1 <0>         0.4008
     22 H5          3.6275    2.5086   -1.5232 H         1 <0>         0.0731
     23 H6          3.7067    2.9630    0.1931 H         1 <0>         0.0757
     24 H7          5.7519    1.7330   -0.6674 H         1 <0>         0.0721
     25 H8          4.9659    0.9629    0.7347 H         1 <0>         0.0680
     26 H9          4.3384    0.2120   -2.1567 H         1 <0>         0.0680
     27 H10         5.5576   -0.6350   -1.1714 H         1 <0>         0.0764
     28 H11         3.8897   -1.2603    0.4715 H         1 <0>         0.0899
     29 H12         3.2617   -1.7057   -1.1301 H         1 <0>         0.0905
@<TRIPOS>BOND
     1    1    6 ar
     2    1    2 ar
     3    1   18 1
     4    2    3 ar
     5    2   17 1
     6    3    4 ar
     7    3   19 1
     8    4    5 ar
     9    4   16 1
    10    5   10 ar
    11    5    6 ar
    12    6    7 ar
    13    7    8 ar
    14    8   15 1
    15    8    9 ar
    16    9   10 ar
    17    9   12 1
    18   10   11 1
    19   11   20 1
    20   11   21 1
    21   12   13 1
    22   12   22 1
    23   12   23 1
    24   13   14 1
    25   13   24 1
    26   13   25 1
    27   14   15 1
    28   14   26 1
    29   14   27 1
    30   15   28 1
    31   15   29 1
@<TRIPOS>MOLECULE
ZINC35643689
   59    62     0     0     0
SMALL
USER_CHARGES

@<TRIPOS>ATOM
      1 C1          1.2093   -4.7966    0.1504 C.3       1 <0>         0.0250
      2 O1          2.5665   -4.3892   -0.0344 O.3       1 <0>        -0.3035
      3 C2          3.1301   -3.6506    0.9588 C.ar      1 <0>         0.1061
      4 C3          2.3961   -3.3302    2.0880 C.ar      1 <0>        -0.1605
      5 C4          2.9671   -2.5777    3.1010 C.ar      1 <0>        -0.0966
      6 C5          4.2752   -2.1443    2.9862 C.ar      1 <0>        -0.1028
      7 C6          5.0135   -2.4634    1.8587 C.ar      1 <0>        -0.1603
      8 C7          4.4483   -3.2194    0.8460 C.ar      1 <0>         0.1036
      9 O2          5.1772   -3.5352   -0.2578 O.3       1 <0>        -0.3032
     10 C8          6.5235   -3.0583   -0.3045 C.3       1 <0>         0.0258
     11 C9          4.6596   -1.3478    4.2150 C.3       1 <0>        -0.0700
     12 C10         3.3223   -0.9712    4.8871 C.3       1 <0>        -0.0893
     13 C11         2.3841   -2.1020    4.4147 C.3       1 <0>        -0.0739
     14 C12         3.4584   -0.9785    6.4110 C.3       1 <0>        -0.1067
     15 C13         4.4211    0.1296    6.8424 C.3       1 <0>        -0.1015
     16 C14         3.8065    1.4952    6.5223 C.3       1 <0>        -0.1446
     17 C15         4.7381    2.5989    7.0279 C.3       1 <0>        -0.0071
     18 N1          4.9149    2.4682    8.4792 N.4       1 <0>        -0.3809
     19 C16         5.5695    1.1913    8.7882 C.3       1 <0>        -0.0120
     20 C17         4.6699    0.0335    8.3504 C.3       1 <0>        -0.1410
     21 C18         5.7464    3.5747    8.9713 C.3       1 <0>         0.0441
     22 C19         5.8276    3.5120   10.4748 C.ar      1 <0>        -0.1612
     23 C20         4.8895    4.1728   11.2457 C.ar      1 <0>        -0.0943
     24 C21         4.9639    4.1153   12.6249 C.ar      1 <0>        -0.1127
     25 C22         5.9761    3.3966   13.2331 C.ar      1 <0>        -0.0843
     26 C23         6.9136    2.7351   12.4621 C.ar      1 <0>        -0.1134
     27 C24         6.8367    2.7891   11.0829 C.ar      1 <0>        -0.0978
     28 H1          0.5765   -3.9154    0.2553 H         1 <0>         0.0556
     29 H2          0.8835   -5.3772   -0.7126 H         1 <0>         0.1044
     30 H3          1.1327   -5.4080    1.0496 H         1 <0>         0.0558
     31 H4          1.3743   -3.6678    2.1793 H         1 <0>         0.1348
     32 H5          6.0350   -2.1239    1.7706 H         1 <0>         0.1330
     33 H6          7.0815   -3.4620    0.5404 H         1 <0>         0.0549
     34 H7          6.9907   -3.3796   -1.2354 H         1 <0>         0.1040
     35 H8          6.5252   -1.9695   -0.2540 H         1 <0>         0.0544
     36 H9          5.2624   -1.9578    4.8878 H         1 <0>         0.0799
     37 H10         5.2048   -0.4487    3.9277 H         1 <0>         0.0708
     38 H11         2.9701   -0.0023    4.5331 H         1 <0>         0.0837
     39 H12         1.3752   -1.7180    4.2637 H         1 <0>         0.0759
     40 H13         2.3756   -2.9146    5.1410 H         1 <0>         0.0821
     41 H14         2.4817   -0.8079    6.8638 H         1 <0>         0.0736
     42 H15         3.8462   -1.9438    6.7365 H         1 <0>         0.0777
     43 H16         5.3656    0.0197    6.3094 H         1 <0>         0.0919
     44 H17         3.6779    1.5929    5.4444 H         1 <0>         0.1143
     45 H18         2.8379    1.5828    7.0145 H         1 <0>         0.0889
     46 H19         5.7063    2.5106    6.5350 H         1 <0>         0.1285
     47 H20         4.3036    3.5725    6.8015 H         1 <0>         0.1301
     48 H21         6.5199    1.1330    8.2577 H         1 <0>         0.1273
     49 H22         5.7488    1.1258    9.8614 H         1 <0>         0.1306
     50 H23         3.7192    0.0907    8.8805 H         1 <0>         0.0876
     51 H24         5.1585   -0.9137    8.5790 H         1 <0>         0.1115
     52 H25         6.7481    3.4919    8.5496 H         1 <0>         0.1345
     53 H26         5.3030    4.5240    8.6706 H         1 <0>         0.1363
     54 H27         4.0987    4.7342   10.7705 H         1 <0>         0.1309
     55 H28         4.2315    4.6321   13.2272 H         1 <0>         0.1362
     56 H29         6.0347    3.3522   14.3106 H         1 <0>         0.1360
     57 H30         7.7046    2.1739   12.9373 H         1 <0>         0.1361
     58 H31         7.5670    2.2692   10.4806 H         1 <0>         0.1306
     59 H32         4.0134    2.5009    8.9311 H         1 <0>         0.4214
@<TRIPOS>BOND
     1    1    2 1
     2    1   28 1
     3    1   29 1
     4    1   30 1
     5    2    3 1
     6    3    8 ar
     7    3    4 ar
     8    4    5 ar
     9    4   31 1
    10    5   13 1
    11    5    6 ar
    12    6    7 ar
    13    6   11 1
    14    7    8 ar
    15    7   32 1
    16    8    9 1
    17    9   10 1
    18   10   33 1
    19   10   34 1
    20   10   35 1
    21   11   12 1
    22   11   36 1
    23   11   37 1
    24   12   13 1
    25   12   14 1
    26   12   38 1
    27   13   39 1
    28   13   40 1
    29   14   15 1
    30   14   41 1
    31   14   42 1
    32   15   20 1
    33   15   16 1
    34   15   43 1
    35   16   17 1
    36   16   44 1
    37   16   45 1
    38   17   18 1
    39   17   46 1
    40   17   47 1
    41   18   19 1
    42   18   21 1
    43   18   59 1
    44   19   20 1
    45   19   48 1
    46   19   49 1
    47   20   50 1
    48   20   51 1
    49   21   22 1
    50   21   52 1
    51   21   53 1
    52   22   27 ar
    53   22   23 ar
    54   23   24 ar
    55   23   54 1
    56   24   25 ar
    57   24   55 1
    58   25   26 ar
    59   25   56 1
    60   26   27 ar
    61   26   57 1
    62   27   58 1
@<TRIPOS>MOLECULE
ZINC00491073
   43    46     0     0     0
SMALL
USER_CHARGES

@<TRIPOS>ATOM
      1 C1         -0.0178    1.4648    0.0101 C.3       1 <0>        -0.0508
      2 N1          0.0021   -0.0041    0.0020 N.4       1 <0>        -0.3695
      3 C2         -1.3487   -0.4766   -0.1051 C.3       1 <0>        -0.0209
      4 C3         -1.4957   -1.8208   -0.7552 C.3       1 <0>        -0.1240
      5 C4         -1.1986   -2.9607    0.1979 C.3       1 <0>        -0.0106
      6 C5         -2.0769   -2.9074    1.4042 C.2       1 <0>        -0.1408
      7 C6         -2.9213   -3.8188    1.7532 C.2       1 <0>        -0.1505
      8 C7         -3.1380   -5.0863    0.9901 C.3       1 <0>         0.1315
      9 H1         -4.2051   -5.3069    0.9636 H         1 <0>         0.0752
     10 C8         -2.6198   -4.9844   -0.4299 C.3       1 <0>        -0.1186
     11 C9         -1.2869   -4.2969   -0.5425 C.3       1 <0>         0.0975
     12 H2         -1.0674   -4.1273   -1.5966 H         1 <0>         0.0880
     13 O1         -0.2232   -5.0787    0.0155 O.3       1 <0>        -0.2581
     14 C10         0.7233   -4.2458    0.5013 C.ar      1 <0>         0.0952
     15 C11         0.2527   -2.9329    0.6428 C.ar      1 <0>        -0.1178
     16 C12         1.0216   -1.9269    1.1409 C.ar      1 <0>        -0.1302
     17 C13         2.3121   -2.2785    1.5668 C.ar      1 <0>        -0.0934
     18 C14         2.7995   -3.5564    1.4290 C.ar      1 <0>        -0.1641
     19 C15         2.0296   -4.5760    0.8827 C.ar      1 <0>         0.1377
     20 O2          2.5209   -5.8345    0.7267 O.3       1 <0>        -0.2954
     21 C16         3.8668   -6.0626    1.1493 C.3       1 <0>         0.0215
     22 C17         0.7068   -0.4603    1.1832 C.3       1 <0>         0.0520
     23 O3         -2.4591   -6.1527    1.6564 O.3       1 <0>        -0.5466
     24 H3          1.0047    1.8421    0.0024 H         1 <0>         0.1273
     25 H4         -0.5450    1.8259   -0.8730 H         1 <0>         0.1278
     26 H5         -0.5280    1.8163    0.9069 H         1 <0>         0.1247
     27 H6         -1.7753   -0.5300    0.8966 H         1 <0>         0.1288
     28 H7         -1.9228    0.2491   -0.6812 H         1 <0>         0.1383
     29 H8         -2.5166   -1.9252   -1.1226 H         1 <0>         0.1215
     30 H9         -0.8106   -1.8805   -1.6009 H         1 <0>         0.0938
     31 H10        -1.9990   -2.0352    2.0363 H         1 <0>         0.1089
     32 H11        -3.5045   -3.6570    2.6477 H         1 <0>         0.1222
     33 H12        -2.5282   -5.9902   -0.8398 H         1 <0>         0.1019
     34 H13        -3.3468   -4.4337   -1.0268 H         1 <0>         0.1027
     35 H14         2.9401   -1.5233    2.0159 H         1 <0>         0.1374
     36 H15         3.8066   -3.7734    1.7533 H         1 <0>         0.1450
     37 H16         4.5389   -5.4141    0.5873 H         1 <0>         0.0614
     38 H17         3.9556   -5.8433    2.2133 H         1 <0>         0.0618
     39 H18         4.1324   -7.1043    0.9696 H         1 <0>         0.1116
     40 H19         1.6391    0.0971    1.2738 H         1 <0>         0.1432
     41 H20         0.0917   -0.2576    2.0600 H         1 <0>         0.1319
     42 H21        -2.7602   -6.3053    2.5625 H         1 <0>         0.3809
     43 H22         0.5116   -0.3113   -0.8129 H         1 <0>         0.4218
@<TRIPOS>BOND
     1    1    2 1
     2    1   24 1
     3    1   25 1
     4    1   26 1
     5    2   22 1
     6    2    3 1
     7    2   43 1
     8    3    4 1
     9    3   27 1
    10    3   28 1
    11    4    5 1
    12    4   29 1
    13    4   30 1
    14    5   11 1
    15    5   15 1
    16    5    6 1
    17    6    7 2
    18    6   31 1
    19    7    8 1
    20    7   32 1
    21    8    9 1
    22    8   10 1
    23    8   23 1
    24   10   11 1
    25   10   33 1
    26   10   34 1
    27   11   12 1
    28   11   13 1
    29   13   14 1
    30   14   19 ar
    31   14   15 ar
    32   15   16 ar
    33   16   17 ar
    34   16   22 1
    35   17   18 ar
    36   17   35 1
    37   18   19 ar
    38   18   36 1
    39   19   20 1
    40   20   21 1
    41   21   37 1
    42   21   38 1
    43   21   39 1
    44   22   40 1
    45   22   41 1
    46   23   42 1
@<TRIPOS>MOLECULE
ZINC33971762
   41    43     0     0     0
SMALL
USER_CHARGES

@<TRIPOS>ATOM
      1 C1         -0.1882    1.7290    0.1955 C.3       1 <0>        -0.1309
      2 C2         -0.0702    0.2073    0.0878 C.3       1 <0>        -0.0259
      3 C3          0.7161   -0.2302   -1.1676 C.3       1 <0>        -0.1094
      4 C4          2.1268   -0.5350   -0.6041 C.3       1 <0>         0.0405
      5 N1          1.8390   -1.1603    0.7115 N.3       1 <0>        -0.5322
      6 C5          0.6980   -0.4088    1.2788 C.3       1 <0>         0.2994
      7 H1          1.0394    0.3565    1.9759 H         1 <0>         0.0776
      8 N2         -0.2494   -1.3390    1.8987 N.pl3     1 <0>        -0.6082
      9 C6         -1.4512   -1.3519    1.1851 C.ar      1 <0>         0.2180
     10 C7         -1.4185   -0.4740    0.1132 C.ar      1 <0>        -0.1472
     11 C8         -2.5141   -0.3423   -0.7184 C.ar      1 <0>        -0.0389
     12 C9         -3.6592   -1.0890   -0.4850 C.ar      1 <0>         0.0429
     13 C10        -3.7001   -1.9683    0.5867 C.ar      1 <0>        -0.0563
     14 C11        -2.6072   -2.1000    1.4164 C.ar      1 <0>        -0.1688
     15 O1         -4.7376   -0.9593   -1.3035 O.3       1 <0>        -0.2261
     16 C12        -4.6383   -1.4352   -2.5634 C.2       1 <0>         0.4996
     17 N3         -3.5806   -2.0956   -2.9265 N.2       1 <0>        -0.6269
     18 C13        -3.4728   -2.6119   -4.2933 C.3       1 <0>         0.0245
     19 O2         -5.6388   -1.2245   -3.4457 O.3       1 <0>        -0.4978
     20 C14         0.0235   -2.1399    3.0947 C.3       1 <0>         0.1095
     21 C15         3.0095   -1.0875    1.5963 C.3       1 <0>         0.0155
     22 H2          0.8083    2.1700    0.2180 H         1 <0>         0.0606
     23 H3         -0.7361    2.1127   -0.6652 H         1 <0>         0.0678
     24 H4         -0.7211    1.9882    1.1104 H         1 <0>         0.0624
     25 H5          0.2747   -1.1248   -1.6069 H         1 <0>         0.0841
     26 H6          0.7587    0.5784   -1.8973 H         1 <0>         0.0791
     27 H7          2.6581   -1.2312   -1.2530 H         1 <0>         0.0875
     28 H8          2.6971    0.3850   -0.4763 H         1 <0>         0.0502
     29 H9         -2.4788    0.3438   -1.5516 H         1 <0>         0.1225
     30 H10        -4.5905   -2.5508    0.7720 H         1 <0>         0.1326
     31 H11        -2.6452   -2.7858    2.2498 H         1 <0>         0.1268
     32 H12        -4.2937   -3.3025   -4.4866 H         1 <0>         0.0494
     33 H13        -3.5212   -1.7831   -4.9996 H         1 <0>         0.0495
     34 H14        -2.5234   -3.1342   -4.4105 H         1 <0>         0.0898
     35 H15        -5.4773   -1.6022   -4.3211 H         1 <0>         0.4199
     36 H16        -0.2683   -1.5785    3.9823 H         1 <0>         0.0491
     37 H17        -0.5461   -3.0680    3.0482 H         1 <0>         0.0679
     38 H18         1.0881   -2.3690    3.1434 H         1 <0>         0.0697
     39 H19         3.2777   -0.0435    1.7587 H         1 <0>         0.0309
     40 H20         2.7720   -1.5546    2.5521 H         1 <0>         0.0681
     41 H21         3.8471   -1.6102    1.1345 H         1 <0>         0.0733
@<TRIPOS>BOND
     1    1    2 1
     2    1   22 1
     3    1   23 1
     4    1   24 1
     5    2    6 1
     6    2   10 1
     7    2    3 1
     8    3    4 1
     9    3   25 1
    10    3   26 1
    11    4    5 1
    12    4   27 1
    13    4   28 1
    14    5    6 1
    15    5   21 1
    16    6    7 1
    17    6    8 1
    18    8    9 1
    19    8   20 1
    20    9   14 ar
    21    9   10 ar
    22   10   11 ar
    23   11   12 ar
    24   11   29 1
    25   12   13 ar
    26   12   15 1
    27   13   14 ar
    28   13   30 1
    29   14   31 1
    30   15   16 1
    31   16   17 2
    32   16   19 1
    33   17   18 1
    34   18   32 1
    35   18   33 1
    36   18   34 1
    37   19   35 1
    38   20   36 1
    39   20   37 1
    40   20   38 1
    41   21   39 1
    42   21   40 1
    43   21   41 1
@<TRIPOS>MOLECULE
ZINC33971762
   42    44     0     0     0
SMALL
USER_CHARGES

@<TRIPOS>ATOM
      1 C1         -0.1882    1.7290    0.1955 C.3       1 <0>        -0.1392
      2 C2         -0.0702    0.2073    0.0878 C.3       1 <0>        -0.0229
      3 C3          0.7161   -0.2302   -1.1676 C.3       1 <0>        -0.1344
      4 C4          2.1268   -0.5350   -0.6041 C.3       1 <0>        -0.0013
      5 N1          1.8390   -1.1603    0.7115 N.4       1 <0>        -0.4135
      6 C5          0.6980   -0.4088    1.2788 C.3       1 <0>         0.2646
      7 H1          1.0394    0.3565    1.9759 H         1 <0>         0.1606
      8 N2         -0.2494   -1.3390    1.8987 N.pl3     1 <0>        -0.6268
      9 C6         -1.4512   -1.3519    1.1851 C.ar      1 <0>         0.1765
     10 C7         -1.4185   -0.4740    0.1132 C.ar      1 <0>        -0.1459
     11 C8         -2.5141   -0.3423   -0.7184 C.ar      1 <0>        -0.0416
     12 C9         -3.6592   -1.0890   -0.4850 C.ar      1 <0>         0.0843
     13 C10        -3.7001   -1.9683    0.5867 C.ar      1 <0>        -0.0559
     14 C11        -2.6072   -2.1000    1.4164 C.ar      1 <0>        -0.1358
     15 O1         -4.7376   -0.9593   -1.3035 O.3       1 <0>        -0.2266
     16 C12        -4.6383   -1.4352   -2.5634 C.2       1 <0>         0.5068
     17 N3         -3.5806   -2.0956   -2.9265 N.2       1 <0>        -0.6345
     18 C13        -3.4728   -2.6119   -4.2933 C.3       1 <0>         0.0224
     19 O2         -5.6388   -1.2245   -3.4457 O.3       1 <0>        -0.4909
     20 C14         0.0238   -2.1405    3.0942 C.3       1 <0>         0.0905
     21 C15         3.0087   -1.0454    1.5928 C.3       1 <0>        -0.0450
     22 H2          0.8083    2.1700    0.2180 H         1 <0>         0.0725
     23 H3         -0.7361    2.1127   -0.6652 H         1 <0>         0.0852
     24 H4         -0.7211    1.9882    1.1104 H         1 <0>         0.0759
     25 H5          0.2747   -1.1248   -1.6069 H         1 <0>         0.1057
     26 H6          0.7587    0.5784   -1.8973 H         1 <0>         0.1233
     27 H7          2.6581   -1.2312   -1.2530 H         1 <0>         0.1390
     28 H8          2.6971    0.3850   -0.4763 H         1 <0>         0.1379
     29 H9         -2.4788    0.3438   -1.5516 H         1 <0>         0.1344
     30 H10        -4.5905   -2.5508    0.7720 H         1 <0>         0.1460
     31 H11        -2.6452   -2.7858    2.2498 H         1 <0>         0.1374
     32 H12        -3.5212   -1.7831   -4.9996 H         1 <0>         0.0540
     33 H13        -2.5234   -3.1342   -4.4105 H         1 <0>         0.0911
     34 H14        -4.2937   -3.3025   -4.4866 H         1 <0>         0.0548
     35 H15        -5.4773   -1.6022   -4.3211 H         1 <0>         0.4255
     36 H16        -0.2674   -1.5795    3.9822 H         1 <0>         0.0730
     37 H17        -0.5461   -3.0685    3.0476 H         1 <0>         0.0899
     38 H18         1.0883   -2.3700    3.1423 H         1 <0>         0.0704
     39 H19         3.2642    0.0063    1.7221 H         1 <0>         0.1241
     40 H20         2.7772   -1.4850    2.5630 H         1 <0>         0.1183
     41 H21         3.8525   -1.5722    1.1472 H         1 <0>         0.1259
     42 H22         1.5894   -2.1301    0.5881 H         1 <0>         0.4242
@<TRIPOS>BOND
     1    1    2 1
     2    1   22 1
     3    1   23 1
     4    1   24 1
     5    2    6 1
     6    2   10 1
     7    2    3 1
     8    3    4 1
     9    3   25 1
    10    3   26 1
    11    4    5 1
    12    4   27 1
    13    4   28 1
    14    5    6 1
    15    5   21 1
    16    5   42 1
    17    6    7 1
    18    6    8 1
    19    8    9 1
    20    8   20 1
    21    9   14 ar
    22    9   10 ar
    23   10   11 ar
    24   11   12 ar
    25   11   29 1
    26   12   13 ar
    27   12   15 1
    28   13   14 ar
    29   13   30 1
    30   14   31 1
    31   15   16 1
    32   16   17 2
    33   16   19 1
    34   17   18 1
    35   18   32 1
    36   18   33 1
    37   18   34 1
    38   19   35 1
    39   20   36 1
    40   20   37 1
    41   20   38 1
    42   21   39 1
    43   21   40 1
    44   21   41 1
