@<TRIPOS>MOLECULE
ZINC03779067
   43    47     0     0     0
SMALL
USER_CHARGES

@<TRIPOS>ATOM
      1 C1         -0.0173    1.4248    0.0099 C.3       1 <0>         0.0136
      2 O1          0.0021   -0.0041    0.0020 O.3       1 <0>        -0.2887
      3 C2          0.6264   -0.6189    1.0424 C.ar      1 <0>         0.1429
      4 C3          1.2031    0.1516    2.0530 C.ar      1 <0>        -0.1202
      5 C4          1.8418   -0.4341    3.1045 C.ar      1 <0>        -0.0704
      6 C5          1.9261   -1.8316    3.1779 C.ar      1 <0>        -0.0105
      7 C6          2.5968   -2.4870    4.2229 C.ar      1 <0>        -0.0614
      8 C7          2.6403   -3.8693    4.2273 C.ar      1 <0>         0.1412
      9 N1          2.0106   -4.5918    3.2934 N.ar      1 <0>        -0.3307
     10 C8          1.3947   -4.0242    2.2779 C.ar      1 <0>         0.1975
     11 C9          1.3272   -2.6290    2.1659 C.ar      1 <0>        -0.0787
     12 C10         0.6770   -1.9992    1.0889 C.ar      1 <0>         0.0923
     13 O2          0.1092   -2.7405    0.1016 O.3       1 <0>        -0.3137
     14 C11         0.9357   -3.0758   -1.0149 C.3       1 <0>         0.0259
     15 C12         1.9532   -6.0541    3.3995 C.3       1 <0>         0.0528
     16 C13         3.2796   -6.6194    3.8964 C.3       1 <0>        -0.0988
     17 C14         3.6912   -5.9129    5.1642 C.ar      1 <0>        -0.0585
     18 C15         3.3818   -4.5627    5.3129 C.ar      1 <0>        -0.0838
     19 C16         3.7527   -3.8517    6.4596 C.ar      1 <0>        -0.0631
     20 C17         4.4337   -4.5508    7.4439 C.ar      1 <0>         0.0424
     21 C18         4.7346   -5.9145    7.2930 C.ar      1 <0>         0.0759
     22 C19         4.3666   -6.6141    6.1497 C.ar      1 <0>        -0.0891
     23 O3          5.3933   -6.3392    8.3951 O.3       1 <0>        -0.2931
     24 C20         5.8491   -5.1413    9.0576 C.3       1 <0>         0.2095
     25 O4          4.9099   -4.1296    8.6377 O.3       1 <0>        -0.2956
     26 H1          1.0053    1.8021    0.0021 H         1 <0>         0.0669
     27 H2         -0.5445    1.7859   -0.8732 H         1 <0>         0.1178
     28 H3         -0.5275    1.7763    0.9067 H         1 <0>         0.0680
     29 H4          1.1426    1.2286    2.0006 H         1 <0>         0.1623
     30 H5          2.2822    0.1764    3.8789 H         1 <0>         0.1638
     31 H6          3.0714   -1.9207    5.0105 H         1 <0>         0.1839
     32 H7          0.9352   -4.6421    1.5207 H         1 <0>         0.2120
     33 H8          0.3611   -3.6674   -1.7276 H         1 <0>         0.1111
     34 H9          1.2828   -2.1622   -1.4974 H         1 <0>         0.0603
     35 H10         1.7936   -3.6537   -0.6712 H         1 <0>         0.0476
     36 H11         1.1624   -6.3315    4.0965 H         1 <0>         0.1313
     37 H12         1.7293   -6.4755    2.4195 H         1 <0>         0.1383
     38 H13         3.1676   -7.6853    4.0953 H         1 <0>         0.1300
     39 H14         4.0448   -6.4720    3.1344 H         1 <0>         0.1062
     40 H15         3.5189   -2.8034    6.5727 H         1 <0>         0.1569
     41 H16         4.5977   -7.6628    6.0344 H         1 <0>         0.1608
     42 H17         5.8163   -5.2672   10.1398 H         1 <0>         0.1448
     43 H18         6.8574   -4.8850    8.7323 H         1 <0>         0.1004
@<TRIPOS>BOND
     1    1    2 1
     2    1   26 1
     3    1   27 1
     4    1   28 1
     5    2    3 1
     6    3   12 ar
     7    3    4 ar
     8    4    5 ar
     9    4   29 1
    10    5    6 ar
    11    5   30 1
    12    6   11 ar
    13    6    7 ar
    14    7    8 ar
    15    7   31 1
    16    8   18 1
    17    8    9 ar
    18    9   10 ar
    19    9   15 1
    20   10   11 ar
    21   10   32 1
    22   11   12 ar
    23   12   13 1
    24   13   14 1
    25   14   33 1
    26   14   34 1
    27   14   35 1
    28   15   16 1
    29   15   36 1
    30   15   37 1
    31   16   17 1
    32   16   38 1
    33   16   39 1
    34   17   22 ar
    35   17   18 ar
    36   18   19 ar
    37   19   20 ar
    38   19   40 1
    39   20   25 1
    40   20   21 ar
    41   21   22 ar
    42   21   23 1
    43   22   41 1
    44   23   24 1
    45   24   25 1
    46   24   42 1
    47   24   43 1
@<TRIPOS>MOLECULE
ZINC00608233
   48    51     0     0     0
SMALL
USER_CHARGES

@<TRIPOS>ATOM
      1 C1         -0.0173    1.4248    0.0099 C.3       1 <0>         0.0137
      2 O1          0.0021   -0.0041    0.0020 O.3       1 <0>        -0.2890
      3 C2          0.6264   -0.6189    1.0424 C.ar      1 <0>         0.1412
      4 C3          1.2030    0.1518    2.0529 C.ar      1 <0>        -0.1195
      5 C4          1.8403   -0.4342    3.1052 C.ar      1 <0>        -0.0724
      6 C5          1.9226   -1.8319    3.1792 C.ar      1 <0>        -0.0085
      7 C6          2.5886   -2.4874    4.2270 C.ar      1 <0>        -0.0674
      8 C7          2.6312   -3.8696    4.2324 C.ar      1 <0>         0.1478
      9 N1          2.0063   -4.5930    3.2950 N.ar      1 <0>        -0.3314
     10 C8          1.3949   -4.0245    2.2770 C.ar      1 <0>         0.1961
     11 C9          1.3260   -2.6294    2.1659 C.ar      1 <0>        -0.0800
     12 C10         0.6768   -1.9991    1.0886 C.ar      1 <0>         0.0927
     13 O2          0.1095   -2.7400    0.1009 O.3       1 <0>        -0.3138
     14 C11         0.9365   -3.0752   -1.0153 C.3       1 <0>         0.0260
     15 C12         1.9472   -6.0551    3.4001 C.3       1 <0>         0.0539
     16 C13         3.2665   -6.6260    3.9104 C.3       1 <0>        -0.0980
     17 C14         3.6725   -5.9161    5.1756 C.ar      1 <0>        -0.0597
     18 C15         3.3653   -4.5638    5.3199 C.ar      1 <0>        -0.0916
     19 C16         3.7436   -3.8814    6.4723 C.ar      1 <0>        -0.1347
     20 C17         4.4177   -4.5550    7.4762 C.ar      1 <0>         0.1107
     21 C18         4.7136   -5.9080    7.3309 C.ar      1 <0>         0.1460
     22 C19         4.3394   -6.5847    6.1785 C.ar      1 <0>        -0.1657
     23 O3          5.3715   -6.5678    8.3208 O.3       1 <0>        -0.2925
     24 C20         5.6433   -7.9544    8.1069 C.3       1 <0>         0.0191
     25 O4          4.7917   -3.8950    8.6050 O.3       1 <0>        -0.2946
     26 C21         4.4562   -2.5083    8.6870 C.3       1 <0>         0.0200
     27 H1          1.0053    1.8021    0.0021 H         1 <0>         0.0666
     28 H2         -0.5445    1.7859   -0.8732 H         1 <0>         0.1177
     29 H3         -0.5275    1.7763    0.9067 H         1 <0>         0.0677
     30 H4          1.1435    1.2289    1.9999 H         1 <0>         0.1620
     31 H5          2.2809    0.1761    3.8796 H         1 <0>         0.1628
     32 H6          3.0605   -1.9210    5.0163 H         1 <0>         0.1804
     33 H7          0.9403   -4.6422    1.5166 H         1 <0>         0.2111
     34 H8          0.3622   -3.6665   -1.7285 H         1 <0>         0.1111
     35 H9          1.2840   -2.1615   -1.4974 H         1 <0>         0.0603
     36 H10         1.7942   -3.6533   -0.6713 H         1 <0>         0.0474
     37 H11         1.1484   -6.3318    4.0882 H         1 <0>         0.1299
     38 H12         1.7324   -6.4754    2.4176 H         1 <0>         0.1365
     39 H13         3.1463   -7.6900    4.1143 H         1 <0>         0.1261
     40 H14         4.0384   -6.4877    3.1533 H         1 <0>         0.1036
     41 H15         3.5122   -2.8323    6.5828 H         1 <0>         0.1487
     42 H16         4.5708   -7.6339    6.0681 H         1 <0>         0.1531
     43 H17         6.1709   -8.3587    8.9707 H         1 <0>         0.1124
     44 H18         4.7048   -8.4917    7.9702 H         1 <0>         0.0623
     45 H19         6.2614   -8.0703    7.2166 H         1 <0>         0.0623
     46 H20         4.9275   -1.9712    7.8639 H         1 <0>         0.0589
     47 H21         3.3742   -2.3920    8.6245 H         1 <0>         0.0591
     48 H22         4.8110   -2.1041    9.6350 H         1 <0>         0.1118
@<TRIPOS>BOND
     1    1    2 1
     2    1   27 1
     3    1   28 1
     4    1   29 1
     5    2    3 1
     6    3   12 ar
     7    3    4 ar
     8    4    5 ar
     9    4   30 1
    10    5    6 ar
    11    5   31 1
    12    6   11 ar
    13    6    7 ar
    14    7    8 ar
    15    7   32 1
    16    8   18 1
    17    8    9 ar
    18    9   10 ar
    19    9   15 1
    20   10   11 ar
    21   10   33 1
    22   11   12 ar
    23   12   13 1
    24   13   14 1
    25   14   34 1
    26   14   35 1
    27   14   36 1
    28   15   16 1
    29   15   37 1
    30   15   38 1
    31   16   17 1
    32   16   39 1
    33   16   40 1
    34   17   22 ar
    35   17   18 ar
    36   18   19 ar
    37   19   20 ar
    38   19   41 1
    39   20   21 ar
    40   20   25 1
    41   21   22 ar
    42   21   23 1
    43   22   42 1
    44   23   24 1
    45   24   43 1
    46   24   44 1
    47   24   45 1
    48   25   26 1
    49   26   46 1
    50   26   47 1
    51   26   48 1
@<TRIPOS>MOLECULE
ZINC14682001
   48    51     0     0     0
SMALL
USER_CHARGES
2,3,10,11-tetramethoxy-5,6-dihydroisoquinolino[3,2-a]isoquinolin-7-ium
@<TRIPOS>ATOM
      1 C1         -7.2247    0.8823   -1.1298 C.3       1 <0>         0.0133
      2 O1         -7.2069   -0.5252   -0.8834 O.3       1 <0>        -0.2828
      3 C2         -6.0009   -1.0883   -0.6098 C.ar      1 <0>         0.1963
      4 C3         -4.8816   -0.3058   -0.5820 C.ar      1 <0>        -0.2067
      5 C4         -3.6381   -0.8885   -0.2995 C.ar      1 <0>         0.0358
      6 C5         -2.4502   -0.1414   -0.2742 C.ar      1 <0>        -0.0895
      7 C6         -1.2596   -0.7861    0.0091 C.ar      1 <0>         0.1643
      8 N1         -1.2253   -2.0881    0.3175 N.ar      1 <0>        -0.3428
      9 C7         -2.3086   -2.8353    0.2847 C.ar      1 <0>         0.1853
     10 C8         -3.5577   -2.2809   -0.0279 C.ar      1 <0>        -0.0821
     11 C9         -4.7251   -3.0594   -0.0724 C.ar      1 <0>        -0.1648
     12 C10        -5.9206   -2.4665   -0.3589 C.ar      1 <0>         0.1515
     13 O2         -7.0498   -3.2220   -0.4013 O.3       1 <0>        -0.2873
     14 C11        -6.9060   -4.6191   -0.1374 C.3       1 <0>         0.0154
     15 C12         0.0298   -2.7180    0.7431 C.3       1 <0>         0.0569
     16 C13         1.2102   -2.1921   -0.0682 C.3       1 <0>        -0.0987
     17 C14         1.2184   -0.6860   -0.0338 C.ar      1 <0>        -0.0591
     18 C15         0.0021   -0.0041    0.0020 C.ar      1 <0>        -0.0932
     19 C16        -0.0168    1.3867    0.0097 C.ar      1 <0>        -0.1335
     20 C17         1.1759    2.0886    0.0020 C.ar      1 <0>         0.1098
     21 C18         2.3882    1.4026   -0.0203 C.ar      1 <0>         0.1462
     22 C19         2.4046    0.0152   -0.0401 C.ar      1 <0>        -0.1666
     23 O3          3.5585    2.0944   -0.0227 O.3       1 <0>        -0.2926
     24 C20         4.7647    1.3286   -0.0462 C.3       1 <0>         0.0191
     25 O4          1.1645    3.4485    0.0164 O.3       1 <0>        -0.2946
     26 C21        -0.1140    4.0863    0.0391 C.3       1 <0>         0.0201
     27 H1         -6.8474    1.4094   -0.2535 H         1 <0>         0.0689
     28 H2         -6.5940    1.1087   -1.9895 H         1 <0>         0.0691
     29 H3         -8.2464    1.2024   -1.3343 H         1 <0>         0.1193
     30 H4         -4.9540    0.7541   -0.7766 H         1 <0>         0.1659
     31 H5         -2.4655    0.9202   -0.4726 H         1 <0>         0.1759
     32 H6         -2.2341   -3.8907    0.5019 H         1 <0>         0.2082
     33 H7         -4.6775   -4.1212    0.1193 H         1 <0>         0.1659
     34 H8         -6.4970   -4.7596    0.8631 H         1 <0>         0.0666
     35 H9         -7.8803   -5.1034   -0.2030 H         1 <0>         0.1175
     36 H10        -6.2310   -5.0598   -0.8710 H         1 <0>         0.0665
     37 H11         0.1976   -2.5040    1.7986 H         1 <0>         0.1266
     38 H12        -0.0466   -3.7966    0.6054 H         1 <0>         0.1349
     39 H13         2.1399   -2.5697    0.3574 H         1 <0>         0.1248
     40 H14         1.1203   -2.5302   -1.1005 H         1 <0>         0.1033
     41 H15        -0.9579    1.9164    0.0170 H         1 <0>         0.1482
     42 H16         3.3457   -0.5142   -0.0601 H         1 <0>         0.1528
     43 H17         4.7867    0.7127   -0.9453 H         1 <0>         0.0623
     44 H18         5.6223    2.0014   -0.0456 H         1 <0>         0.1123
     45 H19         4.8053    0.6875    0.8344 H         1 <0>         0.0621
     46 H20         0.0197    5.1680    0.0488 H         1 <0>         0.1117
     47 H21        -0.6797    3.7980   -0.8469 H         1 <0>         0.0586
     48 H22        -0.6574    3.7794    0.9328 H         1 <0>         0.0589
@<TRIPOS>BOND
     1    1    2 1
     2    1   27 1
     3    1   28 1
     4    1   29 1
     5    2    3 1
     6    3   12 ar
     7    3    4 ar
     8    4    5 ar
     9    4   30 1
    10    5   10 ar
    11    5    6 ar
    12    6    7 ar
    13    6   31 1
    14    7   18 1
    15    7    8 ar
    16    8    9 ar
    17    8   15 1
    18    9   10 ar
    19    9   32 1
    20   10   11 ar
    21   11   12 ar
    22   11   33 1
    23   12   13 1
    24   13   14 1
    25   14   34 1
    26   14   35 1
    27   14   36 1
    28   15   16 1
    29   15   37 1
    30   15   38 1
    31   16   17 1
    32   16   39 1
    33   16   40 1
    34   17   22 ar
    35   17   18 ar
    36   18   19 ar
    37   19   20 ar
    38   19   41 1
    39   20   21 ar
    40   20   25 1
    41   21   22 ar
    42   21   23 1
    43   22   42 1
    44   23   24 1
    45   24   43 1
    46   24   44 1
    47   24   45 1
    48   25   26 1
    49   26   46 1
    50   26   47 1
    51   26   48 1
@<TRIPOS>MOLECULE
ZINC02841697
   55    57     0     0     0
SMALL
USER_CHARGES

@<TRIPOS>ATOM
      1 C1         -1.6334    0.7180   -6.0186 C.3       1 <0>        -0.1148
      2 C2         -1.5214   -0.7409   -5.6577 C.ar      1 <0>        -0.1097
      3 C3         -0.8695   -1.1169   -4.4976 C.ar      1 <0>        -0.0868
      4 C4         -0.7652   -2.4534   -4.1648 C.ar      1 <0>        -0.2006
      5 C5         -1.3155   -3.4190   -4.9955 C.ar      1 <0>         0.1120
      6 C6         -1.9693   -3.0392   -6.1584 C.ar      1 <0>        -0.1023
      7 C7         -2.0755   -1.7007   -6.4842 C.ar      1 <0>        -0.0831
      8 C8         -2.5682   -4.0853   -7.0629 C.3       1 <0>        -0.1085
      9 O1         -1.2138   -4.7346   -4.6705 O.3       1 <0>        -0.2885
     10 C9         -0.5266   -5.0522   -3.4585 C.3       1 <0>         0.0423
     11 C10        -0.5138   -6.5467   -3.2651 C.2       1 <0>         0.5215
     12 O2         -1.0412   -7.2688   -4.0845 O.2       1 <0>        -0.4875
     13 N1          0.0838   -7.0809   -2.1816 N.am      1 <0>        -0.6758
     14 C11         0.0125   -8.4593   -1.9515 C.ar      1 <0>         0.1869
     15 C12        -0.0760   -8.9444   -0.6533 C.ar      1 <0>        -0.1419
     16 C13        -0.1463  -10.3055   -0.4296 C.ar      1 <0>        -0.0743
     17 C14        -0.1285  -11.1849   -1.4967 C.ar      1 <0>        -0.1794
     18 C15        -0.0400  -10.7050   -2.7905 C.ar      1 <0>        -0.0701
     19 C16         0.0243   -9.3448   -3.0212 C.ar      1 <0>        -0.1198
     20 C17        -0.2053  -12.6694   -1.2489 C.3       1 <0>         0.0469
     21 N2         -1.6120  -13.0923   -1.2404 N.4       1 <0>        -0.3820
     22 C18        -2.3032  -12.4648   -0.1077 C.3       1 <0>        -0.0124
     23 C19        -3.7870  -12.8373   -0.1409 C.3       1 <0>        -0.1454
     24 C20        -3.9278  -14.3593   -0.0472 C.3       1 <0>        -0.1388
     25 C21        -3.1413  -15.0063   -1.1909 C.3       1 <0>        -0.1464
     26 C22        -1.6814  -14.5534   -1.1188 C.3       1 <0>        -0.0071
     27 H1         -2.5438    1.1309   -5.5843 H         1 <0>         0.0714
     28 H2         -0.7689    1.2559   -5.6296 H         1 <0>         0.0673
     29 H3         -1.6684    0.8223   -7.1031 H         1 <0>         0.0681
     30 H4         -0.4413   -0.3649   -3.8514 H         1 <0>         0.1273
     31 H5         -0.2553   -2.7466   -3.2590 H         1 <0>         0.1264
     32 H6         -2.5880   -1.4042   -7.3874 H         1 <0>         0.1325
     33 H7         -3.5984   -4.2779   -6.7634 H         1 <0>         0.0695
     34 H8         -2.5497   -3.7288   -8.0928 H         1 <0>         0.0677
     35 H9         -1.9895   -5.0059   -6.9866 H         1 <0>         0.0711
     36 H10         0.4979   -4.6843   -3.5146 H         1 <0>         0.1004
     37 H11        -1.0362   -4.5814   -2.6178 H         1 <0>         0.1003
     38 H12         0.5633   -6.5098   -1.5612 H         1 <0>         0.4204
     39 H13        -0.0896   -8.2581    0.1805 H         1 <0>         0.1401
     40 H14        -0.2147  -10.6834    0.5798 H         1 <0>         0.1359
     41 H15        -0.0259  -11.3944   -3.6217 H         1 <0>         0.1356
     42 H16         0.0883   -8.9704   -4.0322 H         1 <0>         0.1516
     43 H17         0.3282  -13.1977   -2.0391 H         1 <0>         0.1365
     44 H18         0.2496  -12.9010   -0.2858 H         1 <0>         0.1345
     45 H19        -1.8620  -12.8147    0.8256 H         1 <0>         0.1272
     46 H20        -2.1994  -11.3818   -0.1740 H         1 <0>         0.1301
     47 H21        -4.2980  -12.3719    0.7019 H         1 <0>         0.1105
     48 H22        -4.2293  -12.4876   -1.0737 H         1 <0>         0.0865
     49 H23        -3.5318  -14.7039    0.9081 H         1 <0>         0.0815
     50 H24        -4.9797  -14.6337   -0.1273 H         1 <0>         0.0935
     51 H25        -3.1908  -16.0912   -1.0986 H         1 <0>         0.1120
     52 H26        -3.5702  -14.7016   -2.1455 H         1 <0>         0.0872
     53 H27        -1.1185  -15.0123   -1.9316 H         1 <0>         0.1301
     54 H28        -1.2535  -14.8588   -0.1639 H         1 <0>         0.1284
     55 H29        -2.0534  -12.8061   -2.1014 H         1 <0>         0.4219
@<TRIPOS>BOND
     1    1    2 1
     2    1   27 1
     3    1   28 1
     4    1   29 1
     5    2    7 ar
     6    2    3 ar
     7    3    4 ar
     8    3   30 1
     9    4    5 ar
    10    4   31 1
    11    5    6 ar
    12    5    9 1
    13    6    7 ar
    14    6    8 1
    15    7   32 1
    16    8   33 1
    17    8   34 1
    18    8   35 1
    19    9   10 1
    20   10   11 1
    21   10   36 1
    22   10   37 1
    23   11   12 2
    24   11   13 am
    25   13   14 1
    26   13   38 1
    27   14   19 ar
    28   14   15 ar
    29   15   16 ar
    30   15   39 1
    31   16   17 ar
    32   16   40 1
    33   17   18 ar
    34   17   20 1
    35   18   19 ar
    36   18   41 1
    37   19   42 1
    38   20   21 1
    39   20   43 1
    40   20   44 1
    41   21   26 1
    42   21   22 1
    43   21   55 1
    44   22   23 1
    45   22   45 1
    46   22   46 1
    47   23   24 1
    48   23   47 1
    49   23   48 1
    50   24   25 1
    51   24   49 1
    52   24   50 1
    53   25   26 1
    54   25   51 1
    55   25   52 1
    56   26   53 1
    57   26   54 1
@<TRIPOS>MOLECULE
ZINC00815215
   48    50     0     0     0
SMALL
NO_CHARGES

@<TRIPOS>ATOM
      1 C1         -1.4982   -0.3395   -0.0904 C.3       1 <0>        -0.1769
      2 C2          0.0113   -0.1404    0.0602 C.3       1 <0>        -0.0094
      3 N1          0.6914   -0.6179   -1.1512 N.4       1 <0>        -0.2902
      4 C3          2.1303   -0.3415   -1.0461 C.3       1 <0>        -0.0076
      5 C4          2.8226   -0.7383   -2.3516 C.3       1 <0>        -0.1749
      6 C5          0.4901   -1.9947   -1.2866 C.ar      1 <0>        -0.1902
      7 C6          0.9202   -2.8558   -0.2936 C.ar      1 <0>        -0.0892
      8 C7          0.7229   -4.2164   -0.4243 C.ar      1 <0>        -0.1278
      9 C8          0.0913   -4.7197   -1.5543 C.ar      1 <0>         0.0859
     10 C9         -0.3400   -3.8521   -2.5495 C.ar      1 <0>        -0.0968
     11 C10        -0.1438   -2.4921   -2.4104 C.ar      1 <0>        -0.0998
     12 N2         -0.1097   -6.0969   -1.6899 N.am      1 <0>        -0.6252
     13 C11        -0.0482   -6.6701   -2.9081 C.2       1 <0>         0.5635
     14 O1          0.2720   -6.0081   -3.8757 O.2       1 <0>        -0.5214
     15 C12        -0.3709   -8.1066   -3.0676 C.2       1 <0>         0.1841
     16 N3         -0.7391   -8.9289   -2.0828 N.2       1 <0>        -0.5201
     17 C13        -0.9527  -10.1427   -2.5692 C.2       1 <0>         0.4526
     18 N4         -1.3310  -11.2919   -1.9935 N.2       1 <0>        -0.4868
     19 C14        -1.4771  -12.3855   -2.7046 C.2       1 <0>         0.2137
     20 C15        -1.2384  -12.3696   -4.0857 C.2       1 <0>        -0.2083
     21 C16        -0.8548  -11.2114   -4.6794 C.2       1 <0>         0.0341
     22 N5         -0.7117  -10.0932   -3.9156 N.pl3     1 <0>        -0.2886
     23 N6         -0.3451   -8.7728   -4.2069 N.2       1 <0>        -0.2880
     24 C17        -0.5910  -11.1632   -6.1623 C.3       1 <0>         0.3336
     25 F1         -0.8061  -12.4300   -6.7157 F         1 <0>        -0.1866
     26 F2         -1.4558  -10.2403   -6.7601 F         1 <0>        -0.1866
     27 C18        -1.9032  -13.6652   -2.0324 C.3       1 <0>        -0.1039
     28 H1         -1.8689    0.2901   -0.8992 H         1 <0>         0.0690
     29 H2         -1.7057   -1.3848   -0.3193 H         1 <0>         0.0883
     30 H3         -1.9954   -0.0658    0.8402 H         1 <0>         0.0901
     31 H4          0.2256    0.9187    0.2036 H         1 <0>         0.1111
     32 H5          0.3678   -0.7033    0.9228 H         1 <0>         0.1178
     33 H6          2.2835    0.7220   -0.8624 H         1 <0>         0.1111
     34 H7          2.5517   -0.9170   -0.2219 H         1 <0>         0.1181
     35 H8          2.7464   -1.8168   -2.4899 H         1 <0>         0.0870
     36 H9          2.3414   -0.2300   -3.1871 H         1 <0>         0.0694
     37 H10         3.8731   -0.4510   -2.3077 H         1 <0>         0.0898
     38 H11         1.4113   -2.4638    0.5848 H         1 <0>         0.1120
     39 H12         1.0597   -4.8884    0.3512 H         1 <0>         0.1206
     40 H13        -0.8314   -4.2402   -3.4294 H         1 <0>         0.1302
     41 H14        -0.4822   -1.8166   -3.1822 H         1 <0>         0.1134
     42 H15        -0.2933   -6.6396   -0.9072 H         1 <0>         0.4159
     43 H16        -1.3582  -13.2694   -4.6709 H         1 <0>         0.1666
     44 H17         0.4413  -10.8605   -6.3381 H         1 <0>         0.1282
     45 H18        -2.0407  -13.4871   -0.9659 H         1 <0>         0.0845
     46 H19        -2.8416  -14.0091   -2.4673 H         1 <0>         0.0878
     47 H20        -1.1354  -14.4251   -2.1779 H         1 <0>         0.0882
     48 H21         0.3155   -0.1422   -1.9577 H         1 <0>         0.4114
@<TRIPOS>BOND
     1    1    2 1
     2    1   28 1
     3    1   29 1
     4    1   30 1
     5    2    3 1
     6    2   31 1
     7    2   32 1
     8    3    4 1
     9    3    6 1
    10    3   48 1
    11    4    5 1
    12    4   33 1
    13    4   34 1
    14    5   35 1
    15    5   36 1
    16    5   37 1
    17    6   11 ar
    18    6    7 ar
    19    7    8 ar
    20    7   38 1
    21    8    9 ar
    22    8   39 1
    23    9   10 ar
    24    9   12 1
    25   10   11 ar
    26   10   40 1
    27   11   41 1
    28   12   13 am
    29   12   42 1
    30   13   14 2
    31   13   15 1
    32   15   23 2
    33   15   16 1
    34   16   17 2
    35   17   22 1
    36   17   18 1
    37   18   19 2
    38   19   20 1
    39   19   27 1
    40   20   21 2
    41   20   43 1
    42   21   22 1
    43   21   24 1
    44   22   23 1
    45   24   25 1
    46   24   26 1
    47   24   44 1
    48   27   45 1
    49   27   46 1
    50   27   47 1
@<TRIPOS>MOLECULE
ZINC00815215
   47    49     0     0     0
SMALL
USER_CHARGES

@<TRIPOS>ATOM
      1 C1         -0.0536    1.3496   -0.2351 C.3       1 <0>        -0.1732
      2 C2         -0.0267   -0.1652   -0.0216 C.3       1 <0>         0.1182
      3 N1          0.7139   -0.4725    1.2046 N.pl3     1 <0>        -0.6274
      4 C3          0.0084   -0.5510    2.4861 C.3       1 <0>         0.1181
      5 C4         -0.4681   -1.9861    2.7189 C.3       1 <0>        -0.1739
      6 C5          2.0946   -0.6909    1.1517 C.ar      1 <0>         0.2126
      7 C6          2.7644   -0.6108   -0.0625 C.ar      1 <0>        -0.1797
      8 C7          4.1271   -0.8259   -0.1145 C.ar      1 <0>        -0.0848
      9 C8          4.8281   -1.1228    1.0470 C.ar      1 <0>         0.0780
     10 C9          4.1584   -1.2033    2.2609 C.ar      1 <0>        -0.0667
     11 C10         2.7967   -0.9822    2.3141 C.ar      1 <0>        -0.1784
     12 N2          6.2105   -1.3414    0.9940 N.am      1 <0>        -0.6394
     13 C11         6.7856   -2.2252    1.8335 C.2       1 <0>         0.6110
     14 O1          6.0949   -2.9021    2.5698 O.2       1 <0>        -0.4851
     15 C12         8.2590   -2.3716    1.8587 C.2       1 <0>         0.2429
     16 N3          9.1162   -1.6813    1.1035 N.2       1 <0>        -0.4933
     17 C13        10.3571   -2.0573    1.3768 C.2       1 <0>         0.4569
     18 N4         11.5449   -1.6680    0.8945 N.2       1 <0>        -0.4378
     19 C14        12.6594   -2.2026    1.3362 C.2       1 <0>         0.2417
     20 C15        12.6255   -3.1952    2.3252 C.2       1 <0>        -0.1679
     21 C16        11.4282   -3.5972    2.8210 C.2       1 <0>         0.1177
     22 N5         10.2892   -3.0242    2.3431 N.pl3     1 <0>        -0.3185
     23 N6          8.9304   -3.2010    2.6357 N.2       1 <0>        -0.2564
     24 C17        11.3599   -4.6627    3.8846 C.3       1 <0>         0.3243
     25 F1         12.6542   -5.0879    4.2025 F         1 <0>        -0.1763
     26 F2         10.7462   -4.1411    5.0285 F         1 <0>        -0.1738
     27 C18        13.9824   -1.7471    0.7765 C.3       1 <0>        -0.1143
     28 H1          0.9669    1.7222   -0.3239 H         1 <0>         0.0591
     29 H2         -0.6045    1.5782   -1.1474 H         1 <0>         0.0639
     30 H3         -0.5423    1.8276    0.6139 H         1 <0>         0.0558
     31 H4         -1.0471   -0.5378    0.0672 H         1 <0>         0.0731
     32 H5          0.4620   -0.6432   -0.8706 H         1 <0>         0.0754
     33 H6          0.6826   -0.2570    3.2906 H         1 <0>         0.0757
     34 H7         -0.8512    0.1190    2.4693 H         1 <0>         0.0733
     35 H8          0.3915   -2.6561    2.7357 H         1 <0>         0.0596
     36 H9         -0.9929   -2.0446    3.6724 H         1 <0>         0.0641
     37 H10        -1.1422   -2.2801    1.9145 H         1 <0>         0.0557
     38 H11         2.2191   -0.3806   -0.9659 H         1 <0>         0.1282
     39 H12         4.6479   -0.7636   -1.0586 H         1 <0>         0.1273
     40 H13         4.7036   -1.4346    3.1641 H         1 <0>         0.1331
     41 H14         2.2766   -1.0405    3.2589 H         1 <0>         0.1271
     42 H15         6.7539   -0.8568    0.3532 H         1 <0>         0.4212
     43 H16        13.5424   -3.6354    2.6885 H         1 <0>         0.1901
     44 H17        10.7801   -5.5085    3.5149 H         1 <0>         0.1448
     45 H18        13.8128   -0.9768    0.0242 H         1 <0>         0.0951
     46 H19        14.5965   -1.3410    1.5803 H         1 <0>         0.1013
     47 H20        14.4948   -2.5941    0.3202 H         1 <0>         0.1015
@<TRIPOS>BOND
     1    1    2 1
     2    1   28 1
     3    1   29 1
     4    1   30 1
     5    2    3 1
     6    2   31 1
     7    2   32 1
     8    3    4 1
     9    3    6 1
    10    4    5 1
    11    4   33 1
    12    4   34 1
    13    5   35 1
    14    5   36 1
    15    5   37 1
    16    6   11 ar
    17    6    7 ar
    18    7    8 ar
    19    7   38 1
    20    8    9 ar
    21    8   39 1
    22    9   10 ar
    23    9   12 1
    24   10   11 ar
    25   10   40 1
    26   11   41 1
    27   12   13 am
    28   12   42 1
    29   13   14 2
    30   13   15 1
    31   15   23 2
    32   15   16 1
    33   16   17 2
    34   17   22 1
    35   17   18 1
    36   18   19 2
    37   19   20 1
    38   19   27 1
    39   20   21 2
    40   20   43 1
    41   21   22 1
    42   21   24 1
    43   22   23 1
    44   24   25 1
    45   24   26 1
    46   24   44 1
    47   27   45 1
    48   27   46 1
    49   27   47 1
@<TRIPOS>MOLECULE
ZINC00491073
   43    46     0     0     0
SMALL
USER_CHARGES

@<TRIPOS>ATOM
      1 C1         -0.0178    1.4648    0.0101 C.3       1 <0>        -0.0508
      2 N1          0.0021   -0.0041    0.0020 N.4       1 <0>        -0.3695
      3 C2         -1.3487   -0.4766   -0.1051 C.3       1 <0>        -0.0209
      4 C3         -1.4957   -1.8208   -0.7552 C.3       1 <0>        -0.1240
      5 C4         -1.1986   -2.9607    0.1979 C.3       1 <0>        -0.0106
      6 C5         -2.0769   -2.9074    1.4042 C.2       1 <0>        -0.1408
      7 C6         -2.9213   -3.8188    1.7532 C.2       1 <0>        -0.1505
      8 C7         -3.1380   -5.0863    0.9901 C.3       1 <0>         0.1315
      9 H1         -4.2051   -5.3069    0.9636 H         1 <0>         0.0752
     10 C8         -2.6198   -4.9844   -0.4299 C.3       1 <0>        -0.1186
     11 C9         -1.2869   -4.2969   -0.5425 C.3       1 <0>         0.0975
     12 H2         -1.0674   -4.1273   -1.5966 H         1 <0>         0.0880
     13 O1         -0.2232   -5.0787    0.0155 O.3       1 <0>        -0.2581
     14 C10         0.7233   -4.2458    0.5013 C.ar      1 <0>         0.0952
     15 C11         0.2527   -2.9329    0.6428 C.ar      1 <0>        -0.1178
     16 C12         1.0216   -1.9269    1.1409 C.ar      1 <0>        -0.1302
     17 C13         2.3121   -2.2785    1.5668 C.ar      1 <0>        -0.0934
     18 C14         2.7995   -3.5564    1.4290 C.ar      1 <0>        -0.1641
     19 C15         2.0296   -4.5760    0.8827 C.ar      1 <0>         0.1377
     20 O2          2.5209   -5.8345    0.7267 O.3       1 <0>        -0.2954
     21 C16         3.8668   -6.0626    1.1493 C.3       1 <0>         0.0215
     22 C17         0.7068   -0.4603    1.1832 C.3       1 <0>         0.0520
     23 O3         -2.4591   -6.1527    1.6564 O.3       1 <0>        -0.5466
     24 H3          1.0047    1.8421    0.0024 H         1 <0>         0.1273
     25 H4         -0.5450    1.8259   -0.8730 H         1 <0>         0.1278
     26 H5         -0.5280    1.8163    0.9069 H         1 <0>         0.1247
     27 H6         -1.7753   -0.5300    0.8966 H         1 <0>         0.1288
     28 H7         -1.9228    0.2491   -0.6812 H         1 <0>         0.1383
     29 H8         -2.5166   -1.9252   -1.1226 H         1 <0>         0.1215
     30 H9         -0.8106   -1.8805   -1.6009 H         1 <0>         0.0938
     31 H10        -1.9990   -2.0352    2.0363 H         1 <0>         0.1089
     32 H11        -3.5045   -3.6570    2.6477 H         1 <0>         0.1222
     33 H12        -2.5282   -5.9902   -0.8398 H         1 <0>         0.1019
     34 H13        -3.3468   -4.4337   -1.0268 H         1 <0>         0.1027
     35 H14         2.9401   -1.5233    2.0159 H         1 <0>         0.1374
     36 H15         3.8066   -3.7734    1.7533 H         1 <0>         0.1450
     37 H16         4.5389   -5.4141    0.5873 H         1 <0>         0.0614
     38 H17         3.9556   -5.8433    2.2133 H         1 <0>         0.0618
     39 H18         4.1324   -7.1043    0.9696 H         1 <0>         0.1116
     40 H19         1.6391    0.0971    1.2738 H         1 <0>         0.1432
     41 H20         0.0917   -0.2576    2.0600 H         1 <0>         0.1319
     42 H21        -2.7602   -6.3053    2.5625 H         1 <0>         0.3809
     43 H22         0.5116   -0.3113   -0.8129 H         1 <0>         0.4218
@<TRIPOS>BOND
     1    1    2 1
     2    1   24 1
     3    1   25 1
     4    1   26 1
     5    2   22 1
     6    2    3 1
     7    2   43 1
     8    3    4 1
     9    3   27 1
    10    3   28 1
    11    4    5 1
    12    4   29 1
    13    4   30 1
    14    5   11 1
    15    5   15 1
    16    5    6 1
    17    6    7 2
    18    6   31 1
    19    7    8 1
    20    7   32 1
    21    8    9 1
    22    8   10 1
    23    8   23 1
    24   10   11 1
    25   10   33 1
    26   10   34 1
    27   11   12 1
    28   11   13 1
    29   13   14 1
    30   14   19 ar
    31   14   15 ar
    32   15   16 ar
    33   16   17 ar
    34   16   22 1
    35   17   18 ar
    36   17   35 1
    37   18   19 ar
    38   18   36 1
    39   19   20 1
    40   20   21 1
    41   21   37 1
    42   21   38 1
    43   21   39 1
    44   22   40 1
    45   22   41 1
    46   23   42 1
@<TRIPOS>MOLECULE
ZINC66252178
   29    31     0     0     0
SMALL
USER_CHARGES

@<TRIPOS>ATOM
      1 C1         -0.0169    1.3954    0.0097 C.ar      1 <0>         0.0444
      2 C2          1.2046    2.0652    0.0016 C.ar      1 <0>        -0.0935
      3 C3          2.3975    1.3199   -0.0129 C.ar      1 <0>         0.2774
      4 N1          2.3869    0.0098   -0.0199 N.ar      1 <0>        -0.4585
      5 C4          1.2437   -0.6866   -0.0143 C.ar      1 <0>         0.3920
      6 C5          0.0021   -0.0041    0.0020 C.ar      1 <0>        -0.2177
      7 C6         -1.1912   -0.7612    0.0111 C.ar      1 <0>         0.3009
      8 C7         -1.0939   -2.1510   -0.0014 C.ar      1 <0>        -0.2300
      9 C8          0.1525   -2.7479   -0.0234 C.ar      1 <0>         0.2557
     10 N2          1.2576   -2.0194   -0.0248 N.ar      1 <0>        -0.5184
     11 C9          0.3222   -4.2471   -0.0555 C.3       1 <0>        -0.0771
     12 C10        -0.9620   -4.9433    0.3881 C.3       1 <0>        -0.1204
     13 C11        -2.1280   -4.3788   -0.4320 C.3       1 <0>        -0.1210
     14 C12        -2.3764   -2.9394    0.0145 C.3       1 <0>        -0.0661
     15 N3         -2.4266   -0.1372    0.0324 N.pl3     1 <0>        -0.8388
     16 Cl1         3.9192    2.1555   -0.0224 Cl        1 <0>         0.0018
     17 C13         1.2454    3.4966    0.0076 C.1       1 <0>         0.2509
     18 N4          1.2778    4.6321    0.0124 N.1       1 <0>        -0.3842
     19 H1         -0.9498    1.9393    0.0260 H         1 <0>         0.1542
     20 H2          0.5679   -4.5592   -1.0706 H         1 <0>         0.0955
     21 H3          1.1344   -4.5312    0.6136 H         1 <0>         0.0958
     22 H4         -0.8765   -6.0158    0.2133 H         1 <0>         0.0788
     23 H5         -1.1340   -4.7542    1.4477 H         1 <0>         0.0700
     24 H6         -1.8739   -4.3961   -1.4918 H         1 <0>         0.0696
     25 H7         -3.0226   -4.9769   -0.2584 H         1 <0>         0.0739
     26 H8         -2.7841   -2.9420    1.0254 H         1 <0>         0.0762
     27 H9         -3.0937   -2.4725   -0.6605 H         1 <0>         0.0697
     28 H10        -2.4807    0.8312    0.0413 H         1 <0>         0.4056
     29 H11        -3.2382   -0.6684    0.0385 H         1 <0>         0.4133
@<TRIPOS>BOND
     1    1    6 ar
     2    1    2 ar
     3    1   19 1
     4    2    3 ar
     5    2   17 1
     6    3    4 ar
     7    3   16 1
     8    4    5 ar
     9    5   10 ar
    10    5    6 ar
    11    6    7 ar
    12    7    8 ar
    13    7   15 1
    14    8   14 1
    15    8    9 ar
    16    9   10 ar
    17    9   11 1
    18   11   12 1
    19   11   20 1
    20   11   21 1
    21   12   13 1
    22   12   22 1
    23   12   23 1
    24   13   14 1
    25   13   24 1
    26   13   25 1
    27   14   26 1
    28   14   27 1
    29   15   28 1
    30   15   29 1
    31   17   18 3
@<TRIPOS>MOLECULE
ZINC66251858
   41    44     0     0     0
SMALL
USER_CHARGES

@<TRIPOS>ATOM
      1 C1         -0.0167    1.3781    0.0096 C.ar      1 <0>        -0.1175
      2 C2          1.1709    2.0855    0.0021 C.ar      1 <0>        -0.1197
      3 C3          2.3773    1.4107   -0.0130 C.ar      1 <0>        -0.1157
      4 C4          2.3960    0.0285   -0.0201 C.ar      1 <0>        -0.0815
      5 C5          1.2084   -0.6789   -0.0117 C.ar      1 <0>        -0.0969
      6 C6          0.0021   -0.0041    0.0020 C.ar      1 <0>        -0.1201
      7 C7          3.7112   -0.7071   -0.0376 C.3       1 <0>         0.0931
      8 N1          4.1530   -0.9531    1.3416 N.3       1 <0>        -0.5244
      9 C8          4.4913    0.3082    2.0198 C.3       1 <0>         0.0442
     10 C9          4.5805    0.0438    3.5224 C.3       1 <0>        -0.0697
     11 C10         5.4840   -1.1372    3.7859 C.ar      1 <0>         0.2645
     12 C11         5.8100   -2.0277    2.7782 C.ar      1 <0>        -0.2329
     13 C12         6.6402   -3.1089    3.0575 C.ar      1 <0>         0.3066
     14 C13         7.1282   -3.2542    4.3765 C.ar      1 <0>        -0.2161
     15 C14         7.9686   -4.3156    4.7335 C.ar      1 <0>         0.0447
     16 C15         8.4068   -4.3860    6.0536 C.ar      1 <0>        -0.0927
     17 C16         7.9945   -3.4000    6.9688 C.ar      1 <0>         0.2778
     18 N2          7.2070   -2.4173    6.6084 N.ar      1 <0>        -0.4580
     19 C17         6.7541   -2.2995    5.3540 C.ar      1 <0>         0.3937
     20 N3          5.9517   -1.2903    5.0121 N.ar      1 <0>        -0.5156
     21 Cl1         8.5417   -3.4883    8.6139 Cl        1 <0>         0.0024
     22 C18         9.2672   -5.4503    6.4750 C.1       1 <0>         0.2506
     23 N4          9.9498   -6.2947    6.8092 N.1       1 <0>        -0.3835
     24 N5          6.9789   -4.0182    2.0703 N.pl3     1 <0>        -0.8388
     25 C19         5.2995   -1.8667    1.3711 C.3       1 <0>         0.1112
     26 H1         -0.9591    1.9053    0.0259 H         1 <0>         0.1214
     27 H2          1.1563    3.1654    0.0076 H         1 <0>         0.1222
     28 H3          3.3051    1.9634   -0.0196 H         1 <0>         0.1197
     29 H4          1.2231   -1.7588   -0.0176 H         1 <0>         0.1219
     30 H5         -0.9258   -0.5567    0.0082 H         1 <0>         0.1221
     31 H6          3.5884   -1.6586   -0.5549 H         1 <0>         0.0862
     32 H7          4.4573   -0.1052   -0.5563 H         1 <0>         0.0482
     33 H8          5.4511    0.6740    1.6550 H         1 <0>         0.0450
     34 H9          3.7158    1.0487    1.8239 H         1 <0>         0.0965
     35 H10         4.9825    0.9254    4.0217 H         1 <0>         0.1003
     36 H11         3.5849   -0.1683    3.9121 H         1 <0>         0.1039
     37 H12         8.2675   -5.0573    4.0075 H         1 <0>         0.1548
     38 H13         6.6365   -3.9063    1.1696 H         1 <0>         0.4125
     39 H14         7.5586   -4.7673    2.2792 H         1 <0>         0.4068
     40 H15         4.9942   -2.8395    0.9857 H         1 <0>         0.0837
     41 H16         6.0954   -1.4656    0.7436 H         1 <0>         0.0490
@<TRIPOS>BOND
     1    1    6 ar
     2    1    2 ar
     3    1   26 1
     4    2    3 ar
     5    2   27 1
     6    3    4 ar
     7    3   28 1
     8    4    5 ar
     9    4    7 1
    10    5    6 ar
    11    5   29 1
    12    6   30 1
    13    7    8 1
    14    7   31 1
    15    7   32 1
    16    8   25 1
    17    8    9 1
    18    9   10 1
    19    9   33 1
    20    9   34 1
    21   10   11 1
    22   10   35 1
    23   10   36 1
    24   11   20 ar
    25   11   12 ar
    26   12   13 ar
    27   12   25 1
    28   13   14 ar
    29   13   24 1
    30   14   19 ar
    31   14   15 ar
    32   15   16 ar
    33   15   37 1
    34   16   17 ar
    35   16   22 1
    36   17   18 ar
    37   17   21 1
    38   18   19 ar
    39   19   20 ar
    40   22   23 3
    41   24   38 1
    42   24   39 1
    43   25   40 1
    44   25   41 1
@<TRIPOS>MOLECULE
ZINC09848627
   65    68     0     0     0
SMALL
USER_CHARGES
N-[3-(3,5-dimethyl-1-piperidyl)propyl]-2-(ethyl-methyl-oxo-BLAHyl)-acetamide
@<TRIPOS>ATOM
      1 C1         -0.0127    1.0858    0.0080 C.3       1 <0>        -0.1392
      2 C2         -0.7288    1.5792    1.2668 C.3       1 <0>        -0.0667
      3 C3         -2.1427    1.0576    1.2775 C.2       1 <0>         0.3337
      4 N1         -2.5491    0.3215    0.3001 N.2       1 <0>        -0.2623
      5 N2         -3.8444   -0.2018    0.2466 N.am      1 <0>        -0.4296
      6 C4         -4.7259    0.0678    1.2359 C.2       1 <0>         0.5734
      7 O1         -5.8607   -0.3745    1.2038 O.2       1 <0>        -0.5036
      8 C5         -4.2741    0.9090    2.3477 C.2       1 <0>        -0.0259
      9 N3         -2.9733    1.3841    2.3309 N.pl3     1 <0>        -0.4032
     10 C6         -2.7567    2.1535    3.4693 C.2       1 <0>         0.0763
     11 C7         -1.7186    2.8945    4.0545 C.2       1 <0>        -0.1606
     12 C8         -1.9180    3.5292    5.2274 C.2       1 <0>        -0.0990
     13 S1         -3.6146    3.1261    5.6070 S.3       1 <0>         0.1222
     14 C9         -3.9640    2.1323    4.1788 C.2       1 <0>        -0.1927
     15 C10        -4.8917    1.3676    3.4868 C.2       1 <0>        -0.0209
     16 C11        -0.9497    4.3690    6.0201 C.3       1 <0>        -0.0759
     17 C12        -4.2493   -1.0380   -0.8861 C.3       1 <0>         0.1216
     18 C13        -4.8202   -0.1667   -1.9750 C.2       1 <0>         0.5039
     19 O2         -4.8827    1.0346   -1.8202 O.2       1 <0>        -0.5138
     20 N4         -5.2614   -0.7223   -3.1209 N.am      1 <0>        -0.7348
     21 C14        -5.8164    0.1247   -4.1796 C.3       1 <0>         0.1254
     22 C15        -6.2393   -0.7486   -5.3625 C.3       1 <0>        -0.1637
     23 C16        -6.8189    0.1360   -6.4681 C.3       1 <0>        -0.0020
     24 C17        -6.0595   -1.3376   -8.2322 C.3       1 <0>        -0.0053
     25 C18        -6.5297   -2.3130   -9.3137 C.3       1 <0>        -0.1134
     26 H1         -7.1498   -3.0870   -8.8617 H         1 <0>         0.0949
     27 C19        -7.3459   -1.5510  -10.3614 C.3       1 <0>        -0.1297
     28 C20        -8.5260   -0.8592   -9.6734 C.3       1 <0>        -0.1146
     29 H2         -9.0872   -0.2802  -10.4068 H         1 <0>         0.1197
     30 C21        -7.9980    0.0740   -8.5815 C.3       1 <0>         0.0013
     31 C22        -9.4409   -1.9130   -9.0461 C.3       1 <0>        -0.1709
     32 C23        -5.3145   -2.9580   -9.9831 C.3       1 <0>        -0.1518
     33 H3          0.0021   -0.0041    0.0020 H         1 <0>         0.0664
     34 H4          1.0099    1.4631    0.0003 H         1 <0>         0.0711
     35 H5         -0.5399    1.4469   -0.8751 H         1 <0>         0.0647
     36 H6         -0.2017    1.2182    2.1499 H         1 <0>         0.1030
     37 H7         -0.7436    2.6691    1.2728 H         1 <0>         0.1019
     38 H8         -0.7582    2.9567    3.5644 H         1 <0>         0.1394
     39 H9         -5.9099    1.1692    3.7873 H         1 <0>         0.1690
     40 H10        -1.4393    4.7328    6.9235 H         1 <0>         0.0810
     41 H11        -0.0845    3.7651    6.2937 H         1 <0>         0.0888
     42 H12        -0.6250    5.2165    5.4164 H         1 <0>         0.0884
     43 H13        -3.3821   -1.5763   -1.2686 H         1 <0>         0.1282
     44 H14        -5.0048   -1.7522   -0.5586 H         1 <0>         0.1305
     45 H15        -5.2114   -1.6831   -3.2447 H         1 <0>         0.4049
     46 H16        -6.6836    0.6630   -3.7970 H         1 <0>         0.0787
     47 H17        -5.0608    0.8389   -4.5070 H         1 <0>         0.0786
     48 H18        -5.3721   -1.2869   -5.7450 H         1 <0>         0.0953
     49 H19        -6.9948   -1.4628   -5.0350 H         1 <0>         0.0951
     50 H20        -7.6861    0.6743   -6.0855 H         1 <0>         0.1343
     51 H21        -6.0634    0.8502   -6.7955 H         1 <0>         0.1360
     52 H22        -5.4279   -0.5722   -8.6832 H         1 <0>         0.1316
     53 H23        -5.4900   -1.8795   -7.4771 H         1 <0>         0.1282
     54 H24        -7.7194   -2.2491  -11.1106 H         1 <0>         0.0949
     55 H25        -6.7149   -0.8031  -10.8415 H         1 <0>         0.0833
     56 H26        -8.8364    0.5574   -8.0800 H         1 <0>         0.1296
     57 H27        -7.3573    0.8328   -9.0308 H         1 <0>         0.1320
     58 H28       -10.2789   -1.4199   -8.5535 H         1 <0>         0.0737
     59 H29        -9.8167   -2.5774   -9.8243 H         1 <0>         0.0854
     60 H30        -8.8788   -2.4926   -8.3138 H         1 <0>         0.0506
     61 H31        -4.6940   -2.1834  -10.4337 H         1 <0>         0.0674
     62 H32        -4.7338   -3.5003   -9.2368 H         1 <0>         0.0680
     63 H33        -5.6499   -3.6500  -10.7556 H         1 <0>         0.0777
     64 N5         -7.2426   -0.7239   -7.5924 N.4       1 <0>        -0.3946
     65 H34        -7.8502   -1.4689   -7.2317 H         1 <0>         0.4248
@<TRIPOS>BOND
     1    1    2 1
     2    1   33 1
     3    1   34 1
     4    1   35 1
     5    2    3 1
     6    2   36 1
     7    2   37 1
     8    3    9 1
     9    3    4 2
    10    4    5 1
    11    5    6 am
    12    5   17 1
    13    6    7 2
    14    6    8 1
    15    8   15 2
    16    8    9 1
    17    9   10 1
    18   10   14 2
    19   10   11 1
    20   11   12 2
    21   11   38 1
    22   12   13 1
    23   12   16 1
    24   13   14 1
    25   14   15 1
    26   15   39 1
    27   16   40 1
    28   16   41 1
    29   16   42 1
    30   17   18 1
    31   17   43 1
    32   17   44 1
    33   18   19 2
    34   18   20 am
    35   20   21 1
    36   20   45 1
    37   21   22 1
    38   21   46 1
    39   21   47 1
    40   22   23 1
    41   22   48 1
    42   22   49 1
    43   23   50 1
    44   23   51 1
    45   23   64 1
    46   24   25 1
    47   24   52 1
    48   24   53 1
    49   24   64 1
    50   25   26 1
    51   25   27 1
    52   25   32 1
    53   27   28 1
    54   27   54 1
    55   27   55 1
    56   28   29 1
    57   28   30 1
    58   28   31 1
    59   30   56 1
    60   30   57 1
    61   30   64 1
    62   31   58 1
    63   31   59 1
    64   31   60 1
    65   32   61 1
    66   32   62 1
    67   32   63 1
    68   64   65 1
@<TRIPOS>MOLECULE
ZINC33331643
   53    56     0     0     0
SMALL
USER_CHARGES
1-[5-[4-(azepane-1-carbonyl)-1-piperidyl]-1,3,4-thiadiazol-2-yl]pyrrolidin-2-one
@<TRIPOS>ATOM
      1 C1         -3.6578    2.6959   -0.7685 C.3       1 <0>        -0.1201
      2 C2         -2.5772    3.7725   -0.8019 C.3       1 <0>        -0.1204
      3 C3         -2.1479    4.0940    0.6083 C.3       1 <0>        -0.1329
      4 C4         -0.9492    3.2153    1.0096 C.3       1 <0>         0.1008
      5 N1         -1.0924    1.8264    0.5307 N.am      1 <0>        -0.6059
      6 C5         -2.3429    1.1034    0.5933 C.3       1 <0>         0.1144
      7 C6         -3.1408    1.3201   -0.7096 C.3       1 <0>        -0.1334
      8 C7         -0.0144    1.2086    0.0087 C.2       1 <0>         0.5159
      9 O1         -0.1254    0.1034   -0.4782 O.2       1 <0>        -0.5299
     10 C8          1.3278    1.8937    0.0243 C.3       1 <0>        -0.1148
     11 C9          1.5131    2.6859   -1.2728 C.3       1 <0>        -0.1065
     12 C10         2.9023    3.3281   -1.2785 C.3       1 <0>         0.0554
     13 N2          3.9279    2.2828   -1.1701 N.pl3     1 <0>        -0.4226
     14 C11         3.7986    1.5408    0.0905 C.3       1 <0>         0.0613
     15 C12         2.4369    0.8440    0.1364 C.3       1 <0>        -0.1026
     16 C13         5.2019    2.8198   -1.3031 C.2       1 <0>         0.2498
     17 N3          6.2323    2.7418   -0.4824 N.2       1 <0>        -0.3233
     18 N4          7.4181    3.3558   -0.8131 N.2       1 <0>        -0.3227
     19 C14         7.5199    4.0190   -1.9477 C.2       1 <0>         0.3080
     20 S1          5.8864    3.7942   -2.6346 S.3       1 <0>         0.0471
     21 N5          8.6115    4.7057   -2.4736 N.am      1 <0>        -0.5135
     22 C15         9.9173    4.8157   -1.8126 C.3       1 <0>         0.0970
     23 C16        10.6378    5.9874   -2.5158 C.3       1 <0>        -0.1324
     24 C17         9.9524    5.9927   -3.9018 C.3       1 <0>        -0.1434
     25 C18         8.6063    5.3480   -3.6543 C.2       1 <0>         0.5215
     26 O2          7.6593    5.4048   -4.4101 O.2       1 <0>        -0.4870
     27 H1         -4.2644    2.8210   -1.6775 H         1 <0>         0.0594
     28 H2         -4.2798    2.8921    0.1173 H         1 <0>         0.0605
     29 H3         -1.7126    3.4065   -1.3751 H         1 <0>         0.0634
     30 H4         -2.9771    4.6788   -1.2802 H         1 <0>         0.0651
     31 H5         -1.8562    5.1528    0.6704 H         1 <0>         0.0786
     32 H6         -2.9828    3.9027    1.2984 H         1 <0>         0.0704
     33 H7         -0.0277    3.6328    0.5777 H         1 <0>         0.0847
     34 H8         -0.8624    3.1919    2.1059 H         1 <0>         0.0676
     35 H9         -2.1397    0.0298    0.7199 H         1 <0>         0.0834
     36 H10        -2.9348    1.4676    1.4460 H         1 <0>         0.0751
     37 H11        -3.9813    0.6110   -0.7382 H         1 <0>         0.0739
     38 H12        -2.4795    1.1397   -1.5699 H         1 <0>         0.0673
     39 H13         1.3622    2.5726    0.8891 H         1 <0>         0.0948
     40 H14         1.4172    2.0077   -2.1335 H         1 <0>         0.0900
     41 H15         0.7444    3.4701   -1.3365 H         1 <0>         0.0858
     42 H16         3.0451    3.8847   -2.2165 H         1 <0>         0.0940
     43 H17         2.9911    4.0175   -0.4259 H         1 <0>         0.0613
     44 H18         4.5977    0.7878    0.1563 H         1 <0>         0.0997
     45 H19         3.8817    2.2385    0.9368 H         1 <0>         0.0611
     46 H20         2.3329    0.3008    1.0873 H         1 <0>         0.0842
     47 H21         2.3572    0.1355   -0.7012 H         1 <0>         0.0926
     48 H22         9.7701    5.0190   -0.7416 H         1 <0>         0.0982
     49 H23        10.4704    3.8727   -1.9342 H         1 <0>         0.0911
     50 H24        10.4717    6.9142   -1.9472 H         1 <0>         0.0917
     51 H25        11.7163    5.7770   -2.5670 H         1 <0>         0.1053
     52 H26         9.8540    7.0287   -4.2582 H         1 <0>         0.1195
     53 H27        10.5609    5.4161   -4.6140 H         1 <0>         0.1215
@<TRIPOS>BOND
     1    1    7 1
     2    1    2 1
     3    1   27 1
     4    1   28 1
     5    2    3 1
     6    2   29 1
     7    2   30 1
     8    3    4 1
     9    3   31 1
    10    3   32 1
    11    4    5 1
    12    4   33 1
    13    4   34 1
    14    5    6 1
    15    5    8 am
    16    6    7 1
    17    6   35 1
    18    6   36 1
    19    7   37 1
    20    7   38 1
    21    8    9 2
    22    8   10 1
    23   10   15 1
    24   10   11 1
    25   10   39 1
    26   11   12 1
    27   11   40 1
    28   11   41 1
    29   12   13 1
    30   12   42 1
    31   12   43 1
    32   13   14 1
    33   13   16 1
    34   14   15 1
    35   14   44 1
    36   14   45 1
    37   15   46 1
    38   15   47 1
    39   16   20 1
    40   16   17 2
    41   17   18 1
    42   18   19 2
    43   19   20 1
    44   19   21 1
    45   21   25 am
    46   21   22 1
    47   22   23 1
    48   22   48 1
    49   22   49 1
    50   23   24 1
    51   23   50 1
    52   23   51 1
    53   24   25 1
    54   24   52 1
    55   24   53 1
    56   25   26 2
@<TRIPOS>MOLECULE
ZINC04724399
   58    60     0     0     0
SMALL
USER_CHARGES
N-[3-chloro-4-[2-(1-piperidyl)acetyl]amino-phenyl]-2-(1-piperidyl)acetamide
@<TRIPOS>ATOM
      1 C1         -0.9683    3.1361   -0.0234 C.ar      1 <0>        -0.1071
      2 C2         -2.2096    3.7370    0.0475 C.ar      1 <0>        -0.0821
      3 C3         -3.3591    2.9591    0.0379 C.ar      1 <0>         0.1357
      4 C4         -3.2609    1.5752   -0.0485 C.ar      1 <0>        -0.0381
      5 C5         -2.0193    0.9750   -0.1247 C.ar      1 <0>        -0.0887
      6 C6         -0.8697    1.7542   -0.1150 C.ar      1 <0>         0.1377
      7 N1          0.3895    1.1456   -0.1919 N.am      1 <0>        -0.6474
      8 C7          0.5567    0.0346   -0.9363 C.2       1 <0>         0.5032
      9 O1         -0.3981   -0.4826   -1.4769 O.2       1 <0>        -0.5065
     10 C8          1.9299   -0.5651   -1.0972 C.3       1 <0>        -0.0248
     11 C9          1.0707   -2.8200   -1.2904 C.3       1 <0>        -0.0108
     12 C10         0.8806   -3.9898   -2.2587 C.3       1 <0>        -0.1435
     13 C11         2.2519   -4.5228   -2.6830 C.3       1 <0>        -0.1408
     14 C12         3.0571   -3.3872   -3.3207 C.3       1 <0>        -0.1471
     15 C13         3.1841   -2.2349   -2.3216 C.3       1 <0>        -0.0017
     16 Cl1        -4.6982    0.6018   -0.0612 Cl        1 <0>        -0.0371
     17 N2         -4.6185    3.5687    0.1148 N.am      1 <0>        -0.6471
     18 C14        -4.8260    4.7633   -0.4738 C.2       1 <0>         0.5069
     19 O2         -3.9027    5.3493   -0.9986 O.2       1 <0>        -0.5074
     20 C15        -6.2050    5.3709   -0.4797 C.3       1 <0>        -0.0257
     21 C16        -5.3543    7.6370   -0.4371 C.3       1 <0>        -0.0108
     22 C17        -5.2178    8.9199   -1.2603 C.3       1 <0>        -0.1432
     23 C18        -6.6101    9.4944   -1.5357 C.3       1 <0>        -0.1408
     24 C19        -7.4524    8.4433   -2.2639 C.3       1 <0>        -0.1470
     25 C20        -7.5242    7.1742   -1.4117 C.3       1 <0>        -0.0020
     26 H1         -0.0740    3.7415   -0.0117 H         1 <0>         0.1469
     27 H2         -2.2859    4.8122    0.1147 H         1 <0>         0.1580
     28 H3         -1.9425   -0.1002   -0.1915 H         1 <0>         0.1582
     29 H4          1.1403    1.5214    0.2940 H         1 <0>         0.4265
     30 H5          2.5931    0.1650   -1.5611 H         1 <0>         0.1645
     31 H6          2.3222   -0.8422   -0.1188 H         1 <0>         0.1662
     32 H7          1.6047   -3.1647   -0.4048 H         1 <0>         0.1292
     33 H8          0.0963   -2.4291   -0.9974 H         1 <0>         0.1377
     34 H9          0.3345   -3.6490   -3.1383 H         1 <0>         0.0884
     35 H10         0.3184   -4.7831   -1.7660 H         1 <0>         0.1129
     36 H11         2.1219   -5.3279   -3.4062 H         1 <0>         0.0961
     37 H12         2.7833   -4.9001   -1.8093 H         1 <0>         0.0830
     38 H13         2.5452   -3.0369   -4.2170 H         1 <0>         0.0886
     39 H14         4.0501   -3.7497   -3.5862 H         1 <0>         0.1162
     40 H15         3.7447   -1.4189   -2.7777 H         1 <0>         0.1309
     41 H16         3.7081   -2.5824   -1.4313 H         1 <0>         0.1344
     42 H17        -5.3409    3.1309    0.5916 H         1 <0>         0.4248
     43 H18        -6.8950    4.7011   -0.9930 H         1 <0>         0.1649
     44 H19        -6.5403    5.5212    0.5465 H         1 <0>         0.1668
     45 H20        -5.8362    7.8650    0.5136 H         1 <0>         0.1291
     46 H21        -4.3654    7.2176   -0.2515 H         1 <0>         0.1379
     47 H22        -4.7234    8.6950   -2.2054 H         1 <0>         0.0883
     48 H23        -4.6269    9.6482   -0.7048 H         1 <0>         0.1128
     49 H24        -6.5203   10.3844   -2.1584 H         1 <0>         0.0961
     50 H25        -7.0901    9.7564   -0.5928 H         1 <0>         0.0830
     51 H26        -6.9933    8.2109   -3.2248 H         1 <0>         0.0886
     52 H27        -8.4584    8.8309   -2.4249 H         1 <0>         0.1162
     53 H28        -8.1113    6.4188   -1.9338 H         1 <0>         0.1310
     54 H29        -7.9959    7.4046   -0.4564 H         1 <0>         0.1346
     55 N3          1.8314   -1.7514   -1.9724 N.4       1 <0>        -0.3818
     56 H30         1.3385   -1.4898   -2.8343 H         1 <0>         0.4339
     57 N4         -6.1544    6.6581   -1.2033 N.4       1 <0>        -0.3814
     58 H31        -5.7119    6.5093   -2.1178 H         1 <0>         0.4339
@<TRIPOS>BOND
     1    1    6 ar
     2    1    2 ar
     3    1   26 1
     4    2    3 ar
     5    2   27 1
     6    3    4 ar
     7    3   17 1
     8    4    5 ar
     9    4   16 1
    10    5    6 ar
    11    5   28 1
    12    6    7 1
    13    7    8 am
    14    7   29 1
    15    8    9 2
    16    8   10 1
    17   10   30 1
    18   10   31 1
    19   10   55 1
    20   11   12 1
    21   11   32 1
    22   11   33 1
    23   11   55 1
    24   12   13 1
    25   12   34 1
    26   12   35 1
    27   13   14 1
    28   13   36 1
    29   13   37 1
    30   14   15 1
    31   14   38 1
    32   14   39 1
    33   15   40 1
    34   15   41 1
    35   15   55 1
    36   17   18 am
    37   17   42 1
    38   18   19 2
    39   18   20 1
    40   20   43 1
    41   20   44 1
    42   20   57 1
    43   21   22 1
    44   21   45 1
    45   21   46 1
    46   21   57 1
    47   22   23 1
    48   22   47 1
    49   22   48 1
    50   23   24 1
    51   23   49 1
    52   23   50 1
    53   24   25 1
    54   24   51 1
    55   24   52 1
    56   25   53 1
    57   25   54 1
    58   25   57 1
    59   55   56 1
    60   57   58 1
@<TRIPOS>MOLECULE
ZINC02274790
   51    54     0     0     0
SMALL
USER_CHARGES
N-(ethylBLAHyl)-N',N'-dimethyl-ethane-1,2-diamine
@<TRIPOS>ATOM
      1 C1         -2.8330    2.5338   -3.7983 C.3       1 <0>        -0.1463
      2 C2         -1.3973    3.0226   -3.5966 C.3       1 <0>        -0.0836
      3 C3         -1.3003    3.7722   -2.2928 C.ar      1 <0>         0.1939
      4 C4         -0.9853    3.0823   -1.1251 C.ar      1 <0>        -0.1337
      5 C5         -0.8921    3.7620    0.0617 C.ar      1 <0>         0.0472
      6 C6         -1.1246    5.1594    0.0778 C.ar      1 <0>        -0.1586
      7 C7         -1.0746    6.0634    1.2423 C.ar      1 <0>         0.2369
      8 C8         -1.3479    7.4116    0.9817 C.ar      1 <0>        -0.2908
      9 C9         -1.3296    8.3533    2.0016 C.ar      1 <0>         0.4923
     10 N1         -1.0467    7.9410    3.2369 N.ar      1 <0>        -0.5616
     11 C10        -0.7908    6.6660    3.4655 C.ar      1 <0>         0.3460
     12 N2         -0.7984    5.7515    2.5284 N.ar      1 <0>        -0.5213
     13 N3         -1.6007    9.6878    1.7421 N.pl3     1 <0>        -0.7111
     14 C11        -1.5763   10.6657    2.8326 C.3       1 <0>         0.1075
     15 C12        -1.9073   12.0537    2.2805 C.3       1 <0>        -0.0215
     16 C13        -0.5251   13.1875    3.9135 C.3       1 <0>        -0.0500
     17 C14        -2.4234   14.3274    2.9338 C.3       1 <0>        -0.0419
     18 S1         -1.6614    7.4770   -0.7607 S.3       1 <0>         0.1255
     19 C15        -1.4383    5.7593   -1.1533 C.ar      1 <0>         0.1332
     20 N4         -1.5146    5.0711   -2.2722 N.ar      1 <0>        -0.4517
     21 C16        -0.5448    3.0960    1.3644 C.3       1 <0>        -0.0868
     22 C17        -0.7383    1.5842    1.2633 C.3       1 <0>        -0.1230
     23 C18        -0.0127    1.0858    0.0080 C.3       1 <0>        -0.1243
     24 C19        -0.7593    1.5957   -1.2233 C.3       1 <0>        -0.0784
     25 H1         -3.1103    1.8724   -2.9775 H         1 <0>         0.0583
     26 H2         -3.5084    3.3891   -3.8198 H         1 <0>         0.0599
     27 H3         -2.9032    1.9917   -4.7413 H         1 <0>         0.0715
     28 H4         -1.1200    3.6840   -4.4174 H         1 <0>         0.0907
     29 H5         -0.7219    2.1674   -3.5751 H         1 <0>         0.0945
     30 H6         -0.5632    6.3621    4.4765 H         1 <0>         0.2062
     31 H7         -1.8064    9.9741    0.8384 H         1 <0>         0.4182
     32 H8         -2.3142   10.3888    3.5856 H         1 <0>         0.0909
     33 H9         -0.5844   10.6815    3.2844 H         1 <0>         0.0913
     34 H10        -1.1694   12.3307    1.5275 H         1 <0>         0.1391
     35 H11        -2.8991   12.0380    1.8287 H         1 <0>         0.1373
     36 H12         0.1436   13.5286    3.1232 H         1 <0>         0.1254
     37 H13        -0.5356   13.9191    4.7215 H         1 <0>         0.1270
     38 H14        -0.1759   12.2285    4.2962 H         1 <0>         0.1246
     39 H15        -3.4541   14.1970    2.6042 H         1 <0>         0.1232
     40 H16        -2.3936   15.0348    3.7625 H         1 <0>         0.1267
     41 H17        -1.8235   14.7098    2.1079 H         1 <0>         0.1248
     42 H18         0.4958    3.3072    1.6109 H         1 <0>         0.0894
     43 H19        -1.1860    3.4902    2.1528 H         1 <0>         0.0990
     44 H20        -1.8018    1.3578    1.1869 H         1 <0>         0.0672
     45 H21        -0.3214    1.0984    2.1456 H         1 <0>         0.0768
     46 H22         0.0021   -0.0041    0.0020 H         1 <0>         0.0769
     47 H23         1.0088    1.4659    0.0003 H         1 <0>         0.0677
     48 H24        -0.1726    1.3787   -2.1159 H         1 <0>         0.0877
     49 H25        -1.7232    1.0918   -1.2944 H         1 <0>         0.0862
     50 N5         -1.8996   13.0244    3.3951 N.4       1 <0>        -0.3928
     51 H26        -2.5007   12.6714    4.1490 H         1 <0>         0.4347
@<TRIPOS>BOND
     1    1    2 1
     2    1   25 1
     3    1   26 1
     4    1   27 1
     5    2    3 1
     6    2   28 1
     7    2   29 1
     8    3   20 ar
     9    3    4 ar
    10    4   24 1
    11    4    5 ar
    12    5    6 ar
    13    5   21 1
    14    6   19 ar
    15    6    7 1
    16    7   12 ar
    17    7    8 ar
    18    8    9 ar
    19    8   18 1
    20    9   10 ar
    21    9   13 1
    22   10   11 ar
    23   11   12 ar
    24   11   30 1
    25   13   14 1
    26   13   31 1
    27   14   15 1
    28   14   32 1
    29   14   33 1
    30   15   34 1
    31   15   35 1
    32   15   50 1
    33   16   36 1
    34   16   37 1
    35   16   38 1
    36   16   50 1
    37   17   39 1
    38   17   40 1
    39   17   41 1
    40   17   50 1
    41   18   19 1
    42   19   20 ar
    43   21   22 1
    44   21   42 1
    45   21   43 1
    46   22   23 1
    47   22   44 1
    48   22   45 1
    49   23   24 1
    50   23   46 1
    51   23   47 1
    52   24   48 1
    53   24   49 1
    54   50   51 1
@<TRIPOS>MOLECULE
ZINC04993591
   49    51     0     0     0
SMALL
USER_CHARGES
5-bromo-2-methoxy-N-[4-(1-piperidylmethyl)phenyl]-benzamide
@<TRIPOS>ATOM
      1 C1          0.6839    1.1970   -2.9505 C.3       1 <0>         0.0159
      2 O1         -0.4403    0.7344   -2.1992 O.3       1 <0>        -0.2791
      3 C2         -0.2735   -0.4028   -1.4784 C.ar      1 <0>         0.2092
      4 C3          0.9461   -1.0631   -1.4914 C.ar      1 <0>        -0.2104
      5 C4          1.1149   -2.2200   -0.7572 C.ar      1 <0>        -0.0116
      6 C5          0.0698   -2.7306   -0.0031 C.ar      1 <0>        -0.1407
      7 C6         -1.1495   -2.0875    0.0204 C.ar      1 <0>        -0.0165
      8 C7         -1.3312   -0.9121   -0.7129 C.ar      1 <0>        -0.1819
      9 C8         -2.6307   -0.2147   -0.6864 C.2       1 <0>         0.5701
     10 O2         -2.7866    0.8052   -1.3299 O.2       1 <0>        -0.4860
     11 N1         -3.6453   -0.7079    0.0511 N.am      1 <0>        -0.6790
     12 C9         -4.8402    0.0097    0.1651 C.ar      1 <0>         0.1955
     13 C10        -4.8201    1.3985    0.1707 C.ar      1 <0>        -0.1213
     14 C11        -6.0023    2.1042    0.2786 C.ar      1 <0>        -0.0688
     15 C12        -7.2042    1.4296    0.3916 C.ar      1 <0>        -0.1854
     16 C13        -7.2272    0.0470    0.3915 C.ar      1 <0>        -0.0710
     17 C14        -6.0490   -0.6647    0.2786 C.ar      1 <0>        -0.1467
     18 C15        -8.4917    2.2030    0.5154 C.3       1 <0>         0.0520
     19 C16        -9.0499    1.1958    2.6449 C.3       1 <0>        -0.0069
     20 C17        -9.2001    1.4769    4.1417 C.3       1 <0>        -0.1461
     21 C18       -10.3494    2.4653    4.3575 C.3       1 <0>        -0.1388
     22 C19       -10.0654    3.7464    3.5683 C.3       1 <0>        -0.1474
     23 C20        -9.8901    3.3995    2.0881 C.3       1 <0>        -0.0025
     24 Br1         0.3173   -4.3163    0.9970 Br        1 <0>        -0.0309
     25 H1          0.9781    0.4339   -3.6712 H         1 <0>         0.0634
     26 H2          0.4160    2.1118   -3.4791 H         1 <0>         0.1097
     27 H3          1.5149    1.3979   -2.2745 H         1 <0>         0.0632
     28 H4          1.7651   -0.6714   -2.0764 H         1 <0>         0.1507
     29 H5          2.0668   -2.7299   -0.7702 H         1 <0>         0.1469
     30 H6         -1.9612   -2.4886    0.6092 H         1 <0>         0.1404
     31 H7         -3.5467   -1.5607    0.5027 H         1 <0>         0.4150
     32 H8         -3.8814    1.9259    0.0871 H         1 <0>         0.1468
     33 H9         -5.9878    3.1841    0.2790 H         1 <0>         0.1344
     34 H10        -8.1675   -0.4769    0.4795 H         1 <0>         0.1348
     35 H11        -6.0676   -1.7446    0.2783 H         1 <0>         0.1391
     36 H12        -8.3961    3.1541   -0.0083 H         1 <0>         0.1340
     37 H13        -9.3056    1.6264    0.0758 H         1 <0>         0.1352
     38 H14        -9.9709    0.7546    2.2639 H         1 <0>         0.1286
     39 H15        -8.2231    0.5033    2.4866 H         1 <0>         0.1283
     40 H16        -8.2746    1.9053    4.5262 H         1 <0>         0.0859
     41 H17        -9.4168    0.5465    4.6667 H         1 <0>         0.1100
     42 H18       -10.4321    2.7018    5.4184 H         1 <0>         0.0928
     43 H19       -11.2819    2.0217    4.0086 H         1 <0>         0.0813
     44 H20        -9.1535    4.2105    3.9438 H         1 <0>         0.0866
     45 H21       -10.9003    4.4375    3.6837 H         1 <0>         0.1112
     46 H22        -9.6736    4.3076    1.5255 H         1 <0>         0.1277
     47 H23       -10.8072    2.9480    1.7098 H         1 <0>         0.1296
     48 N2         -8.7539    2.4645    1.9458 N.4       1 <0>        -0.3925
     49 H24        -7.9186    2.8891    2.3656 H         1 <0>         0.4253
@<TRIPOS>BOND
     1    1    2 1
     2    1   25 1
     3    1   26 1
     4    1   27 1
     5    2    3 1
     6    3    8 ar
     7    3    4 ar
     8    4    5 ar
     9    4   28 1
    10    5    6 ar
    11    5   29 1
    12    6    7 ar
    13    6   24 1
    14    7    8 ar
    15    7   30 1
    16    8    9 1
    17    9   10 2
    18    9   11 am
    19   11   12 1
    20   11   31 1
    21   12   17 ar
    22   12   13 ar
    23   13   14 ar
    24   13   32 1
    25   14   15 ar
    26   14   33 1
    27   15   16 ar
    28   15   18 1
    29   16   17 ar
    30   16   34 1
    31   17   35 1
    32   18   36 1
    33   18   37 1
    34   18   48 1
    35   19   20 1
    36   19   38 1
    37   19   39 1
    38   19   48 1
    39   20   21 1
    40   20   40 1
    41   20   41 1
    42   21   22 1
    43   21   42 1
    44   21   43 1
    45   22   23 1
    46   22   44 1
    47   22   45 1
    48   23   46 1
    49   23   47 1
    50   23   48 1
    51   48   49 1
@<TRIPOS>MOLECULE
ZINC08432228
   65    67     0     0     0
SMALL
USER_CHARGES
ethyl 4-(3,4-dimethoxyphenyl)-2-[3-(4-methyl-1-piperidyl)propanoylamino]thiophene-3-carboxylate
@<TRIPOS>ATOM
      1 C1          3.5441   10.8216    0.1961 C.3       1 <0>        -0.1536
      2 C2          3.9555   10.1765    1.5211 C.3       1 <0>         0.0584
      3 O1          4.9676    9.1653    1.2733 O.3       1 <0>        -0.3510
      4 C3          5.4411    8.4972    2.3454 C.2       1 <0>         0.5296
      5 O2          5.0188    8.7535    3.4571 O.2       1 <0>        -0.4851
      6 C4          6.4623    7.4644    2.1711 C.2       1 <0>        -0.1819
      7 C5          7.8778    7.7773    2.2242 C.2       1 <0>        -0.0190
      8 C6          8.7386    6.7439    2.0427 C.2       1 <0>        -0.2096
      9 S1          7.6590    5.3476    1.8077 S.3       1 <0>         0.2544
     10 C7          6.1243    6.1356    1.9500 C.2       1 <0>         0.0574
     11 N1          4.8602    5.5753    1.8590 N.am      1 <0>        -0.6112
     12 C8          4.7235    4.2537    1.6326 C.2       1 <0>         0.5171
     13 O3          5.7069    3.5549    1.5085 O.2       1 <0>        -0.4902
     14 C9          3.3488    3.6444    1.5337 C.3       1 <0>        -0.1694
     15 C10         3.4744    2.1416    1.2751 C.3       1 <0>         0.0100
     16 C11         1.4188    2.0518   -0.0005 C.3       1 <0>        -0.0083
     17 C12        -0.0187    1.5270    0.0104 C.3       1 <0>        -0.1440
     18 C13         0.0021   -0.0041    0.0020 C.3       1 <0>        -0.1047
     19 C14         0.7943   -0.5026    1.2138 C.3       1 <0>        -0.1447
     20 C15         2.2082    0.0811    1.1680 C.3       1 <0>        -0.0001
     21 C16        -1.4309   -0.5353    0.0743 C.3       1 <0>        -0.1545
     22 C17         8.3604    9.1593    2.4590 C.ar      1 <0>        -0.0485
     23 C18         7.8546   10.2139    1.7003 C.ar      1 <0>        -0.1026
     24 C19         8.3013   11.5008    1.9226 C.ar      1 <0>        -0.1710
     25 C20         9.2603   11.7466    2.8932 C.ar      1 <0>         0.1123
     26 C21         9.7731   10.6967    3.6504 C.ar      1 <0>         0.1039
     27 C22         9.3251    9.4056    3.4348 C.ar      1 <0>        -0.1510
     28 O4         10.7137   10.9402    4.6019 O.3       1 <0>        -0.3024
     29 C23        11.1949    9.8160    5.3412 C.3       1 <0>         0.0242
     30 O5          9.7013   13.0155    3.1058 O.3       1 <0>        -0.3027
     31 C24         9.1327   14.0446    2.2935 C.3       1 <0>         0.0242
     32 H1          2.7843   11.5807    0.3821 H         1 <0>         0.0843
     33 H2          4.4147   11.2850   -0.2681 H         1 <0>         0.0700
     34 H3          3.1402   10.0588   -0.4695 H         1 <0>         0.0656
     35 H4          3.0849    9.7131    1.9853 H         1 <0>         0.0699
     36 H5          4.3594   10.9394    2.1867 H         1 <0>         0.0750
     37 H6          9.8185    6.7636    2.0412 H         1 <0>         0.1984
     38 H7          4.0736    6.1342    1.9583 H         1 <0>         0.4224
     39 H8          2.8032    4.1100    0.7129 H         1 <0>         0.1249
     40 H9          2.8105    3.8087    2.4672 H         1 <0>         0.1259
     41 H10         4.0200    1.6761    2.0959 H         1 <0>         0.1423
     42 H11         4.0127    1.9774    0.3416 H         1 <0>         0.1440
     43 H12         1.9231    1.7108   -0.9046 H         1 <0>         0.1332
     44 H13         1.4077    3.1416    0.0199 H         1 <0>         0.1271
     45 H14        -0.5449    1.8886   -0.8730 H         1 <0>         0.1128
     46 H15        -0.5279    1.8791    0.9076 H         1 <0>         0.0885
     47 H16         0.4766   -0.3569   -0.9136 H         1 <0>         0.0891
     48 H17         0.2979   -0.1824    2.1299 H         1 <0>         0.0885
     49 H18         0.8484   -1.5910    1.1905 H         1 <0>         0.1137
     50 H19         2.7705   -0.2605    2.0371 H         1 <0>         0.1310
     51 H20         2.7088   -0.2507    0.2584 H         1 <0>         0.1324
     52 H21        -1.9957   -0.1753   -0.7857 H         1 <0>         0.0674
     53 H22        -1.4152   -1.6251    0.0682 H         1 <0>         0.0678
     54 H23        -1.9029   -0.1838    0.9918 H         1 <0>         0.0620
     55 H24         7.1105   10.0244    0.9408 H         1 <0>         0.1329
     56 H25         7.9061   12.3172    1.3364 H         1 <0>         0.1398
     57 H26         9.7216    8.5903    4.0216 H         1 <0>         0.1399
     58 H27        10.3642    9.3430    5.8649 H         1 <0>         0.0554
     59 H28        11.6489    9.0988    4.6574 H         1 <0>         0.0561
     60 H29        11.9386   10.1487    6.0653 H         1 <0>         0.1045
     61 H30         8.0548   14.0787    2.4520 H         1 <0>         0.0557
     62 H31         9.5704   15.0052    2.5649 H         1 <0>         0.1047
     63 H32         9.3391   13.8347    1.2440 H         1 <0>         0.0572
     64 N2          2.1196    1.5565    1.2032 N.4       1 <0>        -0.3946
     65 H33         1.5900    1.8385    2.0365 H         1 <0>         0.4264
@<TRIPOS>BOND
     1    1    2 1
     2    1   32 1
     3    1   33 1
     4    1   34 1
     5    2    3 1
     6    2   35 1
     7    2   36 1
     8    3    4 1
     9    4    5 2
    10    4    6 1
    11    6   10 2
    12    6    7 1
    13    7    8 2
    14    7   22 1
    15    8    9 1
    16    8   37 1
    17    9   10 1
    18   10   11 1
    19   11   12 am
    20   11   38 1
    21   12   13 2
    22   12   14 1
    23   14   15 1
    24   14   39 1
    25   14   40 1
    26   15   41 1
    27   15   42 1
    28   15   64 1
    29   16   17 1
    30   16   43 1
    31   16   44 1
    32   16   64 1
    33   17   18 1
    34   17   45 1
    35   17   46 1
    36   18   19 1
    37   18   21 1
    38   18   47 1
    39   19   20 1
    40   19   48 1
    41   19   49 1
    42   20   50 1
    43   20   51 1
    44   20   64 1
    45   21   52 1
    46   21   53 1
    47   21   54 1
    48   22   27 ar
    49   22   23 ar
    50   23   24 ar
    51   23   55 1
    52   24   25 ar
    53   24   56 1
    54   25   26 ar
    55   25   30 1
    56   26   27 ar
    57   26   28 1
    58   27   57 1
    59   28   29 1
    60   29   58 1
    61   29   59 1
    62   29   60 1
    63   30   31 1
    64   31   61 1
    65   31   62 1
    66   31   63 1
    67   64   65 1
@<TRIPOS>MOLECULE
ZINC00016827
   30    32     0     0     0
SMALL
USER_CHARGES
1,2,3,4-tetrahydroacridin-9-amine
@<TRIPOS>ATOM
      1 C1         -2.2590   -4.1734    0.7266 C.ar      1 <0>        -0.1151
      2 C2         -1.1015   -4.8453    0.3414 C.ar      1 <0>        -0.0282
      3 C3          0.0181   -4.1626   -0.0240 C.ar      1 <0>        -0.1547
      4 C4          0.0125   -2.7569   -0.0146 C.ar      1 <0>         0.1855
      5 C5         -1.1660   -2.0778    0.3770 C.ar      1 <0>        -0.1377
      6 C6         -2.3011   -2.8116    0.7474 C.ar      1 <0>        -0.0565
      7 C7         -1.1623   -0.6653    0.3817 C.ar      1 <0>         0.3675
      8 C8          0.0021   -0.0041    0.0020 C.ar      1 <0>        -0.2105
      9 C9          1.1175   -0.7361   -0.3646 C.ar      1 <0>         0.2712
     10 C10         2.4120   -0.0754   -0.7701 C.3       1 <0>        -0.1168
     11 C11         2.1762    1.3865   -1.1417 C.3       1 <0>        -0.1213
     12 C12         1.4039    2.0583   -0.0003 C.3       1 <0>        -0.1267
     13 C13        -0.0183    1.5015    0.0103 C.3       1 <0>        -0.0727
     14 N1         -2.2920    0.0458    0.7563 N.pl3     1 <0>        -0.7940
     15 H1         -3.1340   -4.7385    1.0119 H         1 <0>         0.1511
     16 H2         -1.0919   -5.9252    0.3327 H         1 <0>         0.1529
     17 H3          0.9072   -4.6991   -0.3207 H         1 <0>         0.1539
     18 H4         -3.2041   -2.3007    1.0473 H         1 <0>         0.1465
     19 H5          3.1167   -0.1260    0.0600 H         1 <0>         0.1184
     20 H6          2.8304   -0.6013   -1.6283 H         1 <0>         0.1086
     21 H7          3.1338    1.8881   -1.2812 H         1 <0>         0.0939
     22 H8          1.5929    1.4414   -2.0609 H         1 <0>         0.0797
     23 H9          1.3752    3.1361   -0.1607 H         1 <0>         0.0897
     24 H10         1.8906    1.8408    0.9505 H         1 <0>         0.0760
     25 H11        -0.5506    1.8586   -0.8713 H         1 <0>         0.0921
     26 H12        -0.5337    1.8490    0.9057 H         1 <0>         0.0852
     27 H13        -2.2768    1.0157    0.7558 H         1 <0>         0.4265
     28 H14        -3.0975   -0.4265    1.0190 H         1 <0>         0.4221
     29 N2          1.1637   -2.1007   -0.3898 N.ar      1 <0>        -0.5514
     30 H15         2.0097   -2.6092   -0.6727 H         1 <0>         0.4649
@<TRIPOS>BOND
     1    1    6 ar
     2    1    2 ar
     3    1   15 1
     4    2    3 ar
     5    2   16 1
     6    3    4 ar
     7    3   17 1
     8    4    5 ar
     9    4   29 ar
    10    5    6 ar
    11    5    7 ar
    12    6   18 1
    13    7    8 ar
    14    7   14 1
    15    8   13 1
    16    8    9 ar
    17    9   10 1
    18    9   29 ar
    19   10   11 1
    20   10   19 1
    21   10   20 1
    22   11   12 1
    23   11   21 1
    24   11   22 1
    25   12   13 1
    26   12   23 1
    27   12   24 1
    28   13   25 1
    29   13   26 1
    30   14   27 1
    31   14   28 1
    32   29   30 1
@<TRIPOS>MOLECULE
ZINC00597013
   58    61     0     0     0
SMALL
USER_CHARGES

@<TRIPOS>ATOM
      1 C1         -0.0173    1.4248    0.0099 C.3       1 <0>         0.0208
      2 O1          0.0021   -0.0041    0.0020 O.3       1 <0>        -0.2950
      3 C2          0.6051   -0.6064   -1.0545 C.ar      1 <0>         0.1532
      4 C3          1.1721    0.1632   -2.0609 C.ar      1 <0>        -0.1821
      5 C4          1.7866   -0.4410   -3.1387 C.ar      1 <0>        -0.0371
      6 C5          1.8416   -1.8340   -3.2219 C.ar      1 <0>        -0.2044
      7 C6          1.2663   -2.6106   -2.2012 C.ar      1 <0>        -0.1044
      8 C7          0.6597   -1.9984   -1.1254 C.ar      1 <0>         0.0877
      9 O2          0.1088   -2.7516   -0.1361 O.3       1 <0>        -0.3011
     10 C8          0.2013   -4.1710   -0.2735 C.3       1 <0>         0.0231
     11 C9          2.5389   -2.2531   -4.4456 C.2       1 <0>         0.4182
     12 O3          2.7420   -3.3976   -4.7923 O.2       1 <0>        -0.4477
     13 C10         2.9584   -1.0129   -5.1966 C.3       1 <0>        -0.1391
     14 H1          4.0434   -0.9806   -5.2959 H         1 <0>         0.1138
     15 C11         2.4673    0.1645   -4.3432 C.3       1 <0>        -0.0780
     16 C12         2.2994   -0.9808   -6.5770 C.3       1 <0>        -0.0982
     17 C13         2.8476   -2.1260   -7.4307 C.3       1 <0>        -0.1155
     18 C14         4.3380   -1.8972   -7.6982 C.3       1 <0>        -0.1415
     19 C15         4.8612   -3.0029   -8.6175 C.3       1 <0>        -0.0066
     20 N1          4.1252   -2.9777   -9.8872 N.4       1 <0>        -0.3801
     21 C16         2.7066   -3.2675   -9.6464 C.3       1 <0>        -0.0118
     22 C17         2.1004   -2.1720   -8.7666 C.3       1 <0>        -0.1383
     23 C18         4.6828   -3.9891  -10.7949 C.3       1 <0>         0.0438
     24 C19         4.0113   -3.8820  -12.1398 C.ar      1 <0>        -0.1605
     25 C20         2.8641   -4.6083  -12.3993 C.ar      1 <0>        -0.0978
     26 C21         2.2481   -4.5101  -13.6329 C.ar      1 <0>        -0.1135
     27 C22         2.7790   -3.6851  -14.6068 C.ar      1 <0>        -0.0847
     28 C23         3.9256   -2.9580  -14.3470 C.ar      1 <0>        -0.1130
     29 C24         4.5392   -3.0530  -13.1119 C.ar      1 <0>        -0.0942
     30 H2          1.0053    1.8021    0.0021 H         1 <0>         0.0608
     31 H3         -0.5445    1.7859   -0.8732 H         1 <0>         0.0604
     32 H4         -0.5275    1.7763    0.9067 H         1 <0>         0.1088
     33 H5          1.1317    1.2407   -2.0004 H         1 <0>         0.1449
     34 H6          1.3038   -3.6885   -2.2575 H         1 <0>         0.1426
     35 H7         -0.2763   -4.6506    0.5809 H         1 <0>         0.1075
     36 H8         -0.2996   -4.4806   -1.1908 H         1 <0>         0.0566
     37 H9          1.2502   -4.4644   -0.3155 H         1 <0>         0.0572
     38 H10         1.7583    0.7678   -4.9101 H         1 <0>         0.0961
     39 H11         3.3123    0.7764   -4.0277 H         1 <0>         0.0964
     40 H12         1.2208   -1.0934   -6.4674 H         1 <0>         0.0800
     41 H13         2.5179   -0.0293   -7.0618 H         1 <0>         0.0849
     42 H14         2.7114   -3.0706   -6.9042 H         1 <0>         0.1081
     43 H15         4.4772   -0.9286   -8.1782 H         1 <0>         0.0886
     44 H16         4.8846   -1.9188   -6.7553 H         1 <0>         0.1118
     45 H17         5.9222   -2.8432   -8.8098 H         1 <0>         0.1305
     46 H18         4.7218   -3.9711   -8.1364 H         1 <0>         0.1303
     47 H19         2.1768   -3.3031  -10.5983 H         1 <0>         0.1310
     48 H20         2.6131   -4.2300   -9.1434 H         1 <0>         0.1282
     49 H21         1.0476   -2.3899   -8.5875 H         1 <0>         0.1106
     50 H22         2.1932   -1.2090   -9.2688 H         1 <0>         0.0874
     51 H23         5.7540   -3.8234  -10.9095 H         1 <0>         0.1365
     52 H24         4.5111   -4.9828  -10.3812 H         1 <0>         0.1348
     53 H25         2.4494   -5.2529  -11.6384 H         1 <0>         0.1308
     54 H26         1.3522   -5.0781  -13.8359 H         1 <0>         0.1360
     55 H27         2.2981   -3.6088  -15.5708 H         1 <0>         0.1358
     56 H28         4.3405   -2.3138  -15.1080 H         1 <0>         0.1360
     57 H29         5.4329   -2.4822  -12.9076 H         1 <0>         0.1309
     58 H30         4.2142   -2.0651  -10.3083 H         1 <0>         0.4207
@<TRIPOS>BOND
     1    1    2 1
     2    1   30 1
     3    1   31 1
     4    1   32 1
     5    2    3 1
     6    3    8 ar
     7    3    4 ar
     8    4    5 ar
     9    4   33 1
    10    5   15 1
    11    5    6 ar
    12    6    7 ar
    13    6   11 1
    14    7    8 ar
    15    7   34 1
    16    8    9 1
    17    9   10 1
    18   10   35 1
    19   10   36 1
    20   10   37 1
    21   11   12 2
    22   11   13 1
    23   13   14 1
    24   13   15 1
    25   13   16 1
    26   15   38 1
    27   15   39 1
    28   16   17 1
    29   16   40 1
    30   16   41 1
    31   17   22 1
    32   17   18 1
    33   17   42 1
    34   18   19 1
    35   18   43 1
    36   18   44 1
    37   19   20 1
    38   19   45 1
    39   19   46 1
    40   20   21 1
    41   20   23 1
    42   20   58 1
    43   21   22 1
    44   21   47 1
    45   21   48 1
    46   22   49 1
    47   22   50 1
    48   23   24 1
    49   23   51 1
    50   23   52 1
    51   24   29 ar
    52   24   25 ar
    53   25   26 ar
    54   25   53 1
    55   26   27 ar
    56   26   54 1
    57   27   28 ar
    58   27   55 1
    59   28   29 ar
    60   28   56 1
    61   29   57 1
@<TRIPOS>MOLECULE
ZINC00897251
   58    61     0     0     0
SMALL
USER_CHARGES

@<TRIPOS>ATOM
      1 C1         -0.4000    2.7928   -9.4111 C.3       1 <0>         0.0217
      2 O1         -0.3921    3.3043   -8.0768 O.3       1 <0>        -0.2952
      3 C2          0.2864    2.5865   -7.1456 C.ar      1 <0>         0.1496
      4 C3          0.9365    1.4157   -7.5106 C.ar      1 <0>        -0.1810
      5 C4          1.6280    0.6797   -6.5702 C.ar      1 <0>        -0.0432
      6 C5          1.6776    1.1109   -5.2428 C.ar      1 <0>        -0.1980
      7 C6          1.0179    2.2969   -4.8763 C.ar      1 <0>        -0.1053
      8 C7          0.3345    3.0288   -5.8236 C.ar      1 <0>         0.0903
      9 O2         -0.2981    4.1789   -5.4680 O.3       1 <0>        -0.3013
     10 C8         -0.2072    4.5722   -4.0972 C.3       1 <0>         0.0223
     11 C9          2.4645    0.1785   -4.4238 C.2       1 <0>         0.4126
     12 O3          2.6844    0.2862   -3.2359 O.2       1 <0>        -0.4369
     13 C10         2.9517   -0.9365   -5.3169 C.3       1 <0>        -0.1385
     14 H1          2.5591   -1.8938   -4.9740 H         1 <0>         0.1136
     15 C11         2.4055   -0.6071   -6.7129 C.3       1 <0>        -0.0752
     16 C12         4.4812   -0.9687   -5.3380 C.3       1 <0>        -0.1018
     17 C13         4.9548   -2.1846   -6.1369 C.3       1 <0>        -0.0999
     18 C14         4.5565   -3.4674   -5.4014 C.3       1 <0>        -0.1473
     19 C15         5.1018   -4.6765   -6.1643 C.3       1 <0>        -0.0062
     20 N1          6.5650   -4.5904   -6.2436 N.4       1 <0>        -0.3817
     21 C16         6.9530   -3.4000   -7.0098 C.3       1 <0>        -0.0117
     22 C17         6.4789   -2.1417   -6.2794 C.3       1 <0>        -0.1414
     23 C18         7.0894   -5.7910   -6.9081 C.3       1 <0>         0.0445
     24 C19         8.5959   -5.7625   -6.8811 C.ar      1 <0>        -0.1617
     25 C20         9.2944   -5.1622   -7.9119 C.ar      1 <0>        -0.0980
     26 C21        10.6763   -5.1361   -7.8871 C.ar      1 <0>        -0.1136
     27 C22        11.3596   -5.7098   -6.8313 C.ar      1 <0>        -0.0841
     28 C23        10.6611   -6.3093   -5.8000 C.ar      1 <0>        -0.1126
     29 C24         9.2791   -6.3317   -5.8227 C.ar      1 <0>        -0.0940
     30 H2          0.6233    2.7264   -9.7808 H         1 <0>         0.0592
     31 H3         -0.8537    1.8018   -9.4176 H         1 <0>         0.0598
     32 H4         -0.9755    3.4601  -10.0527 H         1 <0>         0.1082
     33 H5          0.9006    1.0787   -8.5360 H         1 <0>         0.1432
     34 H6          1.0506    2.6377   -3.8520 H         1 <0>         0.1438
     35 H7         -0.7539    5.5035   -3.9494 H         1 <0>         0.1078
     36 H8         -0.6376    3.7942   -3.4667 H         1 <0>         0.0580
     37 H9          0.8393    4.7188   -3.8299 H         1 <0>         0.0577
     38 H10         1.7480   -1.4060   -7.0558 H         1 <0>         0.0927
     39 H11         3.2285   -0.4716   -7.4146 H         1 <0>         0.0925
     40 H12         4.8574   -0.0583   -5.8047 H         1 <0>         0.0823
     41 H13         4.8574   -1.0358   -4.3172 H         1 <0>         0.0822
     42 H14         4.4958   -2.1724   -7.1255 H         1 <0>         0.0950
     43 H15         4.9736   -3.4540   -4.3944 H         1 <0>         0.0914
     44 H16         3.4699   -3.5323   -5.3452 H         1 <0>         0.1144
     45 H17         4.8199   -5.5916   -5.6435 H         1 <0>         0.1311
     46 H18         4.6840   -4.6890   -7.1710 H         1 <0>         0.1295
     47 H19         8.0378   -3.3726   -7.1131 H         1 <0>         0.1315
     48 H20         6.4957   -3.4397   -7.9984 H         1 <0>         0.1282
     49 H21         6.7664   -1.2591   -6.8507 H         1 <0>         0.1129
     50 H22         6.9359   -2.1009   -5.2906 H         1 <0>         0.0893
     51 H23         6.7334   -6.6795   -6.3867 H         1 <0>         0.1365
     52 H24         6.7449   -5.8138   -7.9420 H         1 <0>         0.1348
     53 H25         8.7606   -4.7139   -8.7368 H         1 <0>         0.1306
     54 H26        11.2221   -4.6677   -8.6928 H         1 <0>         0.1361
     55 H27        12.4393   -5.6901   -6.8123 H         1 <0>         0.1360
     56 H28        11.1949   -6.7579   -4.9753 H         1 <0>         0.1363
     57 H29         8.7332   -6.7968   -5.0151 H         1 <0>         0.1311
     58 H30         6.9482   -4.5293   -5.3123 H         1 <0>         0.4220
@<TRIPOS>BOND
     1    1    2 1
     2    1   30 1
     3    1   31 1
     4    1   32 1
     5    2    3 1
     6    3    8 ar
     7    3    4 ar
     8    4    5 ar
     9    4   33 1
    10    5   15 1
    11    5    6 ar
    12    6    7 ar
    13    6   11 1
    14    7    8 ar
    15    7   34 1
    16    8    9 1
    17    9   10 1
    18   10   35 1
    19   10   36 1
    20   10   37 1
    21   11   12 2
    22   11   13 1
    23   13   14 1
    24   13   15 1
    25   13   16 1
    26   15   38 1
    27   15   39 1
    28   16   17 1
    29   16   40 1
    30   16   41 1
    31   17   22 1
    32   17   18 1
    33   17   42 1
    34   18   19 1
    35   18   43 1
    36   18   44 1
    37   19   20 1
    38   19   45 1
    39   19   46 1
    40   20   21 1
    41   20   23 1
    42   20   58 1
    43   21   22 1
    44   21   47 1
    45   21   48 1
    46   22   49 1
    47   22   50 1
    48   23   24 1
    49   23   51 1
    50   23   52 1
    51   24   29 ar
    52   24   25 ar
    53   25   26 ar
    54   25   53 1
    55   26   27 ar
    56   26   54 1
    57   27   28 ar
    58   27   55 1
    59   28   29 ar
    60   28   56 1
    61   29   57 1
@<TRIPOS>MOLECULE
ZINC35079571
   53    56     0     0     0
SMALL
USER_CHARGES

@<TRIPOS>ATOM
      1 C1         -2.0695   -0.7754   -0.2606 C.3       1 <0>        -0.1534
      2 C2         -0.5668   -1.0605   -0.3013 C.3       1 <0>         0.0573
      3 O1         -0.1440   -1.5687    0.9656 O.3       1 <0>        -0.3410
      4 C3          1.1643   -1.8731    1.0980 C.2       1 <0>         0.5264
      5 O2          1.9246   -1.7108    0.1617 O.2       1 <0>        -0.4862
      6 C4          1.6509   -2.3800    2.3233 C.2       1 <0>        -0.1992
      7 C5          1.4841   -3.6839    2.5995 C.2       1 <0>         0.1893
      8 N1          1.9425   -4.2275    3.7643 N.pl3     1 <0>        -0.6323
      9 C6          2.9008   -3.5555    4.5202 C.ar      1 <0>         0.4514
     10 C7          3.1235   -2.2042    4.3050 C.ar      1 <0>        -0.2102
     11 C8          4.0889   -1.5549    5.0646 C.ar      1 <0>         0.3560
     12 C9          4.7991   -2.2887    6.0250 C.ar      1 <0>        -0.1676
     13 C10         4.5197   -3.6220    6.1893 C.ar      1 <0>         0.2136
     14 N2          3.5931   -4.2086    5.4395 N.ar      1 <0>        -0.5260
     15 C11         5.2263   -4.4737    7.2132 C.3       1 <0>        -0.1000
     16 C12         6.5204   -3.8034    7.6690 C.3       1 <0>        -0.1204
     17 C13         6.1995   -2.3633    8.0862 C.3       1 <0>        -0.1264
     18 C14         5.8451   -1.5672    6.8315 C.3       1 <0>        -0.0784
     19 N3          4.3464   -0.2001    4.8751 N.pl3     1 <0>        -0.8028
     20 C15         2.3431   -1.4456    3.2721 C.3       1 <0>         0.0779
     21 H1          3.0199   -0.8018    2.7104 H         1 <0>         0.1052
     22 C16         1.3129   -0.5926    3.9663 C.ar      1 <0>        -0.1009
     23 C17         0.3311   -1.1853    4.7382 C.ar      1 <0>        -0.0958
     24 C18        -0.6139   -0.4028    5.3749 C.ar      1 <0>        -0.1108
     25 C19        -0.5769    0.9725    5.2402 C.ar      1 <0>        -0.1052
     26 C20         0.4053    1.5653    4.4690 C.ar      1 <0>        -0.1073
     27 C21         1.3529    0.7830    3.8357 C.ar      1 <0>        -0.1171
     28 C22         0.7757   -4.5646    1.6027 C.3       1 <0>        -0.1387
     29 H2         -2.2786   -0.0383    0.5146 H         1 <0>         0.0678
     30 H3         -2.3920   -0.3878   -1.2270 H         1 <0>         0.0847
     31 H4         -2.6083   -1.6970   -0.0406 H         1 <0>         0.0677
     32 H5         -0.3577   -1.7976   -1.0766 H         1 <0>         0.0718
     33 H6         -0.0280   -0.1390   -0.5213 H         1 <0>         0.0713
     34 H7          1.6003   -5.0833    4.0667 H         1 <0>         0.4333
     35 H8          4.5731   -4.6168    8.0740 H         1 <0>         0.1158
     36 H9          5.4593   -5.4439    6.7745 H         1 <0>         0.1064
     37 H10         6.9362   -4.3471    8.5173 H         1 <0>         0.0954
     38 H11         7.2387   -3.7965    6.8492 H         1 <0>         0.0806
     39 H12         5.3542   -2.3599    8.7743 H         1 <0>         0.0767
     40 H13         7.0692   -1.9185    8.5698 H         1 <0>         0.0906
     41 H14         6.7405   -1.4364    6.2239 H         1 <0>         0.0969
     42 H15         5.4629   -0.5888    7.1226 H         1 <0>         0.0894
     43 H16         3.8501    0.2992    4.2079 H         1 <0>         0.4197
     44 H17         5.0223    0.2445    5.4103 H         1 <0>         0.4232
     45 H18         0.3023   -2.2597    4.8435 H         1 <0>         0.1111
     46 H19        -1.3813   -0.8659    5.9774 H         1 <0>         0.1266
     47 H20        -1.3157    1.5838    5.7371 H         1 <0>         0.1291
     48 H21         0.4340    2.6397    4.3634 H         1 <0>         0.1301
     49 H22         2.1226    1.2464    3.2363 H         1 <0>         0.1220
     50 H23         1.4883   -4.9137    0.8554 H         1 <0>         0.1012
     51 H24         0.3415   -5.4210    2.1186 H         1 <0>         0.0914
     52 H25        -0.0150   -3.9962    1.1131 H         1 <0>         0.1018
     53 H26         3.4169   -5.1533    5.5713 H         1 <0>         0.4378
@<TRIPOS>BOND
     1    1    2 1
     2    1   29 1
     3    1   30 1
     4    1   31 1
     5    2    3 1
     6    2   32 1
     7    2   33 1
     8    3    4 1
     9    4    5 2
    10    4    6 1
    11    6   20 1
    12    6    7 2
    13    7    8 1
    14    7   28 1
    15    8    9 1
    16    8   34 1
    17    9   14 ar
    18    9   10 ar
    19   10   11 ar
    20   10   20 1
    21   11   12 ar
    22   11   19 1
    23   12   18 1
    24   12   13 ar
    25   13   14 ar
    26   13   15 1
    27   14   53 1
    28   15   16 1
    29   15   35 1
    30   15   36 1
    31   16   17 1
    32   16   37 1
    33   16   38 1
    34   17   18 1
    35   17   39 1
    36   17   40 1
    37   18   41 1
    38   18   42 1
    39   19   43 1
    40   19   44 1
    41   20   21 1
    42   20   22 1
    43   22   27 ar
    44   22   23 ar
    45   23   24 ar
    46   23   45 1
    47   24   25 ar
    48   24   46 1
    49   25   26 ar
    50   25   47 1
    51   26   27 ar
    52   26   48 1
    53   27   49 1
    54   28   50 1
    55   28   51 1
    56   28   52 1
@<TRIPOS>MOLECULE
ZINC35079573
   53    56     0     0     0
SMALL
USER_CHARGES

@<TRIPOS>ATOM
      1 C1          2.0415   -1.9593   -2.4327 C.3       1 <0>        -0.1533
      2 C2          1.1879   -1.5641   -1.2259 C.3       1 <0>         0.0577
      3 O1          1.7581   -2.1166   -0.0378 O.3       1 <0>        -0.3409
      4 C3          1.1214   -1.8597    1.1242 C.2       1 <0>         0.5261
      5 O2          0.1089   -1.1843    1.1269 O.2       1 <0>        -0.4877
      6 C4          1.6301   -2.3746    2.3371 C.2       1 <0>        -0.2005
      7 C5          1.4841   -3.6839    2.5994 C.2       1 <0>         0.1907
      8 N1          1.9484   -4.2317    3.7599 N.pl3     1 <0>        -0.6332
      9 C6          2.2453   -3.4147    4.8489 C.ar      1 <0>         0.4513
     10 C7          2.4268   -2.0536    4.6586 C.ar      1 <0>        -0.2102
     11 C8          2.7198   -1.2565    5.7584 C.ar      1 <0>         0.3562
     12 C9          2.8222   -1.8579    7.0206 C.ar      1 <0>        -0.1676
     13 C10         2.6271   -3.2114    7.1344 C.ar      1 <0>         0.2136
     14 N2          2.3510   -3.9403    6.0587 N.ar      1 <0>        -0.5259
     15 C11         2.7055   -3.9289    8.4580 C.3       1 <0>        -0.1001
     16 C12         3.4420   -3.0758    9.4885 C.3       1 <0>        -0.1204
     17 C13         2.8042   -1.6816    9.5075 C.3       1 <0>        -0.1267
     18 C14         3.1487   -0.9773    8.1965 C.3       1 <0>        -0.0783
     19 N3          2.9086    0.1145    5.6095 N.pl3     1 <0>        -0.8026
     20 C15         2.3216   -1.4425    3.2886 C.3       1 <0>         0.0786
     21 H1          1.7544   -0.5141    3.3557 H         1 <0>         0.1058
     22 C16         3.7033   -1.1402    2.7686 C.ar      1 <0>        -0.1020
     23 C17         4.6088   -2.1666    2.5748 C.ar      1 <0>        -0.0962
     24 C18         5.8763   -1.8893    2.0979 C.ar      1 <0>        -0.1111
     25 C19         6.2381   -0.5857    1.8141 C.ar      1 <0>        -0.1050
     26 C20         5.3324    0.4406    2.0070 C.ar      1 <0>        -0.1078
     27 C21         4.0635    0.1628    2.4799 C.ar      1 <0>        -0.1165
     28 C22         0.7929   -4.5659    1.5917 C.3       1 <0>        -0.1354
     29 H2          2.0725   -3.0457   -2.5157 H         1 <0>         0.0677
     30 H3          1.6065   -1.5379   -3.3389 H         1 <0>         0.0845
     31 H4          3.0535   -1.5758   -2.3030 H         1 <0>         0.0677
     32 H5          1.1569   -0.4777   -1.1429 H         1 <0>         0.0711
     33 H6          0.1759   -1.9476   -1.3555 H         1 <0>         0.0716
     34 H7          2.0717   -5.1915    3.8269 H         1 <0>         0.4336
     35 H8          1.6965   -4.1338    8.8161 H         1 <0>         0.1163
     36 H9          3.2373   -4.8710    8.3252 H         1 <0>         0.1062
     37 H10         3.3540   -3.5332   10.4740 H         1 <0>         0.0954
     38 H11         4.4936   -2.9946    9.2136 H         1 <0>         0.0803
     39 H12         1.7222   -1.7739    9.6014 H         1 <0>         0.0770
     40 H13         3.1986   -1.1087   10.3468 H         1 <0>         0.0906
     41 H14         4.2128   -0.7413    8.1842 H         1 <0>         0.0966
     42 H15         2.5754   -0.0531    8.1235 H         1 <0>         0.0895
     43 H16         2.8361    0.5216    4.7321 H         1 <0>         0.4198
     44 H17         3.1128    0.6628    6.3832 H         1 <0>         0.4232
     45 H18         4.3261   -3.1851    2.7965 H         1 <0>         0.1115
     46 H19         6.5839   -2.6912    1.9472 H         1 <0>         0.1268
     47 H20         7.2286   -0.3690    1.4422 H         1 <0>         0.1292
     48 H21         5.6152    1.4591    1.7857 H         1 <0>         0.1303
     49 H22         3.3546    0.9642    2.6271 H         1 <0>         0.1224
     50 H23         1.5177   -4.9134    0.8555 H         1 <0>         0.1068
     51 H24         0.3525   -5.4232    2.1008 H         1 <0>         0.0904
     52 H25         0.0087   -3.9990    1.0900 H         1 <0>         0.0948
     53 H26         2.2216   -4.8958    6.1642 H         1 <0>         0.4378
@<TRIPOS>BOND
     1    1    2 1
     2    1   29 1
     3    1   30 1
     4    1   31 1
     5    2    3 1
     6    2   32 1
     7    2   33 1
     8    3    4 1
     9    4    5 2
    10    4    6 1
    11    6   20 1
    12    6    7 2
    13    7    8 1
    14    7   28 1
    15    8    9 1
    16    8   34 1
    17    9   14 ar
    18    9   10 ar
    19   10   11 ar
    20   10   20 1
    21   11   12 ar
    22   11   19 1
    23   12   18 1
    24   12   13 ar
    25   13   14 ar
    26   13   15 1
    27   14   53 1
    28   15   16 1
    29   15   35 1
    30   15   36 1
    31   16   17 1
    32   16   37 1
    33   16   38 1
    34   17   18 1
    35   17   39 1
    36   17   40 1
    37   18   41 1
    38   18   42 1
    39   19   43 1
    40   19   44 1
    41   20   21 1
    42   20   22 1
    43   22   27 ar
    44   22   23 ar
    45   23   24 ar
    46   23   45 1
    47   24   25 ar
    48   24   46 1
    49   25   26 ar
    50   25   47 1
    51   26   27 ar
    52   26   48 1
    53   27   49 1
    54   28   50 1
    55   28   51 1
    56   28   52 1
@<TRIPOS>MOLECULE
ZINC35079611
   57    60     0     0     0
SMALL
USER_CHARGES

@<TRIPOS>ATOM
      1 C1         -2.0695   -0.7754   -0.2606 C.3       1 <0>        -0.1532
      2 C2         -0.5668   -1.0605   -0.3013 C.3       1 <0>         0.0571
      3 O1         -0.1440   -1.5687    0.9656 O.3       1 <0>        -0.3408
      4 C3          1.1643   -1.8731    1.0980 C.2       1 <0>         0.5261
      5 O2          1.9246   -1.7108    0.1617 O.2       1 <0>        -0.4854
      6 C4          1.6509   -2.3800    2.3233 C.2       1 <0>        -0.1990
      7 C5          1.4841   -3.6839    2.5995 C.2       1 <0>         0.1911
      8 N1          1.9425   -4.2275    3.7643 N.pl3     1 <0>        -0.6320
      9 C6          2.9008   -3.5555    4.5202 C.ar      1 <0>         0.4527
     10 C7          3.1235   -2.2042    4.3050 C.ar      1 <0>        -0.2105
     11 C8          4.0889   -1.5549    5.0646 C.ar      1 <0>         0.3565
     12 C9          4.7991   -2.2887    6.0250 C.ar      1 <0>        -0.1675
     13 C10         4.5197   -3.6220    6.1893 C.ar      1 <0>         0.2137
     14 N2          3.5931   -4.2086    5.4395 N.ar      1 <0>        -0.5261
     15 C11         5.2263   -4.4737    7.2132 C.3       1 <0>        -0.0999
     16 C12         6.5204   -3.8034    7.6690 C.3       1 <0>        -0.1205
     17 C13         6.1995   -2.3633    8.0862 C.3       1 <0>        -0.1264
     18 C14         5.8451   -1.5672    6.8315 C.3       1 <0>        -0.0786
     19 N3          4.3464   -0.2001    4.8751 N.pl3     1 <0>        -0.8018
     20 C15         2.3431   -1.4456    3.2721 C.3       1 <0>         0.0784
     21 H1          3.0199   -0.8018    2.7104 H         1 <0>         0.1072
     22 C16         1.3129   -0.5926    3.9663 C.ar      1 <0>        -0.0606
     23 C17         0.3310   -1.1861    4.7383 C.ar      1 <0>        -0.1351
     24 C18        -0.6155   -0.4063    5.3764 C.ar      1 <0>        -0.0685
     25 C19        -0.5829    0.9686    5.2437 C.ar      1 <0>        -0.1972
     26 C20         0.4009    1.5664    4.4699 C.ar      1 <0>         0.1425
     27 C21         1.3534    0.7819    3.8354 C.ar      1 <0>        -0.1525
     28 O3          0.4351    2.9185    4.3379 O.3       1 <0>        -0.3142
     29 C22        -0.5733    3.6631    5.0240 C.3       1 <0>         0.0242
     30 C23         0.7757   -4.5646    1.6027 C.3       1 <0>        -0.1388
     31 H2         -2.2786   -0.0383    0.5146 H         1 <0>         0.0672
     32 H3         -2.3920   -0.3878   -1.2270 H         1 <0>         0.0845
     33 H4         -2.6083   -1.6970   -0.0406 H         1 <0>         0.0677
     34 H5         -0.3577   -1.7977   -1.0766 H         1 <0>         0.0720
     35 H6         -0.0280   -0.1390   -0.5213 H         1 <0>         0.0716
     36 H7          1.6003   -5.0833    4.0667 H         1 <0>         0.4334
     37 H8          4.5731   -4.6168    8.0740 H         1 <0>         0.1157
     38 H9          5.4593   -5.4439    6.7745 H         1 <0>         0.1063
     39 H10         6.9362   -4.3471    8.5173 H         1 <0>         0.0952
     40 H11         7.2387   -3.7965    6.8492 H         1 <0>         0.0806
     41 H12         5.3542   -2.3599    8.7743 H         1 <0>         0.0766
     42 H13         7.0692   -1.9185    8.5698 H         1 <0>         0.0904
     43 H14         6.7405   -1.4364    6.2239 H         1 <0>         0.0971
     44 H15         5.4629   -0.5888    7.1226 H         1 <0>         0.0894
     45 H16         3.8501    0.2992    4.2079 H         1 <0>         0.4205
     46 H17         5.0223    0.2445    5.4103 H         1 <0>         0.4233
     47 H18         0.3034   -2.2607    4.8427 H         1 <0>         0.1138
     48 H19        -1.3813   -0.8722    5.9788 H         1 <0>         0.1299
     49 H20        -1.3230    1.5773    5.7419 H         1 <0>         0.1344
     50 H21         2.1233    1.2452    3.2362 H         1 <0>         0.1304
     51 H22        -0.4312    4.7271    4.8350 H         1 <0>         0.1070
     52 H23        -1.5567    3.3586    4.6657 H         1 <0>         0.0601
     53 H24        -0.5013    3.4714    6.0946 H         1 <0>         0.0588
     54 H25         1.4883   -4.9137    0.8554 H         1 <0>         0.1014
     55 H26         0.3415   -5.4210    2.1186 H         1 <0>         0.0915
     56 H27        -0.0150   -3.9962    1.1131 H         1 <0>         0.1020
     57 H28         3.4169   -5.1533    5.5713 H         1 <0>         0.4378
@<TRIPOS>BOND
     1    1    2 1
     2    1   31 1
     3    1   32 1
     4    1   33 1
     5    2    3 1
     6    2   34 1
     7    2   35 1
     8    3    4 1
     9    4    5 2
    10    4    6 1
    11    6   20 1
    12    6    7 2
    13    7    8 1
    14    7   30 1
    15    8    9 1
    16    8   36 1
    17    9   14 ar
    18    9   10 ar
    19   10   11 ar
    20   10   20 1
    21   11   12 ar
    22   11   19 1
    23   12   18 1
    24   12   13 ar
    25   13   14 ar
    26   13   15 1
    27   14   57 1
    28   15   16 1
    29   15   37 1
    30   15   38 1
    31   16   17 1
    32   16   39 1
    33   16   40 1
    34   17   18 1
    35   17   41 1
    36   17   42 1
    37   18   43 1
    38   18   44 1
    39   19   45 1
    40   19   46 1
    41   20   21 1
    42   20   22 1
    43   22   27 ar
    44   22   23 ar
    45   23   24 ar
    46   23   47 1
    47   24   25 ar
    48   24   48 1
    49   25   26 ar
    50   25   49 1
    51   26   27 ar
    52   26   28 1
    53   27   50 1
    54   28   29 1
    55   29   51 1
    56   29   52 1
    57   29   53 1
    58   30   54 1
    59   30   55 1
    60   30   56 1
@<TRIPOS>MOLECULE
ZINC35079613
   57    60     0     0     0
SMALL
USER_CHARGES

@<TRIPOS>ATOM
      1 C1          2.0415   -1.9593   -2.4327 C.3       1 <0>        -0.1531
      2 C2          1.1879   -1.5641   -1.2259 C.3       1 <0>         0.0576
      3 O1          1.7581   -2.1166   -0.0378 O.3       1 <0>        -0.3407
      4 C3          1.1214   -1.8597    1.1242 C.2       1 <0>         0.5258
      5 O2          0.1089   -1.1843    1.1269 O.2       1 <0>        -0.4868
      6 C4          1.6301   -2.3746    2.3371 C.2       1 <0>        -0.2002
      7 C5          1.4841   -3.6839    2.5994 C.2       1 <0>         0.1925
      8 N1          1.9484   -4.2317    3.7599 N.pl3     1 <0>        -0.6329
      9 C6          2.2453   -3.4147    4.8489 C.ar      1 <0>         0.4526
     10 C7          2.4268   -2.0536    4.6586 C.ar      1 <0>        -0.2105
     11 C8          2.7198   -1.2565    5.7584 C.ar      1 <0>         0.3568
     12 C9          2.8222   -1.8579    7.0206 C.ar      1 <0>        -0.1675
     13 C10         2.6271   -3.2114    7.1344 C.ar      1 <0>         0.2137
     14 N2          2.3510   -3.9403    6.0587 N.ar      1 <0>        -0.5261
     15 C11         2.7055   -3.9289    8.4580 C.3       1 <0>        -0.1000
     16 C12         3.4420   -3.0758    9.4885 C.3       1 <0>        -0.1204
     17 C13         2.8042   -1.6816    9.5075 C.3       1 <0>        -0.1266
     18 C14         3.1487   -0.9773    8.1965 C.3       1 <0>        -0.0785
     19 N3          2.9086    0.1145    5.6095 N.pl3     1 <0>        -0.8017
     20 C15         2.3216   -1.4425    3.2885 C.3       1 <0>         0.0790
     21 H1          1.7544   -0.5141    3.3557 H         1 <0>         0.1077
     22 C16         3.7033   -1.1402    2.7686 C.ar      1 <0>        -0.0617
     23 C17         4.6087   -2.1674    2.5750 C.ar      1 <0>        -0.1355
     24 C18         5.8770   -1.8935    2.0981 C.ar      1 <0>        -0.0688
     25 C19         6.2433   -0.5919    1.8141 C.ar      1 <0>        -0.1969
     26 C20         5.3370    0.4403    2.0074 C.ar      1 <0>         0.1419
     27 C21         4.0626    0.1620    2.4803 C.ar      1 <0>        -0.1518
     28 O3          5.6949    1.7214    1.7287 O.3       1 <0>        -0.3141
     29 C22         7.0208    1.9328    1.2396 C.3       1 <0>         0.0241
     30 C23         0.7929   -4.5659    1.5917 C.3       1 <0>        -0.1354
     31 H2          2.0725   -3.0457   -2.5157 H         1 <0>         0.0677
     32 H3          1.6065   -1.5379   -3.3389 H         1 <0>         0.0844
     33 H4          3.0535   -1.5758   -2.3030 H         1 <0>         0.0672
     34 H5          1.1569   -0.4777   -1.1429 H         1 <0>         0.0713
     35 H6          0.1759   -1.9477   -1.3555 H         1 <0>         0.0717
     36 H7          2.0717   -5.1915    3.8269 H         1 <0>         0.4337
     37 H8          1.6965   -4.1338    8.8161 H         1 <0>         0.1163
     38 H9          3.2373   -4.8710    8.3252 H         1 <0>         0.1061
     39 H10         3.3539   -3.5332   10.4740 H         1 <0>         0.0952
     40 H11         4.4936   -2.9946    9.2136 H         1 <0>         0.0802
     41 H12         1.7221   -1.7739    9.6014 H         1 <0>         0.0771
     42 H13         3.1986   -1.1087   10.3468 H         1 <0>         0.0904
     43 H14         4.2128   -0.7413    8.1842 H         1 <0>         0.0965
     44 H15         2.5754   -0.0531    8.1235 H         1 <0>         0.0897
     45 H16         2.8361    0.5216    4.7321 H         1 <0>         0.4206
     46 H17         3.1128    0.6628    6.3832 H         1 <0>         0.4233
     47 H18         4.3245   -3.1854    2.7971 H         1 <0>         0.1141
     48 H19         6.5822   -2.6975    1.9478 H         1 <0>         0.1301
     49 H20         7.2345   -0.3782    1.4422 H         1 <0>         0.1346
     50 H21         3.3536    0.9633    2.6272 H         1 <0>         0.1308
     51 H22         7.1758    2.9964    1.0579 H         1 <0>         0.1071
     52 H23         7.7410    1.5817    1.9786 H         1 <0>         0.0588
     53 H24         7.1570    1.3817    0.3091 H         1 <0>         0.0601
     54 H25         1.5177   -4.9134    0.8555 H         1 <0>         0.1070
     55 H26         0.3525   -5.4232    2.1008 H         1 <0>         0.0905
     56 H27         0.0087   -3.9990    1.0900 H         1 <0>         0.0950
     57 H28         2.2216   -4.8958    6.1642 H         1 <0>         0.4378
@<TRIPOS>BOND
     1    1    2 1
     2    1   31 1
     3    1   32 1
     4    1   33 1
     5    2    3 1
     6    2   34 1
     7    2   35 1
     8    3    4 1
     9    4    5 2
    10    4    6 1
    11    6   20 1
    12    6    7 2
    13    7    8 1
    14    7   30 1
    15    8    9 1
    16    8   36 1
    17    9   14 ar
    18    9   10 ar
    19   10   11 ar
    20   10   20 1
    21   11   12 ar
    22   11   19 1
    23   12   18 1
    24   12   13 ar
    25   13   14 ar
    26   13   15 1
    27   14   57 1
    28   15   16 1
    29   15   37 1
    30   15   38 1
    31   16   17 1
    32   16   39 1
    33   16   40 1
    34   17   18 1
    35   17   41 1
    36   17   42 1
    37   18   43 1
    38   18   44 1
    39   19   45 1
    40   19   46 1
    41   20   21 1
    42   20   22 1
    43   22   27 ar
    44   22   23 ar
    45   23   24 ar
    46   23   47 1
    47   24   25 ar
    48   24   48 1
    49   25   26 ar
    50   25   49 1
    51   26   27 ar
    52   26   28 1
    53   27   50 1
    54   28   29 1
    55   29   51 1
    56   29   52 1
    57   29   53 1
    58   30   54 1
    59   30   55 1
    60   30   56 1
@<TRIPOS>MOLECULE
ZINC35079600
   53    56     0     0     0
SMALL
USER_CHARGES

@<TRIPOS>ATOM
      1 C1          0.8292   -0.7481    1.9301 C.3       1 <0>        -0.1539
      2 C2          0.0503   -1.0574    0.6500 C.3       1 <0>         0.0573
      3 O1          0.9486   -1.5466   -0.3478 O.3       1 <0>        -0.3416
      4 C3          0.4172   -1.8687   -1.5459 C.2       1 <0>         0.5256
      5 O2         -0.7776   -1.7370   -1.7368 O.2       1 <0>        -0.4850
      6 C4          1.2476   -2.3585   -2.5782 C.2       1 <0>        -0.2018
      7 C5          1.6028   -3.6539   -2.5672 C.2       1 <0>         0.1918
      8 N1          2.3959   -4.1812   -3.5447 N.pl3     1 <0>        -0.6326
      9 C6          2.5546   -3.5092   -4.7549 C.ar      1 <0>         0.4520
     10 C7          2.2230   -2.1661   -4.8448 C.ar      1 <0>        -0.2126
     11 C8          2.3821   -1.5168   -6.0630 C.ar      1 <0>         0.3566
     12 C9          2.8771   -2.2422   -7.1556 C.ar      1 <0>        -0.1672
     13 C10         3.1924   -3.5675   -6.9912 C.ar      1 <0>         0.2148
     14 N2          3.0210   -4.1545   -5.8118 N.ar      1 <0>        -0.5257
     15 C11         3.7472   -4.4094   -8.1120 C.3       1 <0>        -0.1005
     16 C12         3.4783   -3.7504   -9.4630 C.3       1 <0>        -0.1205
     17 C13         3.9637   -2.2974   -9.3987 C.3       1 <0>        -0.1267
     18 C14         3.0345   -1.5212   -8.4672 C.3       1 <0>        -0.0787
     19 N3          2.0553   -0.1703   -6.1960 N.pl3     1 <0>        -0.8030
     20 C15         1.6997   -1.4163   -3.6553 C.3       1 <0>         0.0805
     21 H1          0.8590   -0.7944   -3.9629 H         1 <0>         0.1080
     22 C16         2.7942   -0.5335   -3.1131 C.ar      1 <0>        -0.1144
     23 C17         3.9678   -1.0959   -2.6469 C.ar      1 <0>        -0.0655
     24 C18         4.9724   -0.2874   -2.1499 C.ar      1 <0>        -0.1460
     25 C19         4.8030    1.0864   -2.1189 C.ar      1 <0>         0.1165
     26 C20         3.6270    1.6486   -2.5861 C.ar      1 <0>        -0.1427
     27 C21         2.6260    0.8384   -3.0876 C.ar      1 <0>        -0.0865
     28 F1          5.7841    1.8778   -1.6328 F         1 <0>        -0.1300
     29 C22         1.1158   -4.5432   -1.4523 C.3       1 <0>        -0.1395
     30 H2          1.3122   -1.6566    2.2900 H         1 <0>         0.0679
     31 H3          1.5865    0.0075    1.7210 H         1 <0>         0.0677
     32 H4          0.1440   -0.3750    2.6912 H         1 <0>         0.0850
     33 H5         -0.7070   -1.8130    0.8591 H         1 <0>         0.0723
     34 H6         -0.4327   -0.1489    0.2902 H         1 <0>         0.0717
     35 H7          2.8502   -5.0253   -3.3965 H         1 <0>         0.4339
     36 H8          4.8225   -4.5251   -7.9762 H         1 <0>         0.1162
     37 H9          3.2752   -5.3918   -8.0911 H         1 <0>         0.1067
     38 H10         4.0186   -4.2835  -10.2453 H         1 <0>         0.0956
     39 H11         2.4094   -3.7711   -9.6752 H         1 <0>         0.0807
     40 H12         4.9818   -2.2671   -9.0107 H         1 <0>         0.0768
     41 H13         3.9367   -1.8567  -10.3953 H         1 <0>         0.0908
     42 H14         2.0577   -1.4166   -8.9394 H         1 <0>         0.0973
     43 H15         3.4530   -0.5313   -8.2852 H         1 <0>         0.0897
     44 H16         1.7131    0.3233   -5.4343 H         1 <0>         0.4192
     45 H17         2.1697    0.2744   -7.0505 H         1 <0>         0.4239
     46 H18         4.0996   -2.1676   -2.6708 H         1 <0>         0.1221
     47 H19         5.8891   -0.7270   -1.7854 H         1 <0>         0.1409
     48 H20         3.4937    2.7201   -2.5622 H         1 <0>         0.1444
     49 H21         1.7105    1.2770   -3.4561 H         1 <0>         0.1338
     50 H22         0.1214   -4.9182   -1.6946 H         1 <0>         0.1019
     51 H23         1.8010   -5.3822   -1.3312 H         1 <0>         0.0919
     52 H24         1.0728   -3.9724   -0.5247 H         1 <0>         0.1024
     53 H25         3.2468   -5.0935   -5.7218 H         1 <0>         0.4383
@<TRIPOS>BOND
     1    1    2 1
     2    1   30 1
     3    1   31 1
     4    1   32 1
     5    2    3 1
     6    2   33 1
     7    2   34 1
     8    3    4 1
     9    4    5 2
    10    4    6 1
    11    6   20 1
    12    6    7 2
    13    7    8 1
    14    7   29 1
    15    8    9 1
    16    8   35 1
    17    9   14 ar
    18    9   10 ar
    19   10   11 ar
    20   10   20 1
    21   11   12 ar
    22   11   19 1
    23   12   18 1
    24   12   13 ar
    25   13   14 ar
    26   13   15 1
    27   14   53 1
    28   15   16 1
    29   15   36 1
    30   15   37 1
    31   16   17 1
    32   16   38 1
    33   16   39 1
    34   17   18 1
    35   17   40 1
    36   17   41 1
    37   18   42 1
    38   18   43 1
    39   19   44 1
    40   19   45 1
    41   20   21 1
    42   20   22 1
    43   22   27 ar
    44   22   23 ar
    45   23   24 ar
    46   23   46 1
    47   24   25 ar
    48   24   47 1
    49   25   26 ar
    50   25   28 1
    51   26   27 ar
    52   26   48 1
    53   27   49 1
    54   29   50 1
    55   29   51 1
    56   29   52 1
@<TRIPOS>MOLECULE
ZINC35079602
   53    56     0     0     0
SMALL
USER_CHARGES

@<TRIPOS>ATOM
      1 C1         -3.0760   -2.0391   -0.5401 C.3       1 <0>        -0.1538
      2 C2         -1.6145   -1.6067   -0.4056 C.3       1 <0>         0.0578
      3 O1         -0.8569   -2.1440   -1.4915 O.3       1 <0>        -0.3414
      4 C3          0.4609   -1.8541   -1.5219 C.2       1 <0>         0.5253
      5 O2          0.9523   -1.1631   -0.6488 O.2       1 <0>        -0.4864
      6 C4          1.2698   -2.3525   -2.5671 C.2       1 <0>        -0.2032
      7 C5          1.6027   -3.6539   -2.5672 C.2       1 <0>         0.1932
      8 N1          2.3892   -4.1855   -3.5476 N.pl3     1 <0>        -0.6335
      9 C6          3.1633   -3.3517   -4.3520 C.ar      1 <0>         0.4520
     10 C7          2.8736   -1.9976   -4.4189 C.ar      1 <0>        -0.2126
     11 C8          3.6594   -1.1834   -5.2252 C.ar      1 <0>         0.3568
     12 C9          4.7161   -1.7609   -5.9428 C.ar      1 <0>        -0.1671
     13 C10         4.9461   -3.1086   -5.8261 C.ar      1 <0>         0.2146
     14 N2          4.1710   -3.8545   -5.0465 N.ar      1 <0>        -0.5256
     15 C11         6.0710   -3.8007   -6.5531 C.3       1 <0>        -0.1005
     16 C12         6.5738   -2.9388   -7.7092 C.3       1 <0>        -0.1206
     17 C13         6.8740   -1.5346   -7.1712 C.3       1 <0>        -0.1268
     18 C14         5.5490   -0.8622   -6.8166 C.3       1 <0>        -0.0787
     19 N3          3.4017    0.1813   -5.3191 N.pl3     1 <0>        -0.8029
     20 C15         1.7246   -1.4124   -3.6449 C.3       1 <0>         0.0812
     21 H1          2.0429   -0.4741   -3.1905 H         1 <0>         0.1086
     22 C16         0.5763   -1.1422   -4.5826 C.ar      1 <0>        -0.1155
     23 C17        -0.0178   -2.1867   -5.2661 C.ar      1 <0>        -0.0658
     24 C18        -1.0712   -1.9401   -6.1259 C.ar      1 <0>        -0.1464
     25 C19        -1.5316   -0.6463   -6.3028 C.ar      1 <0>         0.1168
     26 C20        -0.9357    0.3990   -5.6177 C.ar      1 <0>        -0.1432
     27 C21         0.1141    0.1494   -4.7544 C.ar      1 <0>        -0.0859
     28 F1         -2.5610   -0.4041   -7.1435 F         1 <0>        -0.1298
     29 C22         1.0978   -4.5450   -1.4617 C.3       1 <0>        -0.1361
     30 H2         -3.4791   -1.6689   -1.4827 H         1 <0>         0.0676
     31 H3         -3.1361   -3.1273   -0.5217 H         1 <0>         0.0679
     32 H4         -3.6539   -1.6292    0.2882 H         1 <0>         0.0849
     33 H5         -1.5544   -0.5185   -0.4241 H         1 <0>         0.0715
     34 H6         -1.2114   -1.9769    0.5370 H         1 <0>         0.0720
     35 H7          2.4097   -5.1456   -3.6846 H         1 <0>         0.4342
     36 H8          6.8904   -3.9826   -5.8577 H         1 <0>         0.1166
     37 H9          5.7139   -4.7535   -6.9440 H         1 <0>         0.1065
     38 H10         7.4825   -3.3749   -8.1240 H         1 <0>         0.0955
     39 H11         5.8082   -2.8795   -8.4828 H         1 <0>         0.0804
     40 H12         7.4983   -1.6083   -6.2807 H         1 <0>         0.0771
     41 H13         7.3892   -0.9514   -7.9344 H         1 <0>         0.0908
     42 H14         5.0007   -0.6431   -7.7328 H         1 <0>         0.0970
     43 H15         5.7491    0.0692   -6.2868 H         1 <0>         0.0899
     44 H16         2.6681    0.5719   -4.8190 H         1 <0>         0.4193
     45 H17         3.9558    0.7417   -5.8846 H         1 <0>         0.4239
     46 H18         0.3416   -3.1958   -5.1282 H         1 <0>         0.1224
     47 H19        -1.5350   -2.7563   -6.6600 H         1 <0>         0.1411
     48 H20        -1.2938    1.4086   -5.7551 H         1 <0>         0.1445
     49 H21         0.5761    0.9640   -4.2165 H         1 <0>         0.1342
     50 H22         0.1068   -4.9184   -1.7201 H         1 <0>         0.1074
     51 H23         1.7801   -5.3850   -1.3318 H         1 <0>         0.0909
     52 H24         1.0411   -3.9761   -0.5337 H         1 <0>         0.0954
     53 H25         4.3511   -4.8056   -4.9839 H         1 <0>         0.4383
@<TRIPOS>BOND
     1    1    2 1
     2    1   30 1
     3    1   31 1
     4    1   32 1
     5    2    3 1
     6    2   33 1
     7    2   34 1
     8    3    4 1
     9    4    5 2
    10    4    6 1
    11    6   20 1
    12    6    7 2
    13    7    8 1
    14    7   29 1
    15    8    9 1
    16    8   35 1
    17    9   14 ar
    18    9   10 ar
    19   10   11 ar
    20   10   20 1
    21   11   12 ar
    22   11   19 1
    23   12   18 1
    24   12   13 ar
    25   13   14 ar
    26   13   15 1
    27   14   53 1
    28   15   16 1
    29   15   36 1
    30   15   37 1
    31   16   17 1
    32   16   38 1
    33   16   39 1
    34   17   18 1
    35   17   40 1
    36   17   41 1
    37   18   42 1
    38   18   43 1
    39   19   44 1
    40   19   45 1
    41   20   21 1
    42   20   22 1
    43   22   27 ar
    44   22   23 ar
    45   23   24 ar
    46   23   46 1
    47   24   25 ar
    48   24   47 1
    49   25   26 ar
    50   25   28 1
    51   26   27 ar
    52   26   48 1
    53   27   49 1
    54   29   50 1
    55   29   51 1
    56   29   52 1
@<TRIPOS>MOLECULE
ZINC35079607
   56    59     0     0     0
SMALL
USER_CHARGES

@<TRIPOS>ATOM
      1 C1          0.8292   -0.7481    1.9301 C.3       1 <0>        -0.1533
      2 C2          0.0503   -1.0574    0.6500 C.3       1 <0>         0.0573
      3 O1          0.9486   -1.5466   -0.3478 O.3       1 <0>        -0.3408
      4 C3          0.4172   -1.8687   -1.5459 C.2       1 <0>         0.5266
      5 O2         -0.7776   -1.7370   -1.7368 O.2       1 <0>        -0.4865
      6 C4          1.2476   -2.3585   -2.5782 C.2       1 <0>        -0.1985
      7 C5          1.6028   -3.6539   -2.5672 C.2       1 <0>         0.1885
      8 N1          2.3959   -4.1812   -3.5447 N.pl3     1 <0>        -0.6323
      9 C6          2.5546   -3.5092   -4.7549 C.ar      1 <0>         0.4510
     10 C7          2.2230   -2.1661   -4.8448 C.ar      1 <0>        -0.2095
     11 C8          2.3821   -1.5168   -6.0630 C.ar      1 <0>         0.3560
     12 C9          2.8771   -2.2422   -7.1556 C.ar      1 <0>        -0.1677
     13 C10         3.1924   -3.5675   -6.9912 C.ar      1 <0>         0.2134
     14 N2          3.0210   -4.1545   -5.8118 N.ar      1 <0>        -0.5261
     15 C11         3.7472   -4.4094   -8.1120 C.3       1 <0>        -0.1000
     16 C12         3.4783   -3.7504   -9.4630 C.3       1 <0>        -0.1204
     17 C13         3.9637   -2.2974   -9.3987 C.3       1 <0>        -0.1264
     18 C14         3.0345   -1.5212   -8.4672 C.3       1 <0>        -0.0783
     19 N3          2.0553   -0.1703   -6.1960 N.pl3     1 <0>        -0.8027
     20 C15         1.6997   -1.4163   -3.6553 C.3       1 <0>         0.0789
     21 H1          0.8590   -0.7944   -3.9629 H         1 <0>         0.1047
     22 C16         2.7942   -0.5335   -3.1131 C.ar      1 <0>        -0.1080
     23 C17         3.9680   -1.0953   -2.6467 C.ar      1 <0>        -0.0902
     24 C18         4.9719   -0.2856   -2.1494 C.ar      1 <0>        -0.1134
     25 C19         4.8022    1.0859   -2.1188 C.ar      1 <0>        -0.0670
     26 C20         3.6288    1.6478   -2.5860 C.ar      1 <0>        -0.1102
     27 C21         2.6266    0.8384   -3.0873 C.ar      1 <0>        -0.1116
     28 C22         5.8963    1.9686   -1.5757 C.3       1 <0>        -0.1239
     29 C23         1.1158   -4.5432   -1.4523 C.3       1 <0>        -0.1386
     30 H2          1.3122   -1.6566    2.2900 H         1 <0>         0.0676
     31 H3          1.5865    0.0075    1.7210 H         1 <0>         0.0677
     32 H4          0.1440   -0.3750    2.6912 H         1 <0>         0.0846
     33 H5         -0.7070   -1.8130    0.8591 H         1 <0>         0.0717
     34 H6         -0.4327   -0.1489    0.2902 H         1 <0>         0.0712
     35 H7          2.8502   -5.0253   -3.3965 H         1 <0>         0.4332
     36 H8          4.8225   -4.5251   -7.9762 H         1 <0>         0.1157
     37 H9          3.2752   -5.3918   -8.0911 H         1 <0>         0.1063
     38 H10         4.0186   -4.2835  -10.2453 H         1 <0>         0.0953
     39 H11         2.4094   -3.7711   -9.6752 H         1 <0>         0.0806
     40 H12         4.9818   -2.2671   -9.0107 H         1 <0>         0.0766
     41 H13         3.9367   -1.8567  -10.3953 H         1 <0>         0.0905
     42 H14         2.0577   -1.4166   -8.9394 H         1 <0>         0.0968
     43 H15         3.4530   -0.5313   -8.2852 H         1 <0>         0.0893
     44 H16         1.7131    0.3233   -5.4343 H         1 <0>         0.4198
     45 H17         2.1697    0.2744   -7.0505 H         1 <0>         0.4230
     46 H18         4.1005   -2.1669   -2.6706 H         1 <0>         0.1111
     47 H19         5.8887   -0.7246   -1.7843 H         1 <0>         0.1259
     48 H20         3.4961    2.7194   -2.5618 H         1 <0>         0.1294
     49 H21         1.7113    1.2776   -3.4558 H         1 <0>         0.1220
     50 H22         6.5690    2.2530   -2.3848 H         1 <0>         0.0757
     51 H23         5.4564    2.8643   -1.1371 H         1 <0>         0.0721
     52 H24         6.4547    1.4270   -0.8122 H         1 <0>         0.0711
     53 H25         0.1214   -4.9182   -1.6946 H         1 <0>         0.1011
     54 H26         1.8010   -5.3822   -1.3312 H         1 <0>         0.0913
     55 H27         1.0728   -3.9724   -0.5247 H         1 <0>         0.1017
     56 H28         3.2468   -5.0935   -5.7218 H         1 <0>         0.4377
@<TRIPOS>BOND
     1    1    2 1
     2    1   30 1
     3    1   31 1
     4    1   32 1
     5    2    3 1
     6    2   33 1
     7    2   34 1
     8    3    4 1
     9    4    5 2
    10    4    6 1
    11    6   20 1
    12    6    7 2
    13    7    8 1
    14    7   29 1
    15    8    9 1
    16    8   35 1
    17    9   14 ar
    18    9   10 ar
    19   10   11 ar
    20   10   20 1
    21   11   12 ar
    22   11   19 1
    23   12   18 1
    24   12   13 ar
    25   13   14 ar
    26   13   15 1
    27   14   56 1
    28   15   16 1
    29   15   36 1
    30   15   37 1
    31   16   17 1
    32   16   38 1
    33   16   39 1
    34   17   18 1
    35   17   40 1
    36   17   41 1
    37   18   42 1
    38   18   43 1
    39   19   44 1
    40   19   45 1
    41   20   21 1
    42   20   22 1
    43   22   27 ar
    44   22   23 ar
    45   23   24 ar
    46   23   46 1
    47   24   25 ar
    48   24   47 1
    49   25   26 ar
    50   25   28 1
    51   26   27 ar
    52   26   48 1
    53   27   49 1
    54   28   50 1
    55   28   51 1
    56   28   52 1
    57   29   53 1
    58   29   54 1
    59   29   55 1
@<TRIPOS>MOLECULE
ZINC35079609
   56    59     0     0     0
SMALL
USER_CHARGES

@<TRIPOS>ATOM
      1 C1         -3.0760   -2.0391   -0.5401 C.3       1 <0>        -0.1532
      2 C2         -1.6145   -1.6067   -0.4056 C.3       1 <0>         0.0578
      3 O1         -0.8569   -2.1440   -1.4915 O.3       1 <0>        -0.3408
      4 C3          0.4609   -1.8541   -1.5219 C.2       1 <0>         0.5263
      5 O2          0.9523   -1.1631   -0.6488 O.2       1 <0>        -0.4879
      6 C4          1.2698   -2.3525   -2.5671 C.2       1 <0>        -0.1998
      7 C5          1.6027   -3.6539   -2.5672 C.2       1 <0>         0.1900
      8 N1          2.3892   -4.1855   -3.5476 N.pl3     1 <0>        -0.6332
      9 C6          3.1633   -3.3517   -4.3520 C.ar      1 <0>         0.4511
     10 C7          2.8736   -1.9976   -4.4189 C.ar      1 <0>        -0.2097
     11 C8          3.6594   -1.1834   -5.2252 C.ar      1 <0>         0.3562
     12 C9          4.7162   -1.7609   -5.9428 C.ar      1 <0>        -0.1675
     13 C10         4.9462   -3.1086   -5.8261 C.ar      1 <0>         0.2132
     14 N2          4.1710   -3.8545   -5.0465 N.ar      1 <0>        -0.5260
     15 C11         6.0710   -3.8007   -6.5531 C.3       1 <0>        -0.1001
     16 C12         6.5738   -2.9388   -7.7092 C.3       1 <0>        -0.1204
     17 C13         6.8740   -1.5346   -7.1712 C.3       1 <0>        -0.1266
     18 C14         5.5490   -0.8622   -6.8166 C.3       1 <0>        -0.0782
     19 N3          3.4017    0.1813   -5.3191 N.pl3     1 <0>        -0.8027
     20 C15         1.7246   -1.4124   -3.6449 C.3       1 <0>         0.0796
     21 H1          2.0429   -0.4741   -3.1905 H         1 <0>         0.1053
     22 C16         0.5763   -1.1422   -4.5826 C.ar      1 <0>        -0.1092
     23 C17        -0.0181   -2.1862   -5.2663 C.ar      1 <0>        -0.0904
     24 C18        -1.0715   -1.9383   -6.1265 C.ar      1 <0>        -0.1139
     25 C19        -1.5307   -0.6464   -6.3026 C.ar      1 <0>        -0.0668
     26 C20        -0.9368    0.3975   -5.6182 C.ar      1 <0>        -0.1108
     27 C21         0.1137    0.1491   -4.7548 C.ar      1 <0>        -0.1109
     28 C22        -2.6783   -0.3761   -7.2411 C.3       1 <0>        -0.1240
     29 C23         1.0978   -4.5450   -1.4617 C.3       1 <0>        -0.1352
     30 H2         -3.4791   -1.6689   -1.4827 H         1 <0>         0.0675
     31 H3         -3.1361   -3.1273   -0.5217 H         1 <0>         0.0677
     32 H4         -3.6539   -1.6292    0.2882 H         1 <0>         0.0845
     33 H5         -1.5544   -0.5185   -0.4241 H         1 <0>         0.0710
     34 H6         -1.2114   -1.9769    0.5370 H         1 <0>         0.0715
     35 H7          2.4097   -5.1456   -3.6845 H         1 <0>         0.4334
     36 H8          6.8904   -3.9826   -5.8577 H         1 <0>         0.1162
     37 H9          5.7139   -4.7535   -6.9440 H         1 <0>         0.1061
     38 H10         7.4825   -3.3749   -8.1240 H         1 <0>         0.0953
     39 H11         5.8082   -2.8795   -8.4828 H         1 <0>         0.0802
     40 H12         7.4983   -1.6083   -6.2807 H         1 <0>         0.0770
     41 H13         7.3892   -0.9514   -7.9344 H         1 <0>         0.0905
     42 H14         5.0007   -0.6431   -7.7328 H         1 <0>         0.0965
     43 H15         5.7491    0.0692   -6.2868 H         1 <0>         0.0895
     44 H16         2.6681    0.5719   -4.8190 H         1 <0>         0.4199
     45 H17         3.9558    0.7417   -5.8846 H         1 <0>         0.4231
     46 H18         0.3406   -3.1956   -5.1287 H         1 <0>         0.1114
     47 H19        -1.5354   -2.7539   -6.6612 H         1 <0>         0.1261
     48 H20        -1.2954    1.4069   -5.7561 H         1 <0>         0.1296
     49 H21         0.5752    0.9642   -4.2172 H         1 <0>         0.1224
     50 H22        -3.6185   -0.4412   -6.6936 H         1 <0>         0.0777
     51 H23        -2.5733    0.6225   -7.6653 H         1 <0>         0.0713
     52 H24        -2.6732   -1.1139   -8.0434 H         1 <0>         0.0702
     53 H25         0.1068   -4.9184   -1.7201 H         1 <0>         0.1066
     54 H26         1.7801   -5.3850   -1.3318 H         1 <0>         0.0903
     55 H27         1.0411   -3.9761   -0.5337 H         1 <0>         0.0947
     56 H28         4.3511   -4.8056   -4.9839 H         1 <0>         0.4377
@<TRIPOS>BOND
     1    1    2 1
     2    1   30 1
     3    1   31 1
     4    1   32 1
     5    2    3 1
     6    2   33 1
     7    2   34 1
     8    3    4 1
     9    4    5 2
    10    4    6 1
    11    6   20 1
    12    6    7 2
    13    7    8 1
    14    7   29 1
    15    8    9 1
    16    8   35 1
    17    9   14 ar
    18    9   10 ar
    19   10   11 ar
    20   10   20 1
    21   11   12 ar
    22   11   19 1
    23   12   18 1
    24   12   13 ar
    25   13   14 ar
    26   13   15 1
    27   14   56 1
    28   15   16 1
    29   15   36 1
    30   15   37 1
    31   16   17 1
    32   16   38 1
    33   16   39 1
    34   17   18 1
    35   17   40 1
    36   17   41 1
    37   18   42 1
    38   18   43 1
    39   19   44 1
    40   19   45 1
    41   20   21 1
    42   20   22 1
    43   22   27 ar
    44   22   23 ar
    45   23   24 ar
    46   23   46 1
    47   24   25 ar
    48   24   47 1
    49   25   26 ar
    50   25   28 1
    51   26   27 ar
    52   26   48 1
    53   27   49 1
    54   28   50 1
    55   28   51 1
    56   28   52 1
    57   29   53 1
    58   29   54 1
    59   29   55 1
@<TRIPOS>MOLECULE
ZINC28760615
   72    76     0     0     0
SMALL
USER_CHARGES

@<TRIPOS>ATOM
      1 C1         -0.1914    1.5033    0.6354 C.3       1 <0>        -0.1856
      2 C2         -0.1437   -0.0187    0.5105 C.3       1 <0>         0.1030
      3 C3          0.0536   -0.4202   -0.9485 C.3       1 <0>        -0.1020
      4 C4          1.4935   -0.1464   -1.3928 C.3       1 <0>        -0.1399
      5 C5          2.4355   -0.9826   -0.5268 C.3       1 <0>         0.1626
      6 C6          2.3307   -0.5217    0.9298 C.3       1 <0>        -0.0610
      7 C7          0.8970   -0.6684    1.4199 C.3       1 <0>         0.1456
      8 C8          0.7241   -0.1071    2.8359 C.3       1 <0>        -0.0863
      9 C9         -0.7360   -0.1938    3.2140 C.2       1 <0>        -0.3288
     10 C10        -1.7134   -0.3921    2.2581 C.2       1 <0>         0.2283
     11 C11        -3.0582   -0.4486    2.6776 C.2       1 <0>        -0.2329
     12 C12        -3.3565   -0.3109    3.9980 C.2       1 <0>         0.2060
     13 O1         -2.3986   -0.1337    4.9221 O.3       1 <0>        -0.2549
     14 C13        -1.1093   -0.0687    4.5559 C.2       1 <0>         0.5145
     15 O2         -0.2515    0.1022    5.4068 O.2       1 <0>        -0.4671
     16 C14        -4.7680   -0.3541    4.4253 C.ar      1 <0>         0.0011
     17 C15        -5.7800   -0.5405    3.4802 C.ar      1 <0>        -0.1980
     18 C16        -7.1020   -0.5811    3.8835 C.ar      1 <0>         0.1496
     19 C17        -7.4250   -0.4365    5.2297 C.ar      1 <0>         0.0559
     20 C18        -6.4189   -0.2502    6.1735 C.ar      1 <0>         0.1491
     21 C19        -5.0949   -0.2146    5.7765 C.ar      1 <0>        -0.1914
     22 O3         -6.7382   -0.1084    7.4878 O.3       1 <0>        -0.2975
     23 C20        -5.6558    0.0794    8.4018 C.3       1 <0>         0.0203
     24 O4         -8.7257   -0.4768    5.6236 O.3       1 <0>        -0.3113
     25 C21        -9.2600   -1.7568    5.9676 C.3       1 <0>         0.0351
     26 O5         -8.0876   -0.7621    2.9640 O.3       1 <0>        -0.2964
     27 C22        -7.6846   -0.9029    1.6003 C.3       1 <0>         0.0200
     28 O6         -1.4251   -0.5321    0.9440 O.3       1 <0>        -0.2890
     29 O7          0.5846   -2.0802    1.4935 O.3       1 <0>        -0.5158
     30 C23         3.2282   -1.4498    1.7400 C.2       1 <0>         0.4083
     31 O8          2.8526   -1.9813    2.7581 O.2       1 <0>        -0.4192
     32 C24         4.5831   -1.6628    1.2210 C.2       1 <0>        -0.2213
     33 C25         4.8663   -1.4137   -0.0475 C.2       1 <0>        -0.0664
     34 C26         3.8557   -0.9749   -1.0661 C.3       1 <0>        -0.0626
     35 C27         3.9203   -2.0023   -2.2202 C.3       1 <0>        -0.1582
     36 C28         4.2583    0.3778   -1.6454 C.3       1 <0>        -0.1481
     37 C29         2.8531    0.9046    1.1206 C.3       1 <0>        -0.1554
     38 O9          1.9759   -2.3540   -0.5948 O.3       1 <0>        -0.5368
     39 H1          0.7344    1.9289    0.2480 H         1 <0>         0.0858
     40 H2         -1.0355    1.8885    0.0634 H         1 <0>         0.0773
     41 H3         -0.3070    1.7784    1.6837 H         1 <0>         0.0714
     42 H4         -0.1733   -1.4779   -1.0764 H         1 <0>         0.0933
     43 H5         -0.6250    0.1630   -1.5775 H         1 <0>         0.0770
     44 H6          1.5933   -0.4439   -2.4401 H         1 <0>         0.0843
     45 H7          1.7037    0.9140   -1.3028 H         1 <0>         0.0837
     46 H8          1.2970   -0.7181    3.5384 H         1 <0>         0.1145
     47 H9          1.0469    0.9227    2.9127 H         1 <0>         0.0885
     48 H10        -3.8471   -0.5996    1.9554 H         1 <0>         0.1665
     49 H11        -5.5300   -0.6524    2.4355 H         1 <0>         0.1473
     50 H12        -4.3143   -0.0745    6.5097 H         1 <0>         0.1500
     51 H13        -6.0479    0.1786    9.4139 H         1 <0>         0.1078
     52 H14        -4.9867   -0.7798    8.3539 H         1 <0>         0.0608
     53 H15        -5.1071    0.9825    8.1345 H         1 <0>         0.0617
     54 H16        -8.6900   -2.1777    6.7959 H         1 <0>         0.0472
     55 H17       -10.3035   -1.6474    6.2631 H         1 <0>         0.0965
     56 H18        -9.1940   -2.4215    5.1063 H         1 <0>         0.0471
     57 H19        -7.0301   -1.7690    1.5024 H         1 <0>         0.0599
     58 H20        -8.5657   -1.0406    0.9734 H         1 <0>         0.1076
     59 H21        -7.1507   -0.0065    1.2847 H         1 <0>         0.0605
     60 H22        -0.2935   -2.2706    1.8511 H         1 <0>         0.3642
     61 H23         5.3573   -2.0250    1.8833 H         1 <0>         0.1364
     62 H24         5.8925   -1.5324   -0.3736 H         1 <0>         0.1226
     63 H25         3.2149   -1.7168   -3.0006 H         1 <0>         0.0648
     64 H26         4.9292   -2.0229   -2.6321 H         1 <0>         0.0683
     65 H27         3.6622   -2.9911   -1.8411 H         1 <0>         0.0717
     66 H28         4.1920    1.1398   -0.8688 H         1 <0>         0.0662
     67 H29         5.2821    0.3243   -2.0156 H         1 <0>         0.0668
     68 H30         3.5883    0.6357   -2.4656 H         1 <0>         0.0682
     69 H31         2.3573    1.5707    0.4146 H         1 <0>         0.0789
     70 H32         2.6455    1.2344    2.1386 H         1 <0>         0.0782
     71 H33         3.9287    0.9241    0.9446 H         1 <0>         0.0813
     72 H34         1.9730   -2.7240   -1.4883 H         1 <0>         0.3702
@<TRIPOS>BOND
     1    1    2 1
     2    1   39 1
     3    1   40 1
     4    1   41 1
     5    2    7 1
     6    2   28 1
     7    2    3 1
     8    3    4 1
     9    3   42 1
    10    3   43 1
    11    4    5 1
    12    4   44 1
    13    4   45 1
    14    5   34 1
    15    5    6 1
    16    5   38 1
    17    6    7 1
    18    6   30 1
    19    6   37 1
    20    7    8 1
    21    7   29 1
    22    8    9 1
    23    8   46 1
    24    8   47 1
    25    9   14 1
    26    9   10 2
    27   10   11 1
    28   10   28 1
    29   11   12 2
    30   11   48 1
    31   12   13 1
    32   12   16 1
    33   13   14 1
    34   14   15 2
    35   16   21 ar
    36   16   17 ar
    37   17   18 ar
    38   17   49 1
    39   18   19 ar
    40   18   26 1
    41   19   20 ar
    42   19   24 1
    43   20   21 ar
    44   20   22 1
    45   21   50 1
    46   22   23 1
    47   23   51 1
    48   23   52 1
    49   23   53 1
    50   24   25 1
    51   25   54 1
    52   25   55 1
    53   25   56 1
    54   26   27 1
    55   27   57 1
    56   27   58 1
    57   27   59 1
    58   29   60 1
    59   30   31 2
    60   30   32 1
    61   32   33 2
    62   32   61 1
    63   33   34 1
    64   33   62 1
    65   34   35 1
    66   34   36 1
    67   35   63 1
    68   35   64 1
    69   35   65 1
    70   36   66 1
    71   36   67 1
    72   36   68 1
    73   37   69 1
    74   37   70 1
    75   37   71 1
    76   38   72 1
@<TRIPOS>MOLECULE
ZINC53122794
   44    46     0     0     0
SMALL
USER_CHARGES

@<TRIPOS>ATOM
      1 C1         -0.1716    1.6332    0.3091 C.3       1 <0>        -0.1309
      2 C2         -0.0732    0.1126    0.1715 C.3       1 <0>        -0.0254
      3 C3          0.7234   -0.3101   -1.0825 C.3       1 <0>        -0.1102
      4 C4          2.1222   -0.6463   -0.5074 C.3       1 <0>         0.0404
      5 N1          1.8086   -1.2944    0.7912 N.3       1 <0>        -0.5327
      6 C5          0.6707   -0.5386    1.3592 C.3       1 <0>         0.2996
      7 H1          1.0135    0.2073    2.0763 H         1 <0>         0.0779
      8 N2         -0.2976   -1.4679    1.9476 N.pl3     1 <0>        -0.6087
      9 C6         -1.4898   -1.4492    1.2186 C.ar      1 <0>         0.2144
     10 C7         -1.4310   -0.5500    0.1655 C.ar      1 <0>        -0.1467
     11 C8         -2.5137   -0.3859   -0.6771 C.ar      1 <0>        -0.0480
     12 C9         -3.6719   -1.1211   -0.4739 C.ar      1 <0>         0.0454
     13 C10        -3.7390   -2.0214    0.5788 C.ar      1 <0>        -0.0677
     14 C11        -2.6590   -2.1855    1.4195 C.ar      1 <0>        -0.1653
     15 O1         -4.7377   -0.9594   -1.3033 O.3       1 <0>        -0.2977
     16 C12        -5.8339   -0.3504   -0.8127 C.2       1 <0>         0.6398
     17 O2         -5.8134    0.1313    0.3028 O.2       1 <0>        -0.5547
     18 N3         -6.9538   -0.2751   -1.5587 N.am      1 <0>        -0.6026
     19 C13        -8.1464    0.3874   -1.0249 C.3       1 <0>         0.0998
     20 C14        -6.9785   -0.8559   -2.9035 C.3       1 <0>         0.0809
     21 C15        -0.0510   -2.2977    3.1294 C.3       1 <0>         0.1098
     22 C16         2.9682   -1.2562    1.6923 C.3       1 <0>         0.0154
     23 H2          0.8306    2.0596    0.3535 H         1 <0>         0.0609
     24 H3         -0.7027    2.0422   -0.5504 H         1 <0>         0.0683
     25 H4         -0.7127    1.8811    1.2222 H         1 <0>         0.0626
     26 H5          0.2754   -1.1892   -1.5458 H         1 <0>         0.0821
     27 H6          0.7868    0.5126   -1.7947 H         1 <0>         0.0811
     28 H7          2.6523   -1.3365   -1.1637 H         1 <0>         0.0880
     29 H8          2.7034    0.2628   -0.3532 H         1 <0>         0.0509
     30 H9         -2.4580    0.3166   -1.4955 H         1 <0>         0.1274
     31 H10        -4.6397   -2.5949    0.7405 H         1 <0>         0.1268
     32 H11        -2.7174   -2.8877    2.2379 H         1 <0>         0.1251
     33 H12        -8.1209    1.4458   -1.2845 H         1 <0>         0.0598
     34 H13        -9.0384   -0.0702   -1.4526 H         1 <0>         0.0788
     35 H14        -8.1671    0.2798    0.0595 H         1 <0>         0.0808
     36 H15        -7.3059   -1.8939   -2.8450 H         1 <0>         0.0600
     37 H16        -7.6693   -0.2918   -3.5302 H         1 <0>         0.0760
     38 H17        -5.9788   -0.8140   -3.3358 H         1 <0>         0.0792
     39 H18        -0.3459   -1.7511    4.0252 H         1 <0>         0.0488
     40 H19        -0.6332   -3.2163    3.0563 H         1 <0>         0.0676
     41 H20         1.0095   -2.5432    3.1862 H         1 <0>         0.0700
     42 H21         3.2487   -0.2197    1.8797 H         1 <0>         0.0312
     43 H22         2.7118   -1.7394    2.6351 H         1 <0>         0.0682
     44 H23         3.8045   -1.7811    1.2306 H         1 <0>         0.0735
@<TRIPOS>BOND
     1    1    2 1
     2    1   23 1
     3    1   24 1
     4    1   25 1
     5    2    6 1
     6    2   10 1
     7    2    3 1
     8    3    4 1
     9    3   26 1
    10    3   27 1
    11    4    5 1
    12    4   28 1
    13    4   29 1
    14    5    6 1
    15    5   22 1
    16    6    7 1
    17    6    8 1
    18    8    9 1
    19    8   21 1
    20    9   14 ar
    21    9   10 ar
    22   10   11 ar
    23   11   12 ar
    24   11   30 1
    25   12   13 ar
    26   12   15 1
    27   13   14 ar
    28   13   31 1
    29   14   32 1
    30   15   16 1
    31   16   17 2
    32   16   18 am
    33   18   19 1
    34   18   20 1
    35   19   33 1
    36   19   34 1
    37   19   35 1
    38   20   36 1
    39   20   37 1
    40   20   38 1
    41   21   39 1
    42   21   40 1
    43   21   41 1
    44   22   42 1
    45   22   43 1
    46   22   44 1
@<TRIPOS>MOLECULE
ZINC01893945
   79    84     0     0     0
SMALL
USER_CHARGES

@<TRIPOS>ATOM
      1 C1         -4.3674  -12.0500   -0.6935 C.ar      1 <0>        -0.1084
      2 C2         -3.2283  -12.4382    0.0076 C.ar      1 <0>        -0.0299
      3 C3         -2.0127  -12.4917   -0.6026 C.ar      1 <0>        -0.1478
      4 C4         -1.8984  -12.1507   -1.9615 C.ar      1 <0>         0.1538
      5 C5         -3.0585  -11.7581   -2.6709 C.ar      1 <0>        -0.1057
      6 C6         -4.2945  -11.7134   -2.0119 C.ar      1 <0>        -0.0611
      7 C7         -2.9337  -11.4204   -4.0369 C.ar      1 <0>         0.3440
      8 C8         -1.6732  -11.4852   -4.6233 C.ar      1 <0>        -0.1441
      9 C9         -0.5831  -11.8727   -3.8640 C.ar      1 <0>         0.2496
     10 N1         -0.7214  -12.1902   -2.5879 N.ar      1 <0>        -0.4773
     11 C10         0.8097  -11.9455   -4.4399 C.3       1 <0>        -0.1140
     12 C11         0.7589  -11.9899   -5.9651 C.3       1 <0>        -0.1221
     13 C12        -0.1140  -10.8287   -6.4553 C.3       1 <0>        -0.1317
     14 C13        -1.5646  -11.1271   -6.0818 C.3       1 <0>        -0.0717
     15 N2         -4.0410  -11.0339   -4.7762 N.pl3     1 <0>        -0.7950
     16 C14        -4.4753   -9.6347   -4.7678 C.3       1 <0>         0.1342
     17 C15        -5.4341   -9.4053   -3.5978 C.3       1 <0>        -0.1553
     18 C16        -5.8877   -7.9441   -3.5892 C.3       1 <0>        -0.1209
     19 C17        -6.8465   -7.7147   -2.4192 C.3       1 <0>        -0.1174
     20 C18        -7.3001   -6.2534   -2.4105 C.3       1 <0>        -0.1208
     21 C19        -8.2589   -6.0240   -1.2405 C.3       1 <0>        -0.1454
     22 C20        -8.7124   -4.5628   -1.2318 C.3       1 <0>         0.1352
     23 N3         -9.6305   -4.3431   -0.1115 N.pl3     1 <0>        -0.7952
     24 C21       -10.9513   -3.9988   -0.3549 C.ar      1 <0>         0.3431
     25 C22       -11.9243   -4.9933   -0.5993 C.ar      1 <0>        -0.1056
     26 C23       -11.5974   -6.3561   -0.6049 C.ar      1 <0>        -0.0599
     27 C24       -12.5693   -7.2807   -0.8438 C.ar      1 <0>        -0.1060
     28 C25       -13.8839   -6.8879   -1.0830 C.ar      1 <0>        -0.0301
     29 C26       -14.2345   -5.5726   -1.0849 C.ar      1 <0>        -0.1466
     30 C27       -13.2589   -4.5899   -0.8428 C.ar      1 <0>         0.1534
     31 N4        -13.5687   -3.2925   -0.8408 N.ar      1 <0>        -0.4769
     32 C28       -12.6724   -2.3467   -0.6160 C.ar      1 <0>         0.2497
     33 C29       -11.3506   -2.6657   -0.3584 C.ar      1 <0>        -0.1441
     34 C30       -10.3007   -1.6241   -0.0753 C.3       1 <0>        -0.0711
     35 C31       -10.7756   -0.2454   -0.5294 C.3       1 <0>        -0.1323
     36 C32       -12.1684    0.0035    0.0612 C.3       1 <0>        -0.1214
     37 C33       -13.1598   -0.9191   -0.6521 C.3       1 <0>        -0.1143
     38 H1         -5.3209  -12.0198   -0.1872 H         1 <0>         0.1503
     39 H2         -3.3108  -12.7004    1.0520 H         1 <0>         0.1557
     40 H3         -1.1392  -12.7948   -0.0446 H         1 <0>         0.1568
     41 H4         -5.1842  -11.4141   -2.5460 H         1 <0>         0.1614
     42 H5          1.3753  -11.0687   -4.1245 H         1 <0>         0.1235
     43 H6          1.3047  -12.8437   -4.0705 H         1 <0>         0.1133
     44 H7          1.7663  -11.8866   -6.3684 H         1 <0>         0.0985
     45 H8          0.3262  -12.9361   -6.2899 H         1 <0>         0.0815
     46 H9          0.2052   -9.9023   -5.9777 H         1 <0>         0.0750
     47 H10        -0.0254  -10.7341   -7.5375 H         1 <0>         0.0922
     48 H11        -1.9268  -11.9601   -6.6843 H         1 <0>         0.0966
     49 H12        -2.1756  -10.2470   -6.2822 H         1 <0>         0.0969
     50 H13        -4.5282  -11.6898   -5.2989 H         1 <0>         0.4197
     51 H14        -3.6067   -8.9853   -4.6585 H         1 <0>         0.0703
     52 H15        -4.9839   -9.4066   -5.7045 H         1 <0>         0.0922
     53 H16        -6.3027  -10.0547   -3.7072 H         1 <0>         0.0723
     54 H17        -4.9255   -9.6334   -2.6612 H         1 <0>         0.0671
     55 H18        -5.0191   -7.2947   -3.4798 H         1 <0>         0.0652
     56 H19        -6.3963   -7.7159   -4.5258 H         1 <0>         0.0685
     57 H20        -7.7151   -8.3640   -2.5285 H         1 <0>         0.0628
     58 H21        -6.3379   -7.9428   -1.4825 H         1 <0>         0.0620
     59 H22        -6.4315   -5.6041   -2.3011 H         1 <0>         0.0681
     60 H23        -7.8087   -6.0253   -3.3471 H         1 <0>         0.0655
     61 H24        -9.1275   -6.6734   -1.3498 H         1 <0>         0.0663
     62 H25        -7.7503   -6.2522   -0.3038 H         1 <0>         0.0718
     63 H26        -7.8439   -3.9134   -1.1224 H         1 <0>         0.0785
     64 H27        -9.2210   -4.3347   -2.1685 H         1 <0>         0.0735
     65 H28        -9.3144   -4.4385    0.8006 H         1 <0>         0.4186
     66 H29       -10.5810   -6.6715   -0.4211 H         1 <0>         0.1572
     67 H30       -12.3171   -8.3309   -0.8481 H         1 <0>         0.1508
     68 H31       -14.6372   -7.6388   -1.2703 H         1 <0>         0.1563
     69 H32       -15.2585   -5.2850   -1.2720 H         1 <0>         0.1571
     70 H33       -10.0980   -1.5998    0.9954 H         1 <0>         0.0961
     71 H34        -9.3854   -1.8824   -0.6080 H         1 <0>         0.0967
     72 H35       -10.0836    0.5174   -0.1725 H         1 <0>         0.0917
     73 H36       -10.8274   -0.2147   -1.6178 H         1 <0>         0.0754
     74 H37       -12.1574   -0.2131    1.1294 H         1 <0>         0.0821
     75 H38       -12.4554    1.0423   -0.1022 H         1 <0>         0.0982
     76 H39       -13.2782   -0.6061   -1.6895 H         1 <0>         0.1244
     77 H40       -14.1230   -0.8554   -0.1460 H         1 <0>         0.1127
     78 H41         0.0637  -12.4627   -2.0878 H         1 <0>         0.4430
     79 H42       -14.4876   -3.0326   -1.0112 H         1 <0>         0.4432
@<TRIPOS>BOND
     1    1    6 ar
     2    1    2 ar
     3    1   38 1
     4    2    3 ar
     5    2   39 1
     6    3    4 ar
     7    3   40 1
     8    4   10 ar
     9    4    5 ar
    10    5    6 ar
    11    5    7 ar
    12    6   41 1
    13    7    8 ar
    14    7   15 1
    15    8   14 1
    16    8    9 ar
    17    9   10 ar
    18    9   11 1
    19   10   78 1
    20   11   12 1
    21   11   42 1
    22   11   43 1
    23   12   13 1
    24   12   44 1
    25   12   45 1
    26   13   14 1
    27   13   46 1
    28   13   47 1
    29   14   48 1
    30   14   49 1
    31   15   16 1
    32   15   50 1
    33   16   17 1
    34   16   51 1
    35   16   52 1
    36   17   18 1
    37   17   53 1
    38   17   54 1
    39   18   19 1
    40   18   55 1
    41   18   56 1
    42   19   20 1
    43   19   57 1
    44   19   58 1
    45   20   21 1
    46   20   59 1
    47   20   60 1
    48   21   22 1
    49   21   61 1
    50   21   62 1
    51   22   23 1
    52   22   63 1
    53   22   64 1
    54   23   24 1
    55   23   65 1
    56   24   33 ar
    57   24   25 ar
    58   25   30 ar
    59   25   26 ar
    60   26   27 ar
    61   26   66 1
    62   27   28 ar
    63   27   67 1
    64   28   29 ar
    65   28   68 1
    66   29   30 ar
    67   29   69 1
    68   30   31 ar
    69   31   32 ar
    70   31   79 1
    71   32   37 1
    72   32   33 ar
    73   33   34 1
    74   34   35 1
    75   34   70 1
    76   34   71 1
    77   35   36 1
    78   35   72 1
    79   35   73 1
    80   36   37 1
    81   36   74 1
    82   36   75 1
    83   37   76 1
    84   37   77 1
@<TRIPOS>MOLECULE
ZINC13833593
   56    59     0     0     0
SMALL
USER_CHARGES
2-[4-[(2-butyl-4-oxo-1,3-diazaspiro[4.4]non-1-en-3-yl)methyl]phenyl]benzonitrile
@<TRIPOS>ATOM
      1 C1          0.8962    8.3246    0.0370 C.3       1 <0>        -0.1545
      2 C2          1.7058    7.0264    0.0226 C.3       1 <0>        -0.1264
      3 C3          0.7517    5.8303    0.0255 C.3       1 <0>        -0.1059
      4 C4          1.5613    4.5321    0.0110 C.3       1 <0>        -0.0674
      5 C5          0.6216    3.3540    0.0139 C.2       1 <0>         0.3510
      6 N1         -0.6628    3.4689    0.0268 N.2       1 <0>        -0.4921
      7 C6         -1.2190    2.1157    0.0184 C.3       1 <0>         0.0315
      8 C7         -2.0842    1.8669    1.2614 C.3       1 <0>        -0.0963
      9 C8         -3.5351    2.0790    0.7568 C.3       1 <0>        -0.1163
     10 C9         -3.4941    1.4811   -0.6721 C.3       1 <0>        -0.1162
     11 C10        -2.1013    1.8781   -1.2097 C.3       1 <0>        -0.0883
     12 C11        -0.0144    1.2083    0.0087 C.2       1 <0>         0.5064
     13 O1          0.0021   -0.0041    0.0020 O.2       1 <0>        -0.4775
     14 N2          1.0437    2.0514    0.0031 N.am      1 <0>        -0.5778
     15 C12         2.4465    1.6292   -0.0123 C.3       1 <0>         0.1481
     16 C13         2.9139    1.4913   -1.4384 C.ar      1 <0>        -0.1074
     17 C14         2.7871    0.2780   -2.0906 C.ar      1 <0>        -0.0910
     18 C15         3.2081    0.1472   -3.3983 C.ar      1 <0>        -0.0993
     19 C16         3.7723    1.2381   -4.0585 C.ar      1 <0>        -0.0527
     20 C17         3.9028    2.4569   -3.3939 C.ar      1 <0>        -0.0987
     21 C18         3.4733    2.5770   -2.0880 C.ar      1 <0>        -0.1026
     22 C19         4.2310    1.1027   -5.4610 C.ar      1 <0>        -0.0012
     23 C20         3.8352    2.0309   -6.4199 C.ar      1 <0>        -0.1061
     24 C21         4.2647    1.9013   -7.7253 C.ar      1 <0>        -0.0868
     25 C22         5.0905    0.8511   -8.0915 C.ar      1 <0>        -0.1167
     26 C23         5.4941   -0.0786   -7.1561 C.ar      1 <0>        -0.0685
     27 C24         5.0739    0.0388   -5.8304 C.ar      1 <0>        -0.0186
     28 C25         5.4941   -0.9203   -4.8535 C.1       1 <0>         0.2479
     29 N3          5.8274   -1.6812   -4.0786 N.1       1 <0>        -0.4045
     30 H1          1.5822    9.1845    0.0349 H         1 <0>         0.0545
     31 H2          0.2708    8.3566    0.9413 H         1 <0>         0.0554
     32 H3          0.2537    8.3659   -0.8549 H         1 <0>         0.0554
     33 H4          2.3312    6.9944   -0.8817 H         1 <0>         0.0621
     34 H5          2.3484    6.9851    0.9145 H         1 <0>         0.0623
     35 H6          0.1263    5.8624    0.9299 H         1 <0>         0.0742
     36 H7          0.1091    5.8717   -0.8663 H         1 <0>         0.0741
     37 H8          2.1867    4.5001   -0.8934 H         1 <0>         0.0955
     38 H9          2.2039    4.4907    0.9028 H         1 <0>         0.0951
     39 H10        -1.9174    0.8423    1.6251 H         1 <0>         0.0762
     40 H11        -1.8100    2.5846    2.0487 H         1 <0>         0.0766
     41 H12        -4.2348    1.5478    1.4187 H         1 <0>         0.0724
     42 H13        -3.7711    3.1534    0.7602 H         1 <0>         0.0754
     43 H14        -3.6192    0.3896   -0.6166 H         1 <0>         0.0715
     44 H15        -4.3072    1.9132   -1.2739 H         1 <0>         0.0745
     45 H16        -2.1563    2.8010   -1.8057 H         1 <0>         0.0843
     46 H17        -1.6694    1.0720   -1.8211 H         1 <0>         0.0693
     47 H18         3.0614    2.3811    0.5040 H         1 <0>         0.1022
     48 H19         2.5437    0.6610    0.5007 H         1 <0>         0.1013
     49 H20         2.3539   -0.5674   -1.5768 H         1 <0>         0.1284
     50 H21         3.1042   -0.7992   -3.9081 H         1 <0>         0.1226
     51 H22         4.3387    3.3054   -3.9004 H         1 <0>         0.1318
     52 H23         3.5738    3.5206   -1.5723 H         1 <0>         0.1295
     53 H24         3.1915    2.8525   -6.1425 H         1 <0>         0.1357
     54 H25         3.9552    2.6237   -8.4661 H         1 <0>         0.1350
     55 H26         5.4206    0.7600   -9.1158 H         1 <0>         0.1366
     56 H27         6.1379   -0.8949   -7.4486 H         1 <0>         0.1363
@<TRIPOS>BOND
     1    1    2 1
     2    1   30 1
     3    1   31 1
     4    1   32 1
     5    2    3 1
     6    2   33 1
     7    2   34 1
     8    3    4 1
     9    3   35 1
    10    3   36 1
    11    4    5 1
    12    4   37 1
    13    4   38 1
    14    5   14 1
    15    5    6 2
    16    6    7 1
    17    7   11 1
    18    7    8 1
    19    7   12 1
    20    8    9 1
    21    8   39 1
    22    8   40 1
    23    9   10 1
    24    9   41 1
    25    9   42 1
    26   10   11 1
    27   10   43 1
    28   10   44 1
    29   11   45 1
    30   11   46 1
    31   12   13 2
    32   12   14 am
    33   14   15 1
    34   15   16 1
    35   15   47 1
    36   15   48 1
    37   16   21 ar
    38   16   17 ar
    39   17   18 ar
    40   17   49 1
    41   18   19 ar
    42   18   50 1
    43   19   20 ar
    44   19   22 1
    45   20   21 ar
    46   20   51 1
    47   21   52 1
    48   22   27 ar
    49   22   23 ar
    50   23   24 ar
    51   23   53 1
    52   24   25 ar
    53   24   54 1
    54   25   26 ar
    55   25   55 1
    56   26   27 ar
    57   26   56 1
    58   27   28 1
    59   28   29 3
@<TRIPOS>MOLECULE
ZINC00622264
   65    68     0     0     0
SMALL
USER_CHARGES

@<TRIPOS>ATOM
      1 C1         -0.0325    0.9961   -0.3223 C.3       1 <0>        -0.1897
      2 C2         -0.0791   -0.5278   -0.1935 C.3       1 <0>        -0.0231
      3 N1          0.6441   -0.9392    1.0171 N.4       1 <0>        -0.2653
      4 C3          0.5993   -2.4023    1.1408 C.3       1 <0>        -0.0579
      5 C4          2.0423   -0.4981    0.9260 C.3       1 <0>        -0.0144
      6 C5          2.6988   -1.1339   -0.3010 C.3       1 <0>        -0.1908
      7 C6          0.0137   -0.3288    2.1953 C.3       1 <0>        -0.0080
      8 C7         -1.4425   -0.7883    2.2902 C.3       1 <0>        -0.1738
      9 C8         -2.0990   -0.1525    3.5172 C.3       1 <0>         0.0378
     10 N2         -3.5201   -0.5071    3.5496 N.ar      1 <0>        -0.3467
     11 C9         -4.3856    0.2692    2.8794 C.ar      1 <0>         0.1264
     12 C10        -3.9240    1.3889    2.1703 C.ar      1 <0>        -0.2389
     13 C11        -4.8196    2.1825    1.4830 C.ar      1 <0>         0.2703
     14 C12        -6.1839    1.8832    1.4857 C.ar      1 <0>        -0.1433
     15 C13        -6.6541    0.7997    2.1682 C.ar      1 <0>        -0.0367
     16 C14        -5.7700   -0.0206    2.8717 C.ar      1 <0>        -0.0682
     17 C15        -6.2485   -1.1919    3.6139 C.ar      1 <0>        -0.0155
     18 C16        -7.5957   -1.5478    3.6572 C.ar      1 <0>        -0.0735
     19 C17        -7.9826   -2.6497    4.3645 C.ar      1 <0>        -0.1022
     20 C18        -7.0437   -3.4262    5.0465 C.ar      1 <0>         0.2369
     21 C19        -5.7017   -3.0940    5.0195 C.ar      1 <0>        -0.1624
     22 C20        -5.2885   -1.9710    4.3009 C.ar      1 <0>        -0.0610
     23 C21        -3.8813   -1.5712    4.2285 C.ar      1 <0>         0.3298
     24 C22        -2.8553   -2.3730    4.9331 C.ar      1 <0>        -0.1302
     25 C23        -2.6758   -3.7187    4.6119 C.ar      1 <0>        -0.0721
     26 C24        -1.7180   -4.4607    5.2721 C.ar      1 <0>        -0.1096
     27 C25        -0.9369   -3.8729    6.2511 C.ar      1 <0>        -0.0720
     28 C26        -1.1101   -2.5388    6.5742 C.ar      1 <0>        -0.1068
     29 C27        -2.0603   -1.7846    5.9169 C.ar      1 <0>        -0.0935
     30 N3         -7.4640   -4.5489    5.7631 N.pl3     1 <0>        -0.8547
     31 N4         -4.3576    3.2956    0.7785 N.pl3     1 <0>        -0.8528
     32 H1          1.0050    1.3234   -0.3899 H         1 <0>         0.0870
     33 H2         -0.5691    1.3014   -1.2206 H         1 <0>         0.1083
     34 H3         -0.5002    1.4490    0.5519 H         1 <0>         0.0751
     35 H4         -1.1166   -0.8551   -0.1259 H         1 <0>         0.1254
     36 H5          0.3886   -0.9807   -1.0677 H         1 <0>         0.1373
     37 H6          1.0670   -2.8553    0.2666 H         1 <0>         0.1311
     38 H7          1.1359   -2.7076    2.0391 H         1 <0>         0.1262
     39 H8         -0.4382   -2.7297    1.2084 H         1 <0>         0.1187
     40 H9          2.0755    0.5876    0.8343 H         1 <0>         0.1322
     41 H10         2.5789   -0.8034    1.8244 H         1 <0>         0.1313
     42 H11         3.7362   -0.8065   -0.3686 H         1 <0>         0.1100
     43 H12         2.6656   -2.2195   -0.2093 H         1 <0>         0.0832
     44 H13         2.1622   -0.8286   -1.1993 H         1 <0>         0.0820
     45 H14         0.5503   -0.6341    3.0936 H         1 <0>         0.1382
     46 H15         0.0469    0.7568    2.1036 H         1 <0>         0.1380
     47 H16        -1.9791   -0.4830    1.3919 H         1 <0>         0.1072
     48 H17        -1.4757   -1.8739    2.3819 H         1 <0>         0.1060
     49 H18        -1.6123   -0.5194    4.4208 H         1 <0>         0.1400
     50 H19        -1.9962    0.9313    3.4637 H         1 <0>         0.1336
     51 H20        -2.8711    1.6289    2.1628 H         1 <0>         0.1391
     52 H21        -6.8720    2.5147    0.9434 H         1 <0>         0.1512
     53 H22        -7.7107    0.5763    2.1644 H         1 <0>         0.1562
     54 H23        -8.3305   -0.9541    3.1337 H         1 <0>         0.1538
     55 H24        -9.0268   -2.9237    4.3971 H         1 <0>         0.1517
     56 H25        -4.9799   -3.6981    5.5492 H         1 <0>         0.1461
     57 H26        -3.2854   -4.1788    3.8483 H         1 <0>         0.1391
     58 H27        -1.5781   -5.5025    5.0244 H         1 <0>         0.1450
     59 H28        -0.1890   -4.4580    6.7656 H         1 <0>         0.1433
     60 H29        -0.4973   -2.0857    7.3394 H         1 <0>         0.1450
     61 H30        -2.1913   -0.7421    6.1666 H         1 <0>         0.1355
     62 H31        -8.4043   -4.7859    5.7854 H         1 <0>         0.4133
     63 H32        -6.8156   -5.0915    6.2386 H         1 <0>         0.4100
     64 H33        -3.4111    3.5080    0.7738 H         1 <0>         0.4062
     65 H34        -4.9830    3.8567    0.2938 H         1 <0>         0.4157
@<TRIPOS>BOND
     1    1    2 1
     2    1   32 1
     3    1   33 1
     4    1   34 1
     5    2    3 1
     6    2   35 1
     7    2   36 1
     8    3    4 1
     9    3    5 1
    10    3    7 1
    11    4   37 1
    12    4   38 1
    13    4   39 1
    14    5    6 1
    15    5   40 1
    16    5   41 1
    17    6   42 1
    18    6   43 1
    19    6   44 1
    20    7    8 1
    21    7   45 1
    22    7   46 1
    23    8    9 1
    24    8   47 1
    25    8   48 1
    26    9   10 1
    27    9   49 1
    28    9   50 1
    29   10   23 ar
    30   10   11 ar
    31   11   16 ar
    32   11   12 ar
    33   12   13 ar
    34   12   51 1
    35   13   14 ar
    36   13   31 1
    37   14   15 ar
    38   14   52 1
    39   15   16 ar
    40   15   53 1
    41   16   17 ar
    42   17   22 ar
    43   17   18 ar
    44   18   19 ar
    45   18   54 1
    46   19   20 ar
    47   19   55 1
    48   20   21 ar
    49   20   30 1
    50   21   22 ar
    51   21   56 1
    52   22   23 ar
    53   23   24 1
    54   24   29 ar
    55   24   25 ar
    56   25   26 ar
    57   25   57 1
    58   26   27 ar
    59   26   58 1
    60   27   28 ar
    61   27   59 1
    62   28   29 ar
    63   28   60 1
    64   29   61 1
    65   30   62 1
    66   30   63 1
    67   31   64 1
    68   31   65 1
@<TRIPOS>MOLECULE
ZINC27993222
   30    32     0     0     0
SMALL
USER_CHARGES
5-chloro-1,2,3,4-tetrahydroacridin-9-amine
@<TRIPOS>ATOM
      1 C1         -2.0832    7.2488   -3.2348 C.ar      1 <0>        -0.1061
      2 C2         -1.8728    5.9073   -3.3522 C.ar      1 <0>        -0.0496
      3 C3         -1.5428    5.1555   -2.2168 C.ar      1 <0>        -0.1333
      4 C4         -1.3173    3.7627   -2.2895 C.ar      1 <0>         0.3644
      5 C5         -0.9936    3.0816   -1.1203 C.ar      1 <0>        -0.2173
      6 C6         -0.8979    3.7758    0.0734 C.ar      1 <0>         0.2724
      7 N1         -1.1161    5.0788    0.1216 N.ar      1 <0>        -0.5377
      8 C7         -1.4307    5.7949   -0.9591 C.ar      1 <0>         0.1925
      9 C8         -1.6547    7.1808   -0.8763 C.ar      1 <0>        -0.0836
     10 C9         -1.9746    7.8822   -1.9999 C.ar      1 <0>        -0.0197
     11 Cl1        -1.5267    7.9944    0.6519 Cl        1 <0>        -0.0195
     12 C10        -0.5351    3.0944    1.3699 C.3       1 <0>        -0.1137
     13 C11        -0.7413    1.5857    1.2609 C.3       1 <0>        -0.1222
     14 C12        -0.0127    1.0858    0.0080 C.3       1 <0>        -0.1281
     15 C13        -0.7622    1.5971   -1.2207 C.3       1 <0>        -0.0725
     16 N2         -1.4168    3.0900   -3.4980 N.pl3     1 <0>        -0.8189
     17 H1         -2.3377    7.8274   -4.1105 H         1 <0>         0.1600
     18 H2         -1.9595    5.4264   -4.3153 H         1 <0>         0.1508
     19 H3         -2.1464    8.9463   -1.9314 H         1 <0>         0.1631
     20 H4          0.5208    3.2933    1.6057 H         1 <0>         0.1210
     21 H5         -1.1710    3.4831    2.1789 H         1 <0>         0.1106
     22 H6         -0.3314    1.0940    2.1554 H         1 <0>         0.0957
     23 H7         -1.8166    1.3673    1.1827 H         1 <0>         0.0800
     24 H8          1.0186    1.4685    0.0064 H         1 <0>         0.0762
     25 H9          0.0044   -0.0141    0.0081 H         1 <0>         0.0901
     26 H10        -1.7301    1.0789   -1.2890 H         1 <0>         0.0928
     27 H11        -0.1654    1.3789   -2.1186 H         1 <0>         0.0857
     28 H12        -1.2386    2.0053   -3.5400 H         1 <0>         0.4532
     29 H13        -1.6739    3.6410   -4.4146 H         1 <0>         0.4463
     30 H14        -1.0407    5.6140    1.0797 H         1 <0>         0.4674
@<TRIPOS>BOND
     1    1   10 ar
     2    1    2 ar
     3    1   17 1
     4    2    3 ar
     5    2   18 1
     6    3    8 ar
     7    3    4 ar
     8    4    5 ar
     9    4   16 1
    10    5   15 1
    11    5    6 ar
    12    6    7 ar
    13    6   12 1
    14    7    8 ar
    15    7   30 1
    16    8    9 ar
    17    9   10 ar
    18    9   11 1
    19   10   19 1
    20   12   13 1
    21   12   20 1
    22   12   21 1
    23   13   14 1
    24   13   22 1
    25   13   23 1
    26   14   15 1
    27   14   24 1
    28   14   25 1
    29   15   26 1
    30   15   27 1
    31   16   28 1
    32   16   29 1
@<TRIPOS>MOLECULE
ZINC35079584
   57    60     0     0     0
SMALL
USER_CHARGES

@<TRIPOS>ATOM
      1 C1          0.8292   -0.7481    1.9301 C.3       1 <0>        -0.1535
      2 C2          0.0503   -1.0574    0.6500 C.3       1 <0>         0.0575
      3 O1          0.9486   -1.5466   -0.3478 O.3       1 <0>        -0.3407
      4 C3          0.4172   -1.8687   -1.5459 C.2       1 <0>         0.5269
      5 O2         -0.7776   -1.7370   -1.7368 O.2       1 <0>        -0.4869
      6 C4          1.2476   -2.3585   -2.5782 C.2       1 <0>        -0.1986
      7 C5          1.6028   -3.6539   -2.5672 C.2       1 <0>         0.1880
      8 N1          2.3959   -4.1812   -3.5447 N.pl3     1 <0>        -0.6324
      9 C6          2.5546   -3.5092   -4.7549 C.ar      1 <0>         0.4506
     10 C7          2.2230   -2.1661   -4.8448 C.ar      1 <0>        -0.2093
     11 C8          2.3821   -1.5168   -6.0630 C.ar      1 <0>         0.3562
     12 C9          2.8771   -2.2422   -7.1556 C.ar      1 <0>        -0.1678
     13 C10         3.1924   -3.5675   -6.9912 C.ar      1 <0>         0.2135
     14 N2          3.0210   -4.1545   -5.8118 N.ar      1 <0>        -0.5259
     15 C11         3.7472   -4.4094   -8.1120 C.3       1 <0>        -0.1001
     16 C12         3.4783   -3.7504   -9.4630 C.3       1 <0>        -0.1204
     17 C13         3.9637   -2.2974   -9.3987 C.3       1 <0>        -0.1265
     18 C14         3.0345   -1.5212   -8.4672 C.3       1 <0>        -0.0782
     19 N3          2.0553   -0.1703   -6.1960 N.pl3     1 <0>        -0.8032
     20 C15         1.6997   -1.4163   -3.6553 C.3       1 <0>         0.0835
     21 H1          0.8590   -0.7944   -3.9629 H         1 <0>         0.1044
     22 C16         2.7942   -0.5335   -3.1131 C.ar      1 <0>        -0.1421
     23 C17         3.9677   -1.0967   -2.6469 C.ar      1 <0>        -0.0539
     24 C18         4.9723   -0.2897   -2.1490 C.ar      1 <0>        -0.1452
     25 C19         4.8031    1.0869   -2.1173 C.ar      1 <0>         0.1456
     26 C20         3.6248    1.6495   -2.5861 C.ar      1 <0>        -0.1997
     27 C21         2.6253    0.8385   -3.0878 C.ar      1 <0>        -0.0734
     28 O3          5.7897    1.8829   -1.6275 O.3       1 <0>        -0.3126
     29 C22         5.5464    3.2910   -1.6257 C.3       1 <0>         0.0239
     30 C23         1.1158   -4.5432   -1.4523 C.3       1 <0>        -0.1387
     31 H2          1.3122   -1.6566    2.2900 H         1 <0>         0.0680
     32 H3          1.5865    0.0075    1.7210 H         1 <0>         0.0673
     33 H4          0.1440   -0.3750    2.6912 H         1 <0>         0.0844
     34 H5         -0.7070   -1.8130    0.8591 H         1 <0>         0.0718
     35 H6         -0.4327   -0.1489    0.2902 H         1 <0>         0.0709
     36 H7          2.8502   -5.0253   -3.3965 H         1 <0>         0.4333
     37 H8          4.8225   -4.5251   -7.9762 H         1 <0>         0.1158
     38 H9          3.2752   -5.3918   -8.0911 H         1 <0>         0.1063
     39 H10         4.0186   -4.2835  -10.2453 H         1 <0>         0.0952
     40 H11         2.4094   -3.7711   -9.6752 H         1 <0>         0.0805
     41 H12         4.9818   -2.2671   -9.0107 H         1 <0>         0.0767
     42 H13         3.9367   -1.8567  -10.3953 H         1 <0>         0.0903
     43 H14         2.0577   -1.4166   -8.9394 H         1 <0>         0.0966
     44 H15         3.4530   -0.5313   -8.2852 H         1 <0>         0.0891
     45 H16         1.7131    0.3233   -5.4343 H         1 <0>         0.4193
     46 H17         2.1697    0.2744   -7.0505 H         1 <0>         0.4228
     47 H18         4.0990   -2.1684   -2.6718 H         1 <0>         0.1181
     48 H19         5.8886   -0.7301   -1.7843 H         1 <0>         0.1352
     49 H20         3.4907    2.7209   -2.5625 H         1 <0>         0.1355
     50 H21         1.7096    1.2764   -3.4570 H         1 <0>         0.1250
     51 H22         6.4110    3.8086   -1.2102 H         1 <0>         0.1070
     52 H23         5.3752    3.6315   -2.6469 H         1 <0>         0.0583
     53 H24         4.6673    3.5070   -1.0186 H         1 <0>         0.0598
     54 H25         0.1214   -4.9182   -1.6946 H         1 <0>         0.1009
     55 H26         1.8010   -5.3822   -1.3312 H         1 <0>         0.0913
     56 H27         1.0728   -3.9724   -0.5247 H         1 <0>         0.1017
     57 H28         3.2468   -5.0935   -5.7218 H         1 <0>         0.4377
@<TRIPOS>BOND
     1    1    2 1
     2    1   31 1
     3    1   32 1
     4    1   33 1
     5    2    3 1
     6    2   34 1
     7    2   35 1
     8    3    4 1
     9    4    5 2
    10    4    6 1
    11    6   20 1
    12    6    7 2
    13    7    8 1
    14    7   30 1
    15    8    9 1
    16    8   36 1
    17    9   14 ar
    18    9   10 ar
    19   10   11 ar
    20   10   20 1
    21   11   12 ar
    22   11   19 1
    23   12   18 1
    24   12   13 ar
    25   13   14 ar
    26   13   15 1
    27   14   57 1
    28   15   16 1
    29   15   37 1
    30   15   38 1
    31   16   17 1
    32   16   39 1
    33   16   40 1
    34   17   18 1
    35   17   41 1
    36   17   42 1
    37   18   43 1
    38   18   44 1
    39   19   45 1
    40   19   46 1
    41   20   21 1
    42   20   22 1
    43   22   27 ar
    44   22   23 ar
    45   23   24 ar
    46   23   47 1
    47   24   25 ar
    48   24   48 1
    49   25   26 ar
    50   25   28 1
    51   26   27 ar
    52   26   49 1
    53   27   50 1
    54   28   29 1
    55   29   51 1
    56   29   52 1
    57   29   53 1
    58   30   54 1
    59   30   55 1
    60   30   56 1
@<TRIPOS>MOLECULE
ZINC35079586
   57    60     0     0     0
SMALL
USER_CHARGES

@<TRIPOS>ATOM
      1 C1         -3.0760   -2.0391   -0.5401 C.3       1 <0>        -0.1535
      2 C2         -1.6145   -1.6067   -0.4056 C.3       1 <0>         0.0579
      3 O1         -0.8569   -2.1440   -1.4915 O.3       1 <0>        -0.3406
      4 C3          0.4609   -1.8541   -1.5219 C.2       1 <0>         0.5266
      5 O2          0.9523   -1.1631   -0.6488 O.2       1 <0>        -0.4884
      6 C4          1.2698   -2.3525   -2.5671 C.2       1 <0>        -0.1999
      7 C5          1.6027   -3.6539   -2.5672 C.2       1 <0>         0.1895
      8 N1          2.3892   -4.1855   -3.5476 N.pl3     1 <0>        -0.6333
      9 C6          3.1633   -3.3517   -4.3520 C.ar      1 <0>         0.4507
     10 C7          2.8736   -1.9976   -4.4189 C.ar      1 <0>        -0.2094
     11 C8          3.6594   -1.1834   -5.2252 C.ar      1 <0>         0.3563
     12 C9          4.7162   -1.7609   -5.9428 C.ar      1 <0>        -0.1676
     13 C10         4.9462   -3.1086   -5.8261 C.ar      1 <0>         0.2133
     14 N2          4.1710   -3.8545   -5.0465 N.ar      1 <0>        -0.5258
     15 C11         6.0710   -3.8007   -6.5531 C.3       1 <0>        -0.1001
     16 C12         6.5738   -2.9388   -7.7092 C.3       1 <0>        -0.1204
     17 C13         6.8740   -1.5346   -7.1712 C.3       1 <0>        -0.1266
     18 C14         5.5490   -0.8622   -6.8166 C.3       1 <0>        -0.0782
     19 N3          3.4017    0.1813   -5.3191 N.pl3     1 <0>        -0.8032
     20 C15         1.7246   -1.4124   -3.6449 C.3       1 <0>         0.0843
     21 H1          2.0429   -0.4741   -3.1905 H         1 <0>         0.1050
     22 C16         0.5763   -1.1422   -4.5826 C.ar      1 <0>        -0.1432
     23 C17        -0.0174   -2.1873   -5.2659 C.ar      1 <0>        -0.0542
     24 C18        -1.0699   -1.9422   -6.1264 C.ar      1 <0>        -0.1456
     25 C19        -1.5314   -0.6460   -6.3044 C.ar      1 <0>         0.1458
     26 C20        -0.9343    0.4009   -5.6173 C.ar      1 <0>        -0.2003
     27 C21         0.1145    0.1498   -4.7539 C.ar      1 <0>        -0.0728
     28 O3         -2.5663   -0.4022   -7.1507 O.3       1 <0>        -0.3125
     29 C22        -2.9887    0.9564   -7.2846 C.3       1 <0>         0.0238
     30 C23         1.0978   -4.5450   -1.4617 C.3       1 <0>        -0.1353
     31 H2         -3.4791   -1.6689   -1.4827 H         1 <0>         0.0674
     32 H3         -3.1361   -3.1273   -0.5217 H         1 <0>         0.0680
     33 H4         -3.6539   -1.6292    0.2882 H         1 <0>         0.0843
     34 H5         -1.5544   -0.5185   -0.4241 H         1 <0>         0.0706
     35 H6         -1.2114   -1.9769    0.5370 H         1 <0>         0.0715
     36 H7          2.4097   -5.1456   -3.6845 H         1 <0>         0.4336
     37 H8          6.8904   -3.9826   -5.8577 H         1 <0>         0.1161
     38 H9          5.7139   -4.7535   -6.9440 H         1 <0>         0.1062
     39 H10         7.4825   -3.3749   -8.1240 H         1 <0>         0.0952
     40 H11         5.8082   -2.8795   -8.4828 H         1 <0>         0.0803
     41 H12         7.4983   -1.6083   -6.2807 H         1 <0>         0.0769
     42 H13         7.3892   -0.9514   -7.9344 H         1 <0>         0.0903
     43 H14         5.0007   -0.6431   -7.7328 H         1 <0>         0.0964
     44 H15         5.7491    0.0692   -6.2868 H         1 <0>         0.0893
     45 H16         2.6681    0.5719   -4.8190 H         1 <0>         0.4194
     46 H17         3.9558    0.7417   -5.8846 H         1 <0>         0.4228
     47 H18         0.3422   -3.1962   -5.1270 H         1 <0>         0.1184
     48 H19        -1.5328   -2.7588   -6.6605 H         1 <0>         0.1354
     49 H20        -1.2917    1.4108   -5.7542 H         1 <0>         0.1357
     50 H21         0.5769    0.9639   -4.2154 H         1 <0>         0.1254
     51 H22        -3.8197    1.0109   -7.9879 H         1 <0>         0.1071
     52 H23        -3.3088    1.3347   -6.3138 H         1 <0>         0.0599
     53 H24        -2.1596    1.5598   -7.6543 H         1 <0>         0.0584
     54 H25         0.1068   -4.9184   -1.7201 H         1 <0>         0.1067
     55 H26         1.7801   -5.3850   -1.3318 H         1 <0>         0.0901
     56 H27         1.0411   -3.9761   -0.5337 H         1 <0>         0.0945
     57 H28         4.3511   -4.8056   -4.9839 H         1 <0>         0.4377
@<TRIPOS>BOND
     1    1    2 1
     2    1   31 1
     3    1   32 1
     4    1   33 1
     5    2    3 1
     6    2   34 1
     7    2   35 1
     8    3    4 1
     9    4    5 2
    10    4    6 1
    11    6   20 1
    12    6    7 2
    13    7    8 1
    14    7   30 1
    15    8    9 1
    16    8   36 1
    17    9   14 ar
    18    9   10 ar
    19   10   11 ar
    20   10   20 1
    21   11   12 ar
    22   11   19 1
    23   12   18 1
    24   12   13 ar
    25   13   14 ar
    26   13   15 1
    27   14   57 1
    28   15   16 1
    29   15   37 1
    30   15   38 1
    31   16   17 1
    32   16   39 1
    33   16   40 1
    34   17   18 1
    35   17   41 1
    36   17   42 1
    37   18   43 1
    38   18   44 1
    39   19   45 1
    40   19   46 1
    41   20   21 1
    42   20   22 1
    43   22   27 ar
    44   22   23 ar
    45   23   24 ar
    46   23   47 1
    47   24   25 ar
    48   24   48 1
    49   25   26 ar
    50   25   28 1
    51   26   27 ar
    52   26   49 1
    53   27   50 1
    54   28   29 1
    55   29   51 1
    56   29   52 1
    57   29   53 1
    58   30   54 1
    59   30   55 1
    60   30   56 1
@<TRIPOS>MOLECULE
ZINC19796050
   37    39     0     0     0
SMALL
USER_CHARGES

@<TRIPOS>ATOM
      1 C1         -0.0184    1.5028    0.0103 C.3       1 <0>        -0.1375
      2 C2          0.0021   -0.0041    0.0020 C.2       1 <0>        -0.1076
      3 C3         -1.1234   -0.6744    0.0092 C.2       1 <0>        -0.1652
      4 C4         -2.4960   -0.0123    0.0193 C.3       1 <0>        -0.0011
      5 H1         -2.4129    1.0627   -0.1403 H         1 <0>         0.1246
      6 C5         -3.1070   -0.3186    1.3902 C.3       1 <0>        -0.0998
      7 C6         -3.0034   -1.7886    1.7079 C.2       1 <0>         0.2465
      8 C7         -2.1410   -2.6282    1.1033 C.2       1 <0>        -0.2448
      9 C8         -2.1016   -3.9856    1.4792 C.2       1 <0>        -0.0472
     10 C9         -2.9396   -4.4482    2.4460 C.2       1 <0>        -0.1975
     11 C10        -3.8368   -3.5512    3.0511 C.2       1 <0>         0.5174
     12 O1         -4.6023   -3.9423    3.9176 O.2       1 <0>        -0.5134
     13 N1         -3.8491   -2.2639    2.6734 N.am      1 <0>        -0.6088
     14 H2         -4.4740   -1.6539    3.0957 H         1 <0>         0.4241
     15 C11        -1.1948   -2.1939    0.0017 C.3       1 <0>         0.1727
     16 C12        -1.8053   -2.5953   -1.3498 C.3       1 <0>        -0.0814
     17 C13        -3.0324   -1.7778   -1.6215 C.2       1 <0>        -0.1018
     18 C14        -3.3273   -0.6547   -1.0592 C.2       1 <0>        -0.1547
     19 C15        -3.9923   -2.2986   -2.6599 C.3       1 <0>        -0.1299
     20 N2          0.1376   -2.7833    0.1896 N.4       1 <0>        -0.6289
     21 H3          1.0042    1.8801    0.0026 H         1 <0>         0.0766
     22 H4         -0.5455    1.8639   -0.8728 H         1 <0>         0.0831
     23 H5         -0.5286    1.8543    0.9071 H         1 <0>         0.0810
     24 H6          0.9446   -0.5313   -0.0098 H         1 <0>         0.1110
     25 H7         -2.5778    0.2514    2.1539 H         1 <0>         0.1147
     26 H8         -4.1568   -0.0253    1.3884 H         1 <0>         0.1097
     27 H9         -1.4060   -4.6586    1.0001 H         1 <0>         0.1321
     28 H10        -2.9161   -5.4863    2.7431 H         1 <0>         0.1635
     29 H11        -1.0751   -2.4257   -2.1412 H         1 <0>         0.1017
     30 H12        -2.0723   -3.6518   -1.3266 H         1 <0>         0.1027
     31 H13        -4.2382   -0.1584   -1.3598 H         1 <0>         0.1270
     32 H14        -4.7304   -2.9427   -2.1819 H         1 <0>         0.0742
     33 H15        -4.4978   -1.4607   -3.1401 H         1 <0>         0.0744
     34 H16        -3.4430   -2.8691   -3.4089 H         1 <0>         0.0686
     35 H17         0.5173   -2.4811    1.0742 H         1 <0>         0.4399
     36 H18         0.0645   -3.7896    0.1810 H         1 <0>         0.4359
     37 H19         0.7462   -2.4839   -0.5575 H         1 <0>         0.4382
@<TRIPOS>BOND
     1    1    2 1
     2    1   21 1
     3    1   22 1
     4    1   23 1
     5    2    3 2
     6    2   24 1
     7    3   15 1
     8    3    4 1
     9    4    5 1
    10    4   18 1
    11    4    6 1
    12    6    7 1
    13    6   25 1
    14    6   26 1
    15    7   13 1
    16    7    8 2
    17    8    9 1
    18    8   15 1
    19    9   10 2
    20    9   27 1
    21   10   11 1
    22   10   28 1
    23   11   12 2
    24   11   13 am
    25   13   14 1
    26   15   16 1
    27   15   20 1
    28   16   17 1
    29   16   29 1
    30   16   30 1
    31   17   18 2
    32   17   19 1
    33   18   31 1
    34   19   32 1
    35   19   33 1
    36   19   34 1
    37   20   35 1
    38   20   36 1
    39   20   37 1
@<TRIPOS>MOLECULE
ZINC35079580
   57    60     0     0     0
SMALL
USER_CHARGES

@<TRIPOS>ATOM
      1 C1          0.8294   -0.7471    1.9297 C.3       1 <0>        -0.1530
      2 C2          0.0503   -1.0570    0.6499 C.3       1 <0>         0.0575
      3 O1          0.9487   -1.5462   -0.3479 O.3       1 <0>        -0.3419
      4 C3          0.4172   -1.8687   -1.5459 C.2       1 <0>         0.5275
      5 O2         -0.7777   -1.7374   -1.7367 O.2       1 <0>        -0.4852
      6 C4          1.2476   -2.3585   -2.5782 C.2       1 <0>        -0.1952
      7 C5          1.6028   -3.6539   -2.5672 C.2       1 <0>         0.1854
      8 N1          2.3959   -4.1812   -3.5447 N.pl3     1 <0>        -0.6324
      9 C6          2.5546   -3.5092   -4.7549 C.ar      1 <0>         0.4500
     10 C7          2.2230   -2.1661   -4.8448 C.ar      1 <0>        -0.2096
     11 C8          2.3821   -1.5168   -6.0630 C.ar      1 <0>         0.3552
     12 C9          2.8771   -2.2422   -7.1556 C.ar      1 <0>        -0.1685
     13 C10         3.1924   -3.5675   -6.9912 C.ar      1 <0>         0.2128
     14 N2          3.0210   -4.1545   -5.8118 N.ar      1 <0>        -0.5264
     15 C11         3.7472   -4.4094   -8.1120 C.3       1 <0>        -0.0995
     16 C12         3.4783   -3.7504   -9.4630 C.3       1 <0>        -0.1204
     17 C13         3.9637   -2.2974   -9.3987 C.3       1 <0>        -0.1261
     18 C14         3.0345   -1.5212   -8.4672 C.3       1 <0>        -0.0782
     19 N3          2.0553   -0.1703   -6.1960 N.pl3     1 <0>        -0.8025
     20 C15         1.6997   -1.4163   -3.6553 C.3       1 <0>         0.0833
     21 H1          0.8590   -0.7944   -3.9629 H         1 <0>         0.1125
     22 C16         2.7942   -0.5335   -3.1131 C.ar      1 <0>        -0.1329
     23 C17         3.9676   -1.0944   -2.6468 C.ar      1 <0>        -0.0600
     24 C18         4.9718   -0.2852   -2.1488 C.ar      1 <0>        -0.1469
     25 C19         4.8049    1.0872   -2.1164 C.ar      1 <0>        -0.0652
     26 C20         3.6339    1.6528   -2.5818 C.ar      1 <0>        -0.1967
     27 C21         2.6266    0.8432   -3.0869 C.ar      1 <0>         0.1307
     28 O3          1.4758    1.3977   -3.5506 O.3       1 <0>        -0.3283
     29 C22         1.3726    2.8218   -3.4928 C.3       1 <0>         0.0222
     30 C23         1.1158   -4.5432   -1.4523 C.3       1 <0>        -0.1379
     31 H2          1.3127   -1.6554    2.2898 H         1 <0>         0.0680
     32 H3          1.5863    0.0087    1.7204 H         1 <0>         0.0669
     33 H4          0.1441   -0.3740    2.6909 H         1 <0>         0.0842
     34 H5         -0.7066   -1.8128    0.8593 H         1 <0>         0.0717
     35 H6         -0.4329   -0.1487    0.2898 H         1 <0>         0.0702
     36 H7          2.8502   -5.0253   -3.3965 H         1 <0>         0.4330
     37 H8          4.8225   -4.5251   -7.9762 H         1 <0>         0.1155
     38 H9          3.2752   -5.3918   -8.0911 H         1 <0>         0.1061
     39 H10         4.0186   -4.2835  -10.2453 H         1 <0>         0.0951
     40 H11         2.4094   -3.7711   -9.6752 H         1 <0>         0.0805
     41 H12         4.9818   -2.2671   -9.0107 H         1 <0>         0.0766
     42 H13         3.9367   -1.8567  -10.3953 H         1 <0>         0.0902
     43 H14         2.0577   -1.4166   -8.9394 H         1 <0>         0.0966
     44 H15         3.4530   -0.5313   -8.2852 H         1 <0>         0.0885
     45 H16         1.7131    0.3233   -5.4343 H         1 <0>         0.4246
     46 H17         2.1697    0.2744   -7.0505 H         1 <0>         0.4208
     47 H18         4.1003   -2.1660   -2.6711 H         1 <0>         0.1187
     48 H19         5.8880   -0.7256   -1.7842 H         1 <0>         0.1295
     49 H20         5.5907    1.7172   -1.7266 H         1 <0>         0.1326
     50 H21         3.5040    2.7247   -2.5562 H         1 <0>         0.1358
     51 H22         0.4075    3.1327   -3.8928 H         1 <0>         0.1083
     52 H23         1.4598    3.1507   -2.4573 H         1 <0>         0.0643
     53 H24         2.1719    3.2683   -4.0844 H         1 <0>         0.0615
     54 H25         0.1214   -4.9182   -1.6946 H         1 <0>         0.1007
     55 H26         1.8010   -5.3822   -1.3312 H         1 <0>         0.0912
     56 H27         1.0728   -3.9724   -0.5247 H         1 <0>         0.1013
     57 H28         3.2468   -5.0935   -5.7218 H         1 <0>         0.4375
@<TRIPOS>BOND
     1    1    2 1
     2    1   31 1
     3    1   32 1
     4    1   33 1
     5    2    3 1
     6    2   34 1
     7    2   35 1
     8    3    4 1
     9    4    5 2
    10    4    6 1
    11    6   20 1
    12    6    7 2
    13    7    8 1
    14    7   30 1
    15    8    9 1
    16    8   36 1
    17    9   14 ar
    18    9   10 ar
    19   10   11 ar
    20   10   20 1
    21   11   12 ar
    22   11   19 1
    23   12   18 1
    24   12   13 ar
    25   13   14 ar
    26   13   15 1
    27   14   57 1
    28   15   16 1
    29   15   37 1
    30   15   38 1
    31   16   17 1
    32   16   39 1
    33   16   40 1
    34   17   18 1
    35   17   41 1
    36   17   42 1
    37   18   43 1
    38   18   44 1
    39   19   45 1
    40   19   46 1
    41   20   21 1
    42   20   22 1
    43   22   27 ar
    44   22   23 ar
    45   23   24 ar
    46   23   47 1
    47   24   25 ar
    48   24   48 1
    49   25   26 ar
    50   25   49 1
    51   26   27 ar
    52   26   50 1
    53   27   28 1
    54   28   29 1
    55   29   51 1
    56   29   52 1
    57   29   53 1
    58   30   54 1
    59   30   55 1
    60   30   56 1
@<TRIPOS>MOLECULE
ZINC35079582
   57    60     0     0     0
SMALL
USER_CHARGES

@<TRIPOS>ATOM
      1 C1         -3.0760   -2.0391   -0.5401 C.3       1 <0>        -0.1529
      2 C2         -1.6145   -1.6066   -0.4056 C.3       1 <0>         0.0580
      3 O1         -0.8569   -2.1440   -1.4915 O.3       1 <0>        -0.3419
      4 C3          0.4609   -1.8541   -1.5219 C.2       1 <0>         0.5268
      5 O2          0.9523   -1.1631   -0.6488 O.2       1 <0>        -0.4860
      6 C4          1.2698   -2.3525   -2.5671 C.2       1 <0>        -0.1965
      7 C5          1.6027   -3.6539   -2.5672 C.2       1 <0>         0.1867
      8 N1          2.3892   -4.1855   -3.5476 N.pl3     1 <0>        -0.6333
      9 C6          3.1632   -3.3517   -4.3520 C.ar      1 <0>         0.4500
     10 C7          2.8736   -1.9976   -4.4189 C.ar      1 <0>        -0.2096
     11 C8          3.6594   -1.1834   -5.2252 C.ar      1 <0>         0.3554
     12 C9          4.7161   -1.7609   -5.9428 C.ar      1 <0>        -0.1684
     13 C10         4.9461   -3.1086   -5.8261 C.ar      1 <0>         0.2126
     14 N2          4.1710   -3.8545   -5.0465 N.ar      1 <0>        -0.5264
     15 C11         6.0710   -3.8007   -6.5532 C.3       1 <0>        -0.0996
     16 C12         6.5738   -2.9388   -7.7092 C.3       1 <0>        -0.1202
     17 C13         6.8740   -1.5346   -7.1712 C.3       1 <0>        -0.1265
     18 C14         5.5490   -0.8622   -6.8166 C.3       1 <0>        -0.0781
     19 N3          3.4017    0.1813   -5.3191 N.pl3     1 <0>        -0.8025
     20 C15         1.7246   -1.4124   -3.6449 C.3       1 <0>         0.0840
     21 H1          2.0429   -0.4741   -3.1905 H         1 <0>         0.1131
     22 C16         0.5763   -1.1422   -4.5826 C.ar      1 <0>        -0.1342
     23 C17        -0.0183   -2.1853   -5.2663 C.ar      1 <0>        -0.0602
     24 C18        -1.0714   -1.9379   -6.1270 C.ar      1 <0>        -0.1475
     25 C19        -1.5327   -0.6466   -6.3058 C.ar      1 <0>        -0.0649
     26 C20        -0.9421    0.3996   -5.6243 C.ar      1 <0>        -0.1974
     27 C21         0.1117    0.1533   -4.7558 C.ar      1 <0>         0.1314
     28 O3          0.6909    1.1802   -4.0799 O.3       1 <0>        -0.3276
     29 C22         0.1606    2.4875   -4.3073 C.3       1 <0>         0.0222
     30 C23         1.0978   -4.5450   -1.4617 C.3       1 <0>        -0.1345
     31 H2         -3.4791   -1.6688   -1.4827 H         1 <0>         0.0670
     32 H3         -3.1361   -3.1273   -0.5217 H         1 <0>         0.0680
     33 H4         -3.6539   -1.6292    0.2882 H         1 <0>         0.0840
     34 H5         -1.5544   -0.5185   -0.4240 H         1 <0>         0.0699
     35 H6         -1.2114   -1.9769    0.5370 H         1 <0>         0.0714
     36 H7          2.4097   -5.1456   -3.6846 H         1 <0>         0.4333
     37 H8          6.8903   -3.9826   -5.8577 H         1 <0>         0.1159
     38 H9          5.7139   -4.7535   -6.9441 H         1 <0>         0.1060
     39 H10         7.4825   -3.3749   -8.1240 H         1 <0>         0.0950
     40 H11         5.8082   -2.8795   -8.4828 H         1 <0>         0.0801
     41 H12         7.4983   -1.6083   -6.2807 H         1 <0>         0.0770
     42 H13         7.3892   -0.9514   -7.9344 H         1 <0>         0.0902
     43 H14         5.0007   -0.6431   -7.7328 H         1 <0>         0.0960
     44 H15         5.7491    0.0692   -6.2868 H         1 <0>         0.0890
     45 H16         2.6681    0.5719   -4.8190 H         1 <0>         0.4246
     46 H17         3.9558    0.7417   -5.8846 H         1 <0>         0.4208
     47 H18         0.3402   -3.1946   -5.1284 H         1 <0>         0.1190
     48 H19        -1.5343   -2.7546   -6.6611 H         1 <0>         0.1297
     49 H20        -2.3554   -0.4559   -6.9790 H         1 <0>         0.1327
     50 H21        -1.3027    1.4079   -5.7643 H         1 <0>         0.1360
     51 H22         0.7116    3.2124   -3.7082 H         1 <0>         0.1084
     52 H23         0.2575    2.7403   -5.3632 H         1 <0>         0.0615
     53 H24        -0.8918    2.5071   -4.0241 H         1 <0>         0.0641
     54 H25         0.1068   -4.9184   -1.7201 H         1 <0>         0.1063
     55 H26         1.7801   -5.3850   -1.3318 H         1 <0>         0.0901
     56 H27         1.0411   -3.9761   -0.5337 H         1 <0>         0.0943
     57 H28         4.3510   -4.8056   -4.9839 H         1 <0>         0.4374
@<TRIPOS>BOND
     1    1    2 1
     2    1   31 1
     3    1   32 1
     4    1   33 1
     5    2    3 1
     6    2   34 1
     7    2   35 1
     8    3    4 1
     9    4    5 2
    10    4    6 1
    11    6   20 1
    12    6    7 2
    13    7    8 1
    14    7   30 1
    15    8    9 1
    16    8   36 1
    17    9   14 ar
    18    9   10 ar
    19   10   11 ar
    20   10   20 1
    21   11   12 ar
    22   11   19 1
    23   12   18 1
    24   12   13 ar
    25   13   14 ar
    26   13   15 1
    27   14   57 1
    28   15   16 1
    29   15   37 1
    30   15   38 1
    31   16   17 1
    32   16   39 1
    33   16   40 1
    34   17   18 1
    35   17   41 1
    36   17   42 1
    37   18   43 1
    38   18   44 1
    39   19   45 1
    40   19   46 1
    41   20   21 1
    42   20   22 1
    43   22   27 ar
    44   22   23 ar
    45   23   24 ar
    46   23   47 1
    47   24   25 ar
    48   24   48 1
    49   25   26 ar
    50   25   49 1
    51   26   27 ar
    52   26   50 1
    53   27   28 1
    54   28   29 1
    55   29   51 1
    56   29   52 1
    57   29   53 1
    58   30   54 1
    59   30   55 1
    60   30   56 1
@<TRIPOS>MOLECULE
ZINC02627968
   47    50     0     0     0
SMALL
USER_CHARGES
3-[4-(4-methoxyphenyl)piperazin-1-yl]carbonylchromen-2-one
@<TRIPOS>ATOM
      1 C1          3.2117   -1.4318   -6.5050 C.3       1 <0>         0.0273
      2 O1          1.9820   -1.2031   -5.8139 O.3       1 <0>        -0.3184
      3 C2          1.9338   -0.1317   -4.9777 C.ar      1 <0>         0.1053
      4 C3          0.7706    0.1479   -4.2758 C.ar      1 <0>        -0.1253
      5 C4          0.7205    1.2360   -3.4267 C.ar      1 <0>        -0.0963
      6 C5          1.8354    2.0499   -3.2754 C.ar      1 <0>         0.0715
      7 C6          2.9999    1.7685   -3.9774 C.ar      1 <0>        -0.1292
      8 C7          3.0479    0.6805   -4.8268 C.ar      1 <0>        -0.1815
      9 N1          1.7854    3.1529   -2.4156 N.pl3     1 <0>        -0.4836
     10 C8          0.6752    4.0471   -2.7704 C.3       1 <0>         0.0416
     11 C9          0.5426    5.1393   -1.7038 C.3       1 <0>         0.1179
     12 N2          1.8473    5.7998   -1.5467 N.am      1 <0>        -0.6111
     13 C10         3.0319    4.9567   -1.3249 C.3       1 <0>         0.0966
     14 C11         3.0665    3.8717   -2.4065 C.3       1 <0>         0.0343
     15 C12         1.9545    7.1421   -1.6041 C.2       1 <0>         0.5769
     16 O2          0.9750    7.8205   -1.8481 O.2       1 <0>        -0.5043
     17 C13         3.2576    7.7874   -1.3712 C.2       1 <0>        -0.2549
     18 C14         4.1340    7.2841   -0.4254 C.2       1 <0>         0.0342
     19 C15         5.3780    7.9369   -0.2340 C.ar      1 <0>        -0.1702
     20 C16         6.2897    7.4535    0.7168 C.ar      1 <0>        -0.0448
     21 C17         7.4852    8.0872    0.8961 C.ar      1 <0>        -0.1437
     22 C18         7.8072    9.2085    0.1438 C.ar      1 <0>        -0.0474
     23 C19         6.9266    9.7007   -0.7958 C.ar      1 <0>        -0.1389
     24 C20         5.7022    9.0728   -0.9973 C.ar      1 <0>         0.1615
     25 O3          4.8410    9.5572   -1.9175 O.3       1 <0>        -0.2613
     26 C21         3.6529    8.9718   -2.1418 C.2       1 <0>         0.5233
     27 O4          2.9003    9.4282   -2.9819 O.2       1 <0>        -0.4239
     28 H1          3.1147   -2.3148   -7.1367 H         1 <0>         0.1008
     29 H2          3.4470   -0.5662   -7.1242 H         1 <0>         0.0546
     30 H3          4.0115   -1.5890   -5.7813 H         1 <0>         0.0551
     31 H4         -0.0964   -0.4853   -4.3936 H         1 <0>         0.1344
     32 H5         -0.1868    1.4563   -2.8839 H         1 <0>         0.1338
     33 H6          3.8677    2.4006   -3.8598 H         1 <0>         0.1286
     34 H7          3.9534    0.4619   -5.3734 H         1 <0>         0.1289
     35 H8          0.8734    4.5065   -3.7388 H         1 <0>         0.0511
     36 H9         -0.2508    3.4745   -2.8217 H         1 <0>         0.0985
     37 H10         0.2425    4.6915   -0.7564 H         1 <0>         0.0829
     38 H11        -0.2030    5.8708   -2.0154 H         1 <0>         0.1046
     39 H12         2.9711    4.4913   -0.3412 H         1 <0>         0.0875
     40 H13         3.9344    5.5647   -1.3872 H         1 <0>         0.0955
     41 H14         3.8747    3.1719   -2.1939 H         1 <0>         0.0986
     42 H15         3.2314    4.3335   -3.3799 H         1 <0>         0.0527
     43 H16         3.8751    6.4113    0.1558 H         1 <0>         0.1615
     44 H17         6.0457    6.5818    1.3060 H         1 <0>         0.1430
     45 H18         8.1855    7.7136    1.6284 H         1 <0>         0.1396
     46 H19         8.7565    9.7003    0.2963 H         1 <0>         0.1444
     47 H20         7.1875   10.5740   -1.3752 H         1 <0>         0.1481
@<TRIPOS>BOND
     1    1    2 1
     2    1   28 1
     3    1   29 1
     4    1   30 1
     5    2    3 1
     6    3    8 ar
     7    3    4 ar
     8    4    5 ar
     9    4   31 1
    10    5    6 ar
    11    5   32 1
    12    6    7 ar
    13    6    9 1
    14    7    8 ar
    15    7   33 1
    16    8   34 1
    17    9   14 1
    18    9   10 1
    19   10   11 1
    20   10   35 1
    21   10   36 1
    22   11   12 1
    23   11   37 1
    24   11   38 1
    25   12   13 1
    26   12   15 am
    27   13   14 1
    28   13   39 1
    29   13   40 1
    30   14   41 1
    31   14   42 1
    32   15   16 2
    33   15   17 1
    34   17   26 1
    35   17   18 2
    36   18   19 1
    37   18   43 1
    38   19   24 ar
    39   19   20 ar
    40   20   21 ar
    41   20   44 1
    42   21   22 ar
    43   21   45 1
    44   22   23 ar
    45   22   46 1
    46   23   24 ar
    47   23   47 1
    48   24   25 1
    49   25   26 1
    50   26   27 2
@<TRIPOS>MOLECULE
ZINC34187326
   56    57     0     0     0
SMALL
USER_CHARGES

@<TRIPOS>ATOM
      1 C1         -0.0184    1.5028    0.0103 C.3       1 <0>        -0.1455
      2 C2          0.0021   -0.0041    0.0020 C.2       1 <0>         0.4592
      3 O1          0.0203   -0.6138    1.0450 O.2       1 <0>        -0.5054
      4 O2          0.0001   -0.6689   -1.1641 O.3       1 <0>        -0.3462
      5 C3          0.0201   -2.0962   -1.0971 C.3       1 <0>         0.0799
      6 C4          0.0146   -2.6733   -2.5141 C.3       1 <0>         0.0875
      7 H1         -0.8379   -2.2761   -3.0650 H         1 <0>         0.0973
      8 C5         -0.0892   -4.1991   -2.4435 C.3       1 <0>         0.0668
      9 H2          0.7411   -4.5940   -1.8580 H         1 <0>         0.1185
     10 C6         -0.0336   -4.7731   -3.8626 C.3       1 <0>         0.1041
     11 H3         -0.8913   -4.4175   -4.4336 H         1 <0>         0.1169
     12 C7          1.2602   -4.3091   -4.5388 C.3       1 <0>         0.0548
     13 H4          2.1177   -4.7062   -3.9957 H         1 <0>         0.1190
     14 C8          1.3118   -2.7790   -4.5285 C.3       1 <0>         0.2429
     15 H5          0.4764   -2.3832   -5.1059 H         1 <0>         0.0893
     16 O3          1.2247   -2.3097   -3.1815 O.3       1 <0>        -0.3618
     17 O4          2.5421   -2.3398   -5.1077 O.3       1 <0>        -0.2734
     18 C9          2.7033   -1.0028   -5.2711 C.ar      1 <0>         0.1590
     19 C10         1.6957   -0.1298   -4.8746 C.ar      1 <0>        -0.2022
     20 C11         1.8538    1.2225   -5.0371 C.ar      1 <0>        -0.0277
     21 C12         3.0322    1.7242   -5.6034 C.ar      1 <0>        -0.2292
     22 C13         4.0436    0.8409   -6.0009 C.ar      1 <0>        -0.0217
     23 C14         3.8777   -0.5094   -5.8292 C.ar      1 <0>        -0.1577
     24 C15         3.2067    3.1716   -5.7803 C.2       1 <0>         0.3846
     25 O5          4.2282    3.6039   -6.2710 O.2       1 <0>        -0.4634
     26 O6          1.2894   -4.7800   -5.8877 O.3       1 <0>        -0.3276
     27 C16         2.4963   -5.0270   -6.4208 C.2       1 <0>         0.4568
     28 O7          3.4947   -4.8493   -5.7641 O.2       1 <0>        -0.4860
     29 C17         2.6058   -5.5260   -7.8386 C.3       1 <0>        -0.1445
     30 O8         -0.0580   -6.2006   -3.8022 O.3       1 <0>        -0.3351
     31 C18        -0.6195   -6.8448   -4.8373 C.2       1 <0>         0.4585
     32 O9         -1.0752   -6.2174   -5.7639 O.2       1 <0>        -0.4870
     33 C19        -0.6817   -8.3505   -4.8436 C.3       1 <0>        -0.1460
     34 O10        -1.3252   -4.5656   -1.8269 O.3       1 <0>        -0.3333
     35 C20        -1.3216   -4.7085   -0.4923 C.2       1 <0>         0.4558
     36 O11        -0.3028   -4.5282    0.1319 O.2       1 <0>        -0.4929
     37 C21        -2.5882   -5.0936    0.2277 C.3       1 <0>        -0.1462
     38 H6          1.0042    1.8801    0.0026 H         1 <0>         0.1074
     39 H7         -0.5455    1.8639   -0.8728 H         1 <0>         0.0952
     40 H8         -0.5286    1.8543    0.9071 H         1 <0>         0.1052
     41 H9          0.9196   -2.4228   -0.5753 H         1 <0>         0.0926
     42 H10        -0.8601   -2.4471   -0.5584 H         1 <0>         0.0848
     43 H11         0.7872   -0.5178   -4.4383 H         1 <0>         0.1364
     44 H12         1.0707    1.8995   -4.7293 H         1 <0>         0.1372
     45 H13         4.9543    1.2227   -6.4382 H         1 <0>         0.1413
     46 H14         4.6588   -1.1912   -6.1316 H         1 <0>         0.1379
     47 H15         2.4253    3.8511   -5.4734 H         1 <0>         0.1045
     48 H16         1.6085   -5.6243   -8.2673 H         1 <0>         0.0934
     49 H17         3.1869   -4.8176   -8.4292 H         1 <0>         0.1091
     50 H18         3.1014   -6.4968   -7.8448 H         1 <0>         0.1078
     51 H19        -1.6085   -8.6779   -4.3726 H         1 <0>         0.1088
     52 H20        -0.6494   -8.7111   -5.8717 H         1 <0>         0.1075
     53 H21         0.1680   -8.7515   -4.2911 H         1 <0>         0.0946
     54 H22        -3.3954   -5.2118   -0.4951 H         1 <0>         0.0948
     55 H23        -2.4337   -6.0339    0.7569 H         1 <0>         0.1123
     56 H24        -2.8515   -4.3136    0.9421 H         1 <0>         0.1108
@<TRIPOS>BOND
     1    1    2 1
     2    1   38 1
     3    1   39 1
     4    1   40 1
     5    2    3 2
     6    2    4 1
     7    4    5 1
     8    5    6 1
     9    5   41 1
    10    5   42 1
    11    6    7 1
    12    6   16 1
    13    6    8 1
    14    8    9 1
    15    8   10 1
    16    8   34 1
    17   10   11 1
    18   10   12 1
    19   10   30 1
    20   12   13 1
    21   12   14 1
    22   12   26 1
    23   14   15 1
    24   14   16 1
    25   14   17 1
    26   17   18 1
    27   18   23 ar
    28   18   19 ar
    29   19   20 ar
    30   19   43 1
    31   20   21 ar
    32   20   44 1
    33   21   22 ar
    34   21   24 1
    35   22   23 ar
    36   22   45 1
    37   23   46 1
    38   24   25 2
    39   24   47 1
    40   26   27 1
    41   27   28 2
    42   27   29 1
    43   29   48 1
    44   29   49 1
    45   29   50 1
    46   30   31 1
    47   31   32 2
    48   31   33 1
    49   33   51 1
    50   33   52 1
    51   33   53 1
    52   34   35 1
    53   35   36 2
    54   35   37 1
    55   37   54 1
    56   37   55 1
    57   37   56 1
@<TRIPOS>MOLECULE
ZINC05234422
   36    37     0     0     0
SMALL
USER_CHARGES
4-[3,4,5-trihydroxy-6-(hydroxymethyl)tetrahydropyran-2-yl]oxybenzaldehyde
@<TRIPOS>ATOM
      1 C1          7.4301    2.0615    3.8345 C.ar      1 <0>        -0.0233
      2 C2          6.1458    1.5992    3.7034 C.ar      1 <0>        -0.1612
      3 C3          5.4008    1.9195    2.5735 C.ar      1 <0>         0.1594
      4 C4          5.9553    2.7051    1.5687 C.ar      1 <0>        -0.1979
      5 C5          7.2369    3.1768    1.6925 C.ar      1 <0>        -0.0271
      6 C6          7.9913    2.8573    2.8282 C.ar      1 <0>        -0.2285
      7 C7          9.3661    3.3555    2.9636 C.2       1 <0>         0.3847
      8 O1         10.0176    3.0778    3.9483 O.2       1 <0>        -0.4639
      9 O2          4.1308    1.4593    2.4484 O.3       1 <0>        -0.2932
     10 C8          3.4218    1.8255    1.2630 C.3       1 <0>         0.2239
     11 H1          4.0002    1.5300    0.3876 H         1 <0>         0.0803
     12 C9          2.0644    1.1180    1.2408 C.3       1 <0>         0.0606
     13 H2          1.5016    1.3815    2.1363 H         1 <0>         0.0884
     14 C10         1.2864    1.5618   -0.0018 C.3       1 <0>         0.0858
     15 H3          1.8241    1.2531   -0.8983 H         1 <0>         0.0795
     16 C11         1.1467    3.0871    0.0122 C.3       1 <0>         0.0897
     17 H4          0.5648    3.3916    0.8821 H         1 <0>         0.0817
     18 C12         2.5396    3.7185    0.0840 C.3       1 <0>         0.1082
     19 H5          3.1065    3.4479   -0.8068 H         1 <0>         0.0842
     20 O3          3.2205    3.2402    1.2458 O.3       1 <0>        -0.3709
     21 C13         2.4065    5.2408    0.1612 C.3       1 <0>         0.0904
     22 O4          3.7047    5.8357    0.1101 O.3       1 <0>        -0.5664
     23 O5          0.4864    3.5171   -1.1799 O.3       1 <0>        -0.5489
     24 O6         -0.0110    0.9628    0.0073 O.3       1 <0>        -0.5533
     25 O7          2.2637   -0.2964    1.1996 O.3       1 <0>        -0.5531
     26 H6          8.0078    1.8119    4.7122 H         1 <0>         0.1413
     27 H7          5.7119    0.9857    4.4791 H         1 <0>         0.1377
     28 H8          5.3740    2.9475    0.6914 H         1 <0>         0.1373
     29 H9          7.6650    3.7905    0.9137 H         1 <0>         0.1372
     30 H10         9.7971    3.9691    2.1863 H         1 <0>         0.1050
     31 H11         1.8105    5.5964   -0.6793 H         1 <0>         0.0795
     32 H12         1.9173    5.5158    1.0956 H         1 <0>         0.0579
     33 H13         3.6968    6.8016    0.1544 H         1 <0>         0.3861
     34 H14        -0.4015    3.1508   -1.2918 H         1 <0>         0.3963
     35 H15         0.0021   -0.0041    0.0020 H         1 <0>         0.3965
     36 H16         2.7509   -0.6472    1.9576 H         1 <0>         0.3961
@<TRIPOS>BOND
     1    1    6 ar
     2    1    2 ar
     3    1   26 1
     4    2    3 ar
     5    2   27 1
     6    3    4 ar
     7    3    9 1
     8    4    5 ar
     9    4   28 1
    10    5    6 ar
    11    5   29 1
    12    6    7 1
    13    7    8 2
    14    7   30 1
    15    9   10 1
    16   10   11 1
    17   10   20 1
    18   10   12 1
    19   12   13 1
    20   12   14 1
    21   12   25 1
    22   14   15 1
    23   14   16 1
    24   14   24 1
    25   16   17 1
    26   16   18 1
    27   16   23 1
    28   18   19 1
    29   18   20 1
    30   18   21 1
    31   21   22 1
    32   21   31 1
    33   21   32 1
    34   22   33 1
    35   23   34 1
    36   24   35 1
    37   25   36 1
@<TRIPOS>MOLECULE
ZINC03814201
   68    69     0     0     0
SMALL
USER_CHARGES

@<TRIPOS>ATOM
      1 C1         -0.0178    1.4648    0.0101 C.3       1 <0>        -0.0438
      2 N1          0.0021   -0.0041    0.0020 N.4       1 <0>        -0.2059
      3 C2          0.7126   -0.4907    1.1921 C.3       1 <0>        -0.0477
      4 C3         -1.3761   -0.5125    0.0124 C.3       1 <0>         0.0265
      5 C4         -2.0815   -0.0265    1.2523 C.2       1 <0>        -0.2340
      6 C5         -3.2108    0.6292    1.1489 C.2       1 <0>        -0.1033
      7 C6          0.6564   -0.4549   -1.1482 C.ar      1 <0>        -0.0459
      8 C7         -0.0149   -1.2492   -2.0589 C.ar      1 <0>        -0.0942
      9 C8          0.6321   -1.6950   -3.1962 C.ar      1 <0>        -0.0951
     10 C9          1.9503   -1.3462   -3.4231 C.ar      1 <0>        -0.0354
     11 C10         2.6214   -0.5512   -2.5128 C.ar      1 <0>        -0.0944
     12 C11         1.9731   -0.1018   -1.3776 C.ar      1 <0>        -0.0861
     13 C12         2.6560   -1.8330   -4.6624 C.3       1 <0>        -0.0878
     14 C13         2.4608   -0.8194   -5.7918 C.3       1 <0>        -0.1661
     15 C14         3.1665   -1.3062   -7.0312 C.2       1 <0>         0.3539
     16 O1          3.7639   -2.3556   -7.0131 O.2       1 <0>        -0.4384
     17 C15         3.1267   -0.4835   -8.2932 C.3       1 <0>        -0.1661
     18 C16         3.9152   -1.1978   -9.3927 C.3       1 <0>        -0.0878
     19 C17         3.8754   -0.3751  -10.6547 C.ar      1 <0>        -0.0353
     20 C18         2.8594   -0.5660  -11.5724 C.ar      1 <0>        -0.0945
     21 C19         2.8229    0.1886  -12.7301 C.ar      1 <0>        -0.0860
     22 C20         3.8021    1.1344  -12.9698 C.ar      1 <0>        -0.0460
     23 C21         4.8176    1.3259  -12.0516 C.ar      1 <0>        -0.0941
     24 C22         4.8517    0.5743  -10.8920 C.ar      1 <0>        -0.0952
     25 N2          3.7657    1.8970  -14.1409 N.4       1 <0>        -0.2058
     26 C23         3.8389    1.0069  -15.3072 C.3       1 <0>        -0.0478
     27 C24         2.5132    2.6632  -14.1876 C.3       1 <0>        -0.0437
     28 C25         4.9066    2.8221  -14.1585 C.3       1 <0>         0.0265
     29 C26         4.8674    3.6441  -15.4210 C.2       1 <0>        -0.2340
     30 C27         4.8788    4.9522  -15.3515 C.2       1 <0>        -0.1033
     31 H1          1.0047    1.8421    0.0024 H         1 <0>         0.1202
     32 H2         -0.5450    1.8259   -0.8730 H         1 <0>         0.1198
     33 H3         -0.5280    1.8163    0.9069 H         1 <0>         0.1271
     34 H4          0.2024   -0.1392    2.0889 H         1 <0>         0.1280
     35 H5          0.7273   -1.5806    1.1861 H         1 <0>         0.1228
     36 H6          1.7352   -0.1134    1.1844 H         1 <0>         0.1209
     37 H7         -1.9033   -0.1515   -0.8706 H         1 <0>         0.1298
     38 H8         -1.3613   -1.6024    0.0064 H         1 <0>         0.1353
     39 H9         -1.6559   -0.2188    2.2261 H         1 <0>         0.1359
     40 H10        -3.6364    0.8214    0.1751 H         1 <0>         0.1108
     41 H11        -3.7163    0.9775    2.0375 H         1 <0>         0.1253
     42 H12        -1.0448   -1.5217   -1.8816 H         1 <0>         0.1491
     43 H13         0.1078   -2.3161   -3.9073 H         1 <0>         0.1476
     44 H14         3.6514   -0.2790   -2.6899 H         1 <0>         0.1477
     45 H15         2.4962    0.5224   -0.6683 H         1 <0>         0.1443
     46 H16         3.7201   -1.9448   -4.4544 H         1 <0>         0.0920
     47 H17         2.2413   -2.7954   -4.9623 H         1 <0>         0.0920
     48 H18         1.3967   -0.7076   -5.9998 H         1 <0>         0.1033
     49 H19         2.8755    0.1430   -5.4919 H         1 <0>         0.1033
     50 H20         2.0921   -0.3569   -8.6119 H         1 <0>         0.1033
     51 H21         3.5708    0.4937   -8.1040 H         1 <0>         0.1033
     52 H22         4.9498   -1.3245   -9.0741 H         1 <0>         0.0919
     53 H23         3.4711   -2.1751   -9.5819 H         1 <0>         0.0920
     54 H24         2.0943   -1.3049  -11.3852 H         1 <0>         0.1476
     55 H25         2.0295    0.0390  -13.4474 H         1 <0>         0.1443
     56 H26         5.5829    2.0646  -12.2391 H         1 <0>         0.1492
     57 H27         5.6430    0.7264  -10.1729 H         1 <0>         0.1476
     58 H28         2.9923    0.3204  -15.2942 H         1 <0>         0.1210
     59 H29         3.8105    1.6014  -16.2204 H         1 <0>         0.1281
     60 H30         4.7683    0.4383  -15.2726 H         1 <0>         0.1228
     61 H31         2.4589    3.3237  -13.3222 H         1 <0>         0.1198
     62 H32         2.4848    3.2577  -15.1007 H         1 <0>         0.1271
     63 H33         1.6666    1.9768  -14.1745 H         1 <0>         0.1202
     64 H34         4.8523    3.4826  -13.2931 H         1 <0>         0.1299
     65 H35         5.8360    2.2536  -14.1239 H         1 <0>         0.1353
     66 H36         4.8298    3.1547  -16.3831 H         1 <0>         0.1360
     67 H37         4.8507    5.5413  -16.2563 H         1 <0>         0.1253
     68 H38         4.9163    5.4416  -14.3895 H         1 <0>         0.1109
@<TRIPOS>BOND
     1    1    2 1
     2    1   31 1
     3    1   32 1
     4    1   33 1
     5    2    3 1
     6    2    4 1
     7    2    7 1
     8    3   34 1
     9    3   35 1
    10    3   36 1
    11    4    5 1
    12    4   37 1
    13    4   38 1
    14    5    6 2
    15    5   39 1
    16    6   40 1
    17    6   41 1
    18    7   12 ar
    19    7    8 ar
    20    8    9 ar
    21    8   42 1
    22    9   10 ar
    23    9   43 1
    24   10   11 ar
    25   10   13 1
    26   11   12 ar
    27   11   44 1
    28   12   45 1
    29   13   14 1
    30   13   46 1
    31   13   47 1
    32   14   15 1
    33   14   48 1
    34   14   49 1
    35   15   16 2
    36   15   17 1
    37   17   18 1
    38   17   50 1
    39   17   51 1
    40   18   19 1
    41   18   52 1
    42   18   53 1
    43   19   24 ar
    44   19   20 ar
    45   20   21 ar
    46   20   54 1
    47   21   22 ar
    48   21   55 1
    49   22   23 ar
    50   22   25 1
    51   23   24 ar
    52   23   56 1
    53   24   57 1
    54   25   26 1
    55   25   27 1
    56   25   28 1
    57   26   58 1
    58   26   59 1
    59   26   60 1
    60   27   61 1
    61   27   62 1
    62   27   63 1
    63   28   29 1
    64   28   64 1
    65   28   65 1
    66   29   30 2
    67   29   66 1
    68   30   67 1
    69   30   68 1
@<TRIPOS>MOLECULE
ZINC42835776
   64    64     0     0     0
SMALL
USER_CHARGES

@<TRIPOS>ATOM
      1 C1          0.7346    1.4346    0.6675 C.3       1 <0>        -0.1537
      2 C2          0.7072   -0.0713    0.3983 C.3       1 <0>        -0.1264
      3 C3         -0.7318   -0.5812    0.4985 C.3       1 <0>        -0.1206
      4 C4         -0.7592   -2.0871    0.2294 C.3       1 <0>        -0.1217
      5 C5         -2.1983   -2.5970    0.3296 C.3       1 <0>        -0.1132
      6 C6         -2.2257   -4.1029    0.0604 C.3       1 <0>        -0.1017
      7 C7         -3.6431   -4.6051    0.1592 C.2       1 <0>        -0.1649
      8 C8         -4.1580   -5.3095   -0.8180 C.2       1 <0>        -0.1547
      9 C9         -3.2862   -5.7633   -1.9604 C.3       1 <0>        -0.1026
     10 C10        -3.4203   -7.2775   -2.1340 C.3       1 <0>        -0.1136
     11 C11        -2.5351   -7.7383   -3.2938 C.3       1 <0>        -0.1198
     12 C12        -2.6693   -9.2525   -3.4674 C.3       1 <0>        -0.1202
     13 C13        -1.7841   -9.7132   -4.6272 C.3       1 <0>        -0.1189
     14 C14        -1.9183  -11.2274   -4.8009 C.3       1 <0>        -0.1188
     15 C15        -1.0331  -11.6881   -5.9607 C.3       1 <0>        -0.1147
     16 C16        -1.1673  -13.2023   -6.1343 C.3       1 <0>        -0.1177
     17 C17        -0.2821  -13.6631   -7.2941 C.3       1 <0>        -0.0755
     18 C18        -0.4143  -15.1545   -7.4651 C.ar      1 <0>        -0.0566
     19 C19         0.5115  -15.9991   -6.8932 C.ar      1 <0>        -0.1342
     20 C20         0.3955  -17.3713   -7.0469 C.ar      1 <0>        -0.1254
     21 C21        -0.6481  -17.9077   -7.7747 C.ar      1 <0>        -0.1568
     22 C22        -1.5898  -17.0736   -8.3585 C.ar      1 <0>         0.1110
     23 C23        -1.4801  -15.6835   -8.1999 C.ar      1 <0>        -0.1285
     24 C24        -2.4765  -14.7878   -8.8088 C.2       1 <0>         0.5372
     25 O1         -2.3406  -14.4193   -9.9674 O.co2     1 <0>        -0.6818
     26 O2         -3.4406  -14.4118   -8.1563 O.co2     1 <0>        -0.6852
     27 O3         -2.6149  -17.5990   -9.0740 O.3       1 <0>        -0.4922
     28 H1          1.7598    1.7978    0.5961 H         1 <0>         0.0528
     29 H2          0.1156    1.9466   -0.0692 H         1 <0>         0.0532
     30 H3          0.3480    1.6320    1.6673 H         1 <0>         0.0527
     31 H4          1.0939   -0.2688   -0.6015 H         1 <0>         0.0609
     32 H5          1.3263   -0.5834    1.1350 H         1 <0>         0.0602
     33 H6         -1.1185   -0.3837    1.4984 H         1 <0>         0.0600
     34 H7         -1.3509   -0.0691   -0.2381 H         1 <0>         0.0607
     35 H8         -0.3726   -2.2846   -0.7704 H         1 <0>         0.0617
     36 H9         -0.1402   -2.5992    0.9660 H         1 <0>         0.0610
     37 H10        -2.5849   -2.3995    1.3294 H         1 <0>         0.0601
     38 H11        -2.8173   -2.0849   -0.4070 H         1 <0>         0.0614
     39 H12        -1.8391   -4.3004   -0.9394 H         1 <0>         0.0768
     40 H13        -1.6066   -4.6150    0.7971 H         1 <0>         0.0671
     41 H14        -4.2344   -4.3843    1.0355 H         1 <0>         0.1059
     42 H15        -5.2072   -5.5650   -0.8049 H         1 <0>         0.1072
     43 H16        -3.5990   -5.2634   -2.8770 H         1 <0>         0.0683
     44 H17        -2.2472   -5.5128   -1.7463 H         1 <0>         0.0751
     45 H18        -3.1074   -7.7775   -1.2173 H         1 <0>         0.0607
     46 H19        -4.4593   -7.5281   -2.3481 H         1 <0>         0.0617
     47 H20        -2.8480   -7.2383   -4.2105 H         1 <0>         0.0612
     48 H21        -1.4962   -7.4877   -3.0797 H         1 <0>         0.0592
     49 H22        -2.3564   -9.7524   -2.5508 H         1 <0>         0.0589
     50 H23        -3.7083   -9.5030   -3.6815 H         1 <0>         0.0617
     51 H24        -2.0970   -9.2133   -5.5439 H         1 <0>         0.0608
     52 H25        -0.7452   -9.4626   -4.4132 H         1 <0>         0.0573
     53 H26        -1.6054  -11.7273   -3.8842 H         1 <0>         0.0567
     54 H27        -2.9573  -11.4779   -5.0149 H         1 <0>         0.0644
     55 H28        -1.3460  -11.1882   -6.8773 H         1 <0>         0.0617
     56 H29         0.0058  -11.4376   -5.7466 H         1 <0>         0.0530
     57 H30        -0.8544  -13.7023   -5.2176 H         1 <0>         0.0516
     58 H31        -2.2063  -13.4529   -6.3484 H         1 <0>         0.0877
     59 H32        -0.5950  -13.1631   -8.2108 H         1 <0>         0.0762
     60 H33         0.7568  -13.4125   -7.0800 H         1 <0>         0.0605
     61 H34         1.3319  -15.5898   -6.3225 H         1 <0>         0.1154
     62 H35         1.1262  -18.0255   -6.5947 H         1 <0>         0.1160
     63 H36        -0.7309  -18.9783   -7.8899 H         1 <0>         0.1184
     64 H37        -3.4031  -17.7923   -8.5482 H         1 <0>         0.3829
@<TRIPOS>BOND
     1    1    2 1
     2    1   28 1
     3    1   29 1
     4    1   30 1
     5    2    3 1
     6    2   31 1
     7    2   32 1
     8    3    4 1
     9    3   33 1
    10    3   34 1
    11    4    5 1
    12    4   35 1
    13    4   36 1
    14    5    6 1
    15    5   37 1
    16    5   38 1
    17    6    7 1
    18    6   39 1
    19    6   40 1
    20    7    8 2
    21    7   41 1
    22    8    9 1
    23    8   42 1
    24    9   10 1
    25    9   43 1
    26    9   44 1
    27   10   11 1
    28   10   45 1
    29   10   46 1
    30   11   12 1
    31   11   47 1
    32   11   48 1
    33   12   13 1
    34   12   49 1
    35   12   50 1
    36   13   14 1
    37   13   51 1
    38   13   52 1
    39   14   15 1
    40   14   53 1
    41   14   54 1
    42   15   16 1
    43   15   55 1
    44   15   56 1
    45   16   17 1
    46   16   57 1
    47   16   58 1
    48   17   18 1
    49   17   59 1
    50   17   60 1
    51   18   23 ar
    52   18   19 ar
    53   19   20 ar
    54   19   61 1
    55   20   21 ar
    56   20   62 1
    57   21   22 ar
    58   21   63 1
    59   22   23 ar
    60   22   27 1
    61   23   24 1
    62   24   25 2
    63   24   26 1
    64   27   64 1
@<TRIPOS>MOLECULE
ZINC01702514
   47    50     0     0     0
SMALL
USER_CHARGES
2-dimethylaminoethyl-dimethoxy-BLAHdione
@<TRIPOS>ATOM
      1 C1         -0.6398    3.0356   -1.2834 C.3       1 <0>        -0.0442
      2 C2         -0.2112    0.9304   -2.4001 C.3       1 <0>        -0.0421
      3 C3         -0.0127    1.0858    0.0080 C.3       1 <0>         0.0029
      4 C4         -0.7288    1.5792    1.2668 C.3       1 <0>        -0.1184
      5 C5          0.0000    1.0800    2.4877 C.ar      1 <0>         0.0101
      6 C6         -0.4089   -0.0796    3.1177 C.ar      1 <0>        -0.1828
      7 C7          0.2466   -0.5663    4.2424 C.ar      1 <0>         0.1824
      8 C8          1.3396    0.1211    4.7708 C.ar      1 <0>         0.1170
      9 C9          1.7474    1.2923    4.1383 C.ar      1 <0>        -0.0351
     10 C10         1.0871    1.7862    2.9937 C.ar      1 <0>        -0.1722
     11 C11         1.5889    3.0292    2.3944 C.2       1 <0>         0.5472
     12 O1          1.0441    3.4842    1.4069 O.2       1 <0>        -0.4616
     13 O2          2.6472    3.6698    2.9267 O.3       1 <0>        -0.2495
     14 C12         3.3021    3.2226    4.0231 C.ar      1 <0>         0.0961
     15 C13         2.8934    2.0519    4.6568 C.ar      1 <0>        -0.0486
     16 C14         3.5545    1.5576    5.8003 C.ar      1 <0>        -0.1691
     17 C15         4.6425    2.2635    6.3055 C.ar      1 <0>         0.0025
     18 C16         5.0479    3.4255    5.6787 C.ar      1 <0>        -0.1793
     19 C17         4.3948    3.9099    4.5511 C.ar      1 <0>         0.1778
     20 O3          4.8225    5.0559    3.9615 O.3       1 <0>        -0.2930
     21 C18         5.9472    5.7093    4.5532 C.3       1 <0>         0.0161
     22 C19         3.0528    0.3145    6.3994 C.2       1 <0>         0.5362
     23 O4          3.5978   -0.1407    7.3868 O.2       1 <0>        -0.4207
     24 O5          1.9949   -0.3265    5.8668 O.3       1 <0>        -0.2571
     25 O6         -0.1810   -1.7125    4.8315 O.3       1 <0>        -0.2851
     26 C20        -1.3054   -2.3661    4.2393 C.3       1 <0>         0.0171
     27 H1          0.4056    3.3360   -1.3533 H         1 <0>         0.1265
     28 H2         -1.1740    3.3692   -2.1731 H         1 <0>         0.1213
     29 H3         -1.0893    3.4872   -0.3990 H         1 <0>         0.1243
     30 H4         -0.3490   -0.1484   -2.3276 H         1 <0>         0.1208
     31 H5         -0.7544    1.3086   -3.2661 H         1 <0>         0.1242
     32 H6          0.8498    1.1545   -2.5105 H         1 <0>         0.1228
     33 H7          0.0021   -0.0041    0.0020 H         1 <0>         0.1299
     34 H8          1.0099    1.4631    0.0003 H         1 <0>         0.1329
     35 H9         -0.7436    2.6691    1.2728 H         1 <0>         0.1272
     36 H10        -1.7514    1.2020    1.2746 H         1 <0>         0.1021
     37 H11        -1.2555   -0.6228    2.7245 H         1 <0>         0.1598
     38 H12         5.1654    1.9055    7.1801 H         1 <0>         0.1639
     39 H13         5.8925    3.9706    6.0736 H         1 <0>         0.1634
     40 H14         6.8050    5.0368    4.5428 H         1 <0>         0.0681
     41 H15         6.1843    6.6094    3.9860 H         1 <0>         0.1149
     42 H16         5.7103    5.9801    5.5821 H         1 <0>         0.0685
     43 H17        -1.0680   -2.6365    3.2104 H         1 <0>         0.0645
     44 H18        -1.5424   -3.2664    4.8062 H         1 <0>         0.1174
     45 H19        -2.1633   -1.6938    4.2496 H         1 <0>         0.0666
     46 N1         -0.7509    1.5653   -1.1793 N.4       1 <0>        -0.3952
     47 H20        -1.7410    1.3118   -1.0814 H         1 <0>         0.4295
@<TRIPOS>BOND
     1    1   27 1
     2    1   28 1
     3    1   29 1
     4    1   46 1
     5    2   30 1
     6    2   31 1
     7    2   32 1
     8    2   46 1
     9    3    4 1
    10    3   33 1
    11    3   34 1
    12    3   46 1
    13    4    5 1
    14    4   35 1
    15    4   36 1
    16    5   10 ar
    17    5    6 ar
    18    6    7 ar
    19    6   37 1
    20    7    8 ar
    21    7   25 1
    22    8   24 1
    23    8    9 ar
    24    9   15 1
    25    9   10 ar
    26   10   11 1
    27   11   12 2
    28   11   13 1
    29   13   14 1
    30   14   19 ar
    31   14   15 ar
    32   15   16 ar
    33   16   17 ar
    34   16   22 1
    35   17   18 ar
    36   17   38 1
    37   18   19 ar
    38   18   39 1
    39   19   20 1
    40   20   21 1
    41   21   40 1
    42   21   41 1
    43   21   42 1
    44   22   23 2
    45   22   24 1
    46   25   26 1
    47   26   43 1
    48   26   44 1
    49   26   45 1
    50   46   47 1
@<TRIPOS>MOLECULE
ZINC00099797
   43    46     0     0     0
SMALL
USER_CHARGES
3-(4-phenylpiperazin-1-yl)carbonylchromen-2-one
@<TRIPOS>ATOM
      1 C1         -6.6044    3.2909    3.0634 C.ar      1 <0>        -0.1444
      2 C2         -5.6382    2.4882    3.6416 C.ar      1 <0>        -0.0949
      3 C3         -4.4845    2.1838    2.9462 C.ar      1 <0>        -0.1402
      4 C4         -4.2953    2.6848    1.6645 C.ar      1 <0>         0.1081
      5 C5         -5.2656    3.4951    1.0887 C.ar      1 <0>        -0.1700
      6 C6         -6.4193    3.7914    1.7877 C.ar      1 <0>        -0.0925
      7 N1         -3.1295    2.3793    0.9585 N.pl3     1 <0>        -0.4881
      8 C7         -2.9392    0.9254    0.8616 C.3       1 <0>         0.0426
      9 C8         -1.5694    0.6339    0.2395 C.3       1 <0>         0.0949
     10 N2         -1.4646    1.3649   -1.0325 N.am      1 <0>        -0.6120
     11 C9         -1.7735    2.8028   -1.0363 C.3       1 <0>         0.1184
     12 C10        -3.1372    3.0095   -0.3684 C.3       1 <0>         0.0356
     13 C11        -1.0947    0.7338   -2.1645 C.2       1 <0>         0.5767
     14 O1         -1.1055    1.3301   -3.2245 O.2       1 <0>        -0.5034
     15 C12        -0.6776   -0.6778   -2.1180 C.2       1 <0>        -0.2558
     16 C13        -0.0011   -1.1767   -1.0183 C.2       1 <0>         0.0338
     17 C14         0.3816   -2.5419   -1.0159 C.ar      1 <0>        -0.1708
     18 C15         1.0691   -3.0801    0.0826 C.ar      1 <0>        -0.0446
     19 C16         1.4348   -4.3951    0.0779 C.ar      1 <0>        -0.1438
     20 C17         1.1315   -5.2062   -1.0071 C.ar      1 <0>        -0.0470
     21 C18         0.4568   -4.6985   -2.0968 C.ar      1 <0>        -0.1391
     22 C19         0.0733   -3.3618   -2.1162 C.ar      1 <0>         0.1621
     23 O2         -0.5866   -2.8667   -3.1851 O.3       1 <0>        -0.2613
     24 C20        -0.9770   -1.5822   -3.2340 C.2       1 <0>         0.5230
     25 O3         -1.5752   -1.1663   -4.2085 O.2       1 <0>        -0.4226
     26 H1         -7.5059    3.5272    3.6093 H         1 <0>         0.1219
     27 H2         -5.7860    2.0987    4.6380 H         1 <0>         0.1246
     28 H3         -3.7301    1.5571    3.3985 H         1 <0>         0.1246
     29 H4         -5.1197    3.8899    0.0941 H         1 <0>         0.1267
     30 H5         -7.1760    4.4180    1.3390 H         1 <0>         0.1232
     31 H6         -3.7219    0.4998    0.2336 H         1 <0>         0.0516
     32 H7         -2.9888    0.4817    1.8560 H         1 <0>         0.0990
     33 H8         -1.4707   -0.4360    0.0562 H         1 <0>         0.0968
     34 H9         -0.7819    0.9635    0.9172 H         1 <0>         0.0877
     35 H10        -1.0077    3.3434   -0.4800 H         1 <0>         0.0824
     36 H11        -1.8063    3.1676   -2.0629 H         1 <0>         0.1050
     37 H12        -3.3326    4.0766   -0.2632 H         1 <0>         0.1000
     38 H13        -3.9153    2.5556   -0.9822 H         1 <0>         0.0541
     39 H14         0.2310   -0.5383   -0.1786 H         1 <0>         0.1625
     40 H15         1.3087   -2.4550    0.9300 H         1 <0>         0.1430
     41 H16         1.9639   -4.8075    0.9243 H         1 <0>         0.1397
     42 H17         1.4273   -6.2448   -0.9976 H         1 <0>         0.1445
     43 H18         0.2265   -5.3386   -2.9356 H         1 <0>         0.1482
@<TRIPOS>BOND
     1    1    6 ar
     2    1    2 ar
     3    1   26 1
     4    2    3 ar
     5    2   27 1
     6    3    4 ar
     7    3   28 1
     8    4    5 ar
     9    4    7 1
    10    5    6 ar
    11    5   29 1
    12    6   30 1
    13    7   12 1
    14    7    8 1
    15    8    9 1
    16    8   31 1
    17    8   32 1
    18    9   10 1
    19    9   33 1
    20    9   34 1
    21   10   11 1
    22   10   13 am
    23   11   12 1
    24   11   35 1
    25   11   36 1
    26   12   37 1
    27   12   38 1
    28   13   14 2
    29   13   15 1
    30   15   24 1
    31   15   16 2
    32   16   17 1
    33   16   39 1
    34   17   22 ar
    35   17   18 ar
    36   18   19 ar
    37   18   40 1
    38   19   20 ar
    39   19   41 1
    40   20   21 ar
    41   20   42 1
    42   21   22 ar
    43   21   43 1
    44   22   23 1
    45   23   24 1
    46   24   25 2
@<TRIPOS>MOLECULE
ZINC40422630
   63    67     0     0     0
SMALL
USER_CHARGES

@<TRIPOS>ATOM
      1 C1          0.8292   -0.7481    1.9301 C.3       1 <0>        -0.1535
      2 C2          0.0503   -1.0574    0.6500 C.3       1 <0>         0.0576
      3 O1          0.9486   -1.5466   -0.3478 O.3       1 <0>        -0.3406
      4 C3          0.4172   -1.8687   -1.5459 C.2       1 <0>         0.5263
      5 O2         -0.7776   -1.7370   -1.7368 O.2       1 <0>        -0.4863
      6 C4          1.2476   -2.3585   -2.5782 C.2       1 <0>        -0.1987
      7 C5          1.6028   -3.6539   -2.5672 C.2       1 <0>         0.1891
      8 N1          2.3959   -4.1812   -3.5447 N.pl3     1 <0>        -0.6324
      9 C6          2.5546   -3.5092   -4.7549 C.ar      1 <0>         0.4513
     10 C7          2.2230   -2.1661   -4.8448 C.ar      1 <0>        -0.2100
     11 C8          2.3821   -1.5168   -6.0630 C.ar      1 <0>         0.3563
     12 C9          2.8771   -2.2422   -7.1556 C.ar      1 <0>        -0.1674
     13 C10         3.1924   -3.5675   -6.9912 C.ar      1 <0>         0.2135
     14 N2          3.0210   -4.1545   -5.8118 N.ar      1 <0>        -0.5260
     15 C11         3.7472   -4.4094   -8.1120 C.3       1 <0>        -0.1001
     16 C12         3.4783   -3.7504   -9.4630 C.3       1 <0>        -0.1204
     17 C13         3.9637   -2.2974   -9.3987 C.3       1 <0>        -0.1265
     18 C14         3.0345   -1.5212   -8.4672 C.3       1 <0>        -0.0785
     19 N3          2.0553   -0.1703   -6.1960 N.pl3     1 <0>        -0.8026
     20 C15         1.6997   -1.4163   -3.6553 C.3       1 <0>         0.0785
     21 H1          0.8590   -0.7944   -3.9629 H         1 <0>         0.1055
     22 C16         2.7942   -0.5335   -3.1131 C.ar      1 <0>        -0.1034
     23 C17         3.9677   -1.0984   -2.6471 C.ar      1 <0>        -0.0893
     24 C18         4.9733   -0.2947   -2.1494 C.ar      1 <0>        -0.1056
     25 C19         4.8048    1.0881   -2.1170 C.ar      1 <0>        -0.0211
     26 C20         3.6206    1.6517   -2.5878 C.ar      1 <0>        -0.1027
     27 C21         2.6238    0.8389   -3.0885 C.ar      1 <0>        -0.1109
     28 C22         5.8823    1.9573   -1.5827 C.ar      1 <0>        -0.0618
     29 C23         7.0685    1.3940   -1.1168 C.ar      1 <0>        -0.1069
     30 C24         8.0676    2.2072   -0.6213 C.ar      1 <0>        -0.1169
     31 C25         7.8927    3.5789   -0.5862 C.ar      1 <0>        -0.1090
     32 C26         6.7169    4.1433   -1.0469 C.ar      1 <0>        -0.1162
     33 C27         5.7137    3.3400   -1.5503 C.ar      1 <0>        -0.1062
     34 C28         1.1158   -4.5432   -1.4523 C.3       1 <0>        -0.1387
     35 H2          1.3122   -1.6566    2.2900 H         1 <0>         0.0676
     36 H3          1.5865    0.0075    1.7210 H         1 <0>         0.0678
     37 H4          0.1440   -0.3750    2.6912 H         1 <0>         0.0845
     38 H5         -0.7070   -1.8130    0.8591 H         1 <0>         0.0717
     39 H6         -0.4327   -0.1489    0.2902 H         1 <0>         0.0713
     40 H7          2.8502   -5.0253   -3.3965 H         1 <0>         0.4332
     41 H8          4.8225   -4.5251   -7.9762 H         1 <0>         0.1157
     42 H9          3.2752   -5.3918   -8.0911 H         1 <0>         0.1063
     43 H10         4.0186   -4.2835  -10.2453 H         1 <0>         0.0953
     44 H11         2.4094   -3.7711   -9.6752 H         1 <0>         0.0805
     45 H12         4.9818   -2.2671   -9.0107 H         1 <0>         0.0767
     46 H13         3.9367   -1.8567  -10.3953 H         1 <0>         0.0905
     47 H14         2.0577   -1.4166   -8.9394 H         1 <0>         0.0969
     48 H15         3.4530   -0.5313   -8.2852 H         1 <0>         0.0894
     49 H16         1.7131    0.3233   -5.4343 H         1 <0>         0.4197
     50 H17         2.1697    0.2744   -7.0505 H         1 <0>         0.4232
     51 H18         4.0971   -2.1703   -2.6723 H         1 <0>         0.1134
     52 H19         5.8890   -0.7367   -1.7855 H         1 <0>         0.1291
     53 H20         3.4846    2.7229   -2.5646 H         1 <0>         0.1325
     54 H21         1.7075    1.2750   -3.4580 H         1 <0>         0.1245
     55 H22         7.2058    0.3231   -1.1431 H         1 <0>         0.1237
     56 H23         8.9875    1.7717   -0.2600 H         1 <0>         0.1274
     57 H24         8.6769    4.2115   -0.1973 H         1 <0>         0.1272
     58 H25         6.5854    5.2149   -1.0169 H         1 <0>         0.1281
     59 H26         4.7979    3.7821   -1.9138 H         1 <0>         0.1253
     60 H27         0.1214   -4.9182   -1.6946 H         1 <0>         0.1012
     61 H28         1.8010   -5.3822   -1.3312 H         1 <0>         0.0913
     62 H29         1.0728   -3.9724   -0.5247 H         1 <0>         0.1018
     63 H30         3.2468   -5.0935   -5.7218 H         1 <0>         0.4377
@<TRIPOS>BOND
     1    1    2 1
     2    1   35 1
     3    1   36 1
     4    1   37 1
     5    2    3 1
     6    2   38 1
     7    2   39 1
     8    3    4 1
     9    4    5 2
    10    4    6 1
    11    6   20 1
    12    6    7 2
    13    7    8 1
    14    7   34 1
    15    8    9 1
    16    8   40 1
    17    9   14 ar
    18    9   10 ar
    19   10   11 ar
    20   10   20 1
    21   11   12 ar
    22   11   19 1
    23   12   18 1
    24   12   13 ar
    25   13   14 ar
    26   13   15 1
    27   14   63 1
    28   15   16 1
    29   15   41 1
    30   15   42 1
    31   16   17 1
    32   16   43 1
    33   16   44 1
    34   17   18 1
    35   17   45 1
    36   17   46 1
    37   18   47 1
    38   18   48 1
    39   19   49 1
    40   19   50 1
    41   20   21 1
    42   20   22 1
    43   22   27 ar
    44   22   23 ar
    45   23   24 ar
    46   23   51 1
    47   24   25 ar
    48   24   52 1
    49   25   26 ar
    50   25   28 1
    51   26   27 ar
    52   26   53 1
    53   27   54 1
    54   28   33 ar
    55   28   29 ar
    56   29   30 ar
    57   29   55 1
    58   30   31 ar
    59   30   56 1
    60   31   32 ar
    61   31   57 1
    62   32   33 ar
    63   32   58 1
    64   33   59 1
    65   34   60 1
    66   34   61 1
    67   34   62 1
@<TRIPOS>MOLECULE
ZINC40422632
   63    67     0     0     0
SMALL
USER_CHARGES

@<TRIPOS>ATOM
      1 C1         -3.0760   -2.0391   -0.5401 C.3       1 <0>        -0.1534
      2 C2         -1.6145   -1.6067   -0.4056 C.3       1 <0>         0.0580
      3 O1         -0.8569   -2.1440   -1.4915 O.3       1 <0>        -0.3406
      4 C3          0.4609   -1.8541   -1.5219 C.2       1 <0>         0.5261
      5 O2          0.9523   -1.1631   -0.6488 O.2       1 <0>        -0.4877
      6 C4          1.2698   -2.3525   -2.5671 C.2       1 <0>        -0.2002
      7 C5          1.6027   -3.6539   -2.5672 C.2       1 <0>         0.1906
      8 N1          2.3892   -4.1855   -3.5476 N.pl3     1 <0>        -0.6333
      9 C6          3.1633   -3.3517   -4.3520 C.ar      1 <0>         0.4514
     10 C7          2.8736   -1.9976   -4.4189 C.ar      1 <0>        -0.2101
     11 C8          3.6594   -1.1834   -5.2252 C.ar      1 <0>         0.3565
     12 C9          4.7162   -1.7609   -5.9428 C.ar      1 <0>        -0.1673
     13 C10         4.9462   -3.1086   -5.8261 C.ar      1 <0>         0.2133
     14 N2          4.1710   -3.8545   -5.0465 N.ar      1 <0>        -0.5260
     15 C11         6.0710   -3.8007   -6.5531 C.3       1 <0>        -0.1001
     16 C12         6.5738   -2.9387   -7.7091 C.3       1 <0>        -0.1204
     17 C13         6.8740   -1.5346   -7.1712 C.3       1 <0>        -0.1266
     18 C14         5.5490   -0.8622   -6.8166 C.3       1 <0>        -0.0784
     19 N3          3.4017    0.1813   -5.3191 N.pl3     1 <0>        -0.8026
     20 C15         1.7246   -1.4124   -3.6449 C.3       1 <0>         0.0792
     21 H1          2.0428   -0.4741   -3.1905 H         1 <0>         0.1061
     22 C16         0.5763   -1.1422   -4.5826 C.ar      1 <0>        -0.1045
     23 C17        -0.0166   -2.1888   -5.2655 C.ar      1 <0>        -0.0896
     24 C18        -1.0686   -1.9470   -6.1256 C.ar      1 <0>        -0.1060
     25 C19        -1.5332   -0.6457   -6.3053 C.ar      1 <0>        -0.0208
     26 C20        -0.9322    0.4048   -5.6149 C.ar      1 <0>        -0.1033
     27 C21         0.1155    0.1508   -4.7530 C.ar      1 <0>        -0.1103
     28 C22        -2.6636   -0.3795   -7.2291 C.ar      1 <0>        -0.0620
     29 C23        -3.2681   -1.4307   -7.9155 C.ar      1 <0>        -0.1068
     30 C24        -4.3194   -1.1775   -8.7731 C.ar      1 <0>        -0.1169
     31 C25        -4.7729    0.1170   -8.9521 C.ar      1 <0>        -0.1089
     32 C26        -4.1762    1.1643   -8.2736 C.ar      1 <0>        -0.1162
     33 C27        -3.1282    0.9217   -7.4088 C.ar      1 <0>        -0.1062
     34 C28         1.0978   -4.5450   -1.4617 C.3       1 <0>        -0.1354
     35 H2         -3.4791   -1.6689   -1.4827 H         1 <0>         0.0677
     36 H3         -3.1361   -3.1273   -0.5217 H         1 <0>         0.0676
     37 H4         -3.6539   -1.6292    0.2882 H         1 <0>         0.0844
     38 H5         -1.5544   -0.5185   -0.4241 H         1 <0>         0.0710
     39 H6         -1.2114   -1.9769    0.5370 H         1 <0>         0.0715
     40 H7          2.4097   -5.1456   -3.6845 H         1 <0>         0.4335
     41 H8          6.8904   -3.9826   -5.8577 H         1 <0>         0.1162
     42 H9          5.7139   -4.7535   -6.9440 H         1 <0>         0.1061
     43 H10         7.4825   -3.3749   -8.1240 H         1 <0>         0.0953
     44 H11         5.8082   -2.8795   -8.4828 H         1 <0>         0.0803
     45 H12         7.4983   -1.6082   -6.2807 H         1 <0>         0.0770
     46 H13         7.3892   -0.9513   -7.9344 H         1 <0>         0.0905
     47 H14         5.0007   -0.6431   -7.7328 H         1 <0>         0.0966
     48 H15         5.7491    0.0692   -6.2868 H         1 <0>         0.0895
     49 H16         2.6680    0.5719   -4.8190 H         1 <0>         0.4198
     50 H17         3.9558    0.7417   -5.8846 H         1 <0>         0.4232
     51 H18         0.3445   -3.1970   -5.1257 H         1 <0>         0.1137
     52 H19        -1.5306   -2.7648   -6.6585 H         1 <0>         0.1293
     53 H20        -1.2882    1.4154   -5.7508 H         1 <0>         0.1327
     54 H21         0.5789    0.9637   -4.2137 H         1 <0>         0.1249
     55 H22        -2.9144   -2.4417   -7.7770 H         1 <0>         0.1238
     56 H23        -4.7887   -1.9915   -9.3056 H         1 <0>         0.1275
     57 H24        -5.5956    0.3107   -9.6244 H         1 <0>         0.1273
     58 H25        -4.5340    2.1731   -8.4173 H         1 <0>         0.1281
     59 H26        -2.6660    1.7397   -6.8762 H         1 <0>         0.1253
     60 H27         0.1068   -4.9184   -1.7201 H         1 <0>         0.1067
     61 H28         1.7801   -5.3850   -1.3318 H         1 <0>         0.0903
     62 H29         1.0411   -3.9761   -0.5337 H         1 <0>         0.0948
     63 H30         4.3511   -4.8056   -4.9839 H         1 <0>         0.4377
@<TRIPOS>BOND
     1    1    2 1
     2    1   35 1
     3    1   36 1
     4    1   37 1
     5    2    3 1
     6    2   38 1
     7    2   39 1
     8    3    4 1
     9    4    5 2
    10    4    6 1
    11    6   20 1
    12    6    7 2
    13    7    8 1
    14    7   34 1
    15    8    9 1
    16    8   40 1
    17    9   14 ar
    18    9   10 ar
    19   10   11 ar
    20   10   20 1
    21   11   12 ar
    22   11   19 1
    23   12   18 1
    24   12   13 ar
    25   13   14 ar
    26   13   15 1
    27   14   63 1
    28   15   16 1
    29   15   41 1
    30   15   42 1
    31   16   17 1
    32   16   43 1
    33   16   44 1
    34   17   18 1
    35   17   45 1
    36   17   46 1
    37   18   47 1
    38   18   48 1
    39   19   49 1
    40   19   50 1
    41   20   21 1
    42   20   22 1
    43   22   27 ar
    44   22   23 ar
    45   23   24 ar
    46   23   51 1
    47   24   25 ar
    48   24   52 1
    49   25   26 ar
    50   25   28 1
    51   26   27 ar
    52   26   53 1
    53   27   54 1
    54   28   33 ar
    55   28   29 ar
    56   29   30 ar
    57   29   55 1
    58   30   31 ar
    59   30   56 1
    60   31   32 ar
    61   31   57 1
    62   32   33 ar
    63   32   58 1
    64   33   59 1
    65   34   60 1
    66   34   61 1
    67   34   62 1
@<TRIPOS>MOLECULE
ZINC45506740
   61    64     0     0     0
SMALL
USER_CHARGES

@<TRIPOS>ATOM
      1 C1          0.8292   -0.7481    1.9301 C.3       1 <0>        -0.1537
      2 C2          0.0503   -1.0574    0.6500 C.3       1 <0>         0.0575
      3 O1          0.9486   -1.5466   -0.3478 O.3       1 <0>        -0.3404
      4 C3          0.4172   -1.8687   -1.5459 C.2       1 <0>         0.5265
      5 O2         -0.7776   -1.7370   -1.7368 O.2       1 <0>        -0.4866
      6 C4          1.2476   -2.3585   -2.5782 C.2       1 <0>        -0.1985
      7 C5          1.6028   -3.6539   -2.5672 C.2       1 <0>         0.1893
      8 N1          2.3959   -4.1812   -3.5447 N.pl3     1 <0>        -0.6321
      9 C6          2.5546   -3.5092   -4.7549 C.ar      1 <0>         0.4514
     10 C7          2.2230   -2.1661   -4.8448 C.ar      1 <0>        -0.2093
     11 C8          2.3821   -1.5168   -6.0630 C.ar      1 <0>         0.3565
     12 C9          2.8771   -2.2422   -7.1556 C.ar      1 <0>        -0.1673
     13 C10         3.1924   -3.5675   -6.9912 C.ar      1 <0>         0.2138
     14 N2          3.0210   -4.1545   -5.8118 N.ar      1 <0>        -0.5258
     15 C11         3.7472   -4.4094   -8.1120 C.3       1 <0>        -0.1001
     16 C12         3.4783   -3.7504   -9.4630 C.3       1 <0>        -0.1204
     17 C13         3.9637   -2.2974   -9.3987 C.3       1 <0>        -0.1265
     18 C14         3.0345   -1.5212   -8.4672 C.3       1 <0>        -0.0785
     19 N3          2.0553   -0.1703   -6.1960 N.pl3     1 <0>        -0.8033
     20 C15         1.6997   -1.4163   -3.6553 C.3       1 <0>         0.0830
     21 H1          0.8590   -0.7944   -3.9629 H         1 <0>         0.1042
     22 C16         2.7942   -0.5335   -3.1131 C.ar      1 <0>        -0.1010
     23 C17         3.9675   -1.0970   -2.6471 C.ar      1 <0>        -0.0894
     24 C18         4.9745   -0.2916   -2.1488 C.ar      1 <0>        -0.1674
     25 C19         4.8092    1.0838   -2.1159 C.ar      1 <0>         0.1163
     26 C20         3.6284    1.6510   -2.5854 C.ar      1 <0>         0.1132
     27 C21         2.6250    0.8383   -3.0880 C.ar      1 <0>        -0.1722
     28 O3          3.4615    3.0003   -2.5552 O.3       1 <0>        -0.2992
     29 C22         2.2238    3.5122   -3.0535 C.3       1 <0>         0.0234
     30 O4          5.7986    1.8776   -1.6256 O.3       1 <0>        -0.3009
     31 C23         6.9825    1.2262   -1.1607 C.3       1 <0>         0.0237
     32 C24         1.1158   -4.5432   -1.4523 C.3       1 <0>        -0.1387
     33 H2          1.3122   -1.6566    2.2900 H         1 <0>         0.0679
     34 H3          1.5865    0.0075    1.7210 H         1 <0>         0.0676
     35 H4          0.1440   -0.3750    2.6912 H         1 <0>         0.0847
     36 H5         -0.7070   -1.8130    0.8591 H         1 <0>         0.0720
     37 H6         -0.4327   -0.1489    0.2902 H         1 <0>         0.0708
     38 H7          2.8502   -5.0253   -3.3965 H         1 <0>         0.4333
     39 H8          4.8225   -4.5251   -7.9762 H         1 <0>         0.1158
     40 H9          3.2752   -5.3918   -8.0911 H         1 <0>         0.1064
     41 H10         4.0186   -4.2835  -10.2453 H         1 <0>         0.0953
     42 H11         2.4094   -3.7711   -9.6752 H         1 <0>         0.0806
     43 H12         4.9818   -2.2671   -9.0107 H         1 <0>         0.0767
     44 H13         3.9367   -1.8567  -10.3953 H         1 <0>         0.0905
     45 H14         2.0577   -1.4166   -8.9394 H         1 <0>         0.0969
     46 H15         3.4530   -0.5313   -8.2852 H         1 <0>         0.0893
     47 H16         1.7131    0.3233   -5.4343 H         1 <0>         0.4185
     48 H17         2.1697    0.2744   -7.0505 H         1 <0>         0.4231
     49 H18         4.0976   -2.1689   -2.6721 H         1 <0>         0.1165
     50 H19         5.8898   -0.7343   -1.7847 H         1 <0>         0.1397
     51 H20         1.7091    1.2762   -3.4564 H         1 <0>         0.1340
     52 H21         1.3997    3.1020   -2.4699 H         1 <0>         0.0575
     53 H22         2.2211    4.5992   -2.9721 H         1 <0>         0.1081
     54 H23         2.1067    3.2259   -4.0987 H         1 <0>         0.0529
     55 H24         6.7270    0.5426   -0.3510 H         1 <0>         0.0585
     56 H25         7.4347    0.6666   -1.9795 H         1 <0>         0.0562
     57 H26         7.6889    1.9724   -0.7970 H         1 <0>         0.1072
     58 H27         0.1214   -4.9182   -1.6946 H         1 <0>         0.1012
     59 H28         1.8010   -5.3822   -1.3312 H         1 <0>         0.0914
     60 H29         1.0728   -3.9724   -0.5247 H         1 <0>         0.1018
     61 H30         3.2468   -5.0935   -5.7218 H         1 <0>         0.4378
@<TRIPOS>BOND
     1    1    2 1
     2    1   33 1
     3    1   34 1
     4    1   35 1
     5    2    3 1
     6    2   36 1
     7    2   37 1
     8    3    4 1
     9    4    5 2
    10    4    6 1
    11    6   20 1
    12    6    7 2
    13    7    8 1
    14    7   32 1
    15    8    9 1
    16    8   38 1
    17    9   14 ar
    18    9   10 ar
    19   10   11 ar
    20   10   20 1
    21   11   12 ar
    22   11   19 1
    23   12   18 1
    24   12   13 ar
    25   13   14 ar
    26   13   15 1
    27   14   61 1
    28   15   16 1
    29   15   39 1
    30   15   40 1
    31   16   17 1
    32   16   41 1
    33   16   42 1
    34   17   18 1
    35   17   43 1
    36   17   44 1
    37   18   45 1
    38   18   46 1
    39   19   47 1
    40   19   48 1
    41   20   21 1
    42   20   22 1
    43   22   27 ar
    44   22   23 ar
    45   23   24 ar
    46   23   49 1
    47   24   25 ar
    48   24   50 1
    49   25   26 ar
    50   25   30 1
    51   26   27 ar
    52   26   28 1
    53   27   51 1
    54   28   29 1
    55   29   52 1
    56   29   53 1
    57   29   54 1
    58   30   31 1
    59   31   55 1
    60   31   56 1
    61   31   57 1
    62   32   58 1
    63   32   59 1
    64   32   60 1
@<TRIPOS>MOLECULE
ZINC45506743
   61    64     0     0     0
SMALL
USER_CHARGES

@<TRIPOS>ATOM
      1 C1         -3.0760   -2.0391   -0.5401 C.3       1 <0>        -0.1536
      2 C2         -1.6145   -1.6066   -0.4056 C.3       1 <0>         0.0579
      3 O1         -0.8569   -2.1440   -1.4915 O.3       1 <0>        -0.3404
      4 C3          0.4609   -1.8541   -1.5219 C.2       1 <0>         0.5262
      5 O2          0.9523   -1.1631   -0.6488 O.2       1 <0>        -0.4881
      6 C4          1.2698   -2.3525   -2.5671 C.2       1 <0>        -0.1998
      7 C5          1.6027   -3.6539   -2.5672 C.2       1 <0>         0.1907
      8 N1          2.3892   -4.1855   -3.5476 N.pl3     1 <0>        -0.6330
      9 C6          3.1633   -3.3517   -4.3520 C.ar      1 <0>         0.4515
     10 C7          2.8736   -1.9976   -4.4189 C.ar      1 <0>        -0.2094
     11 C8          3.6594   -1.1834   -5.2252 C.ar      1 <0>         0.3566
     12 C9          4.7161   -1.7609   -5.9428 C.ar      1 <0>        -0.1671
     13 C10         4.9461   -3.1086   -5.8261 C.ar      1 <0>         0.2135
     14 N2          4.1710   -3.8545   -5.0465 N.ar      1 <0>        -0.5257
     15 C11         6.0710   -3.8007   -6.5532 C.3       1 <0>        -0.1000
     16 C12         6.5738   -2.9388   -7.7092 C.3       1 <0>        -0.1204
     17 C13         6.8740   -1.5346   -7.1712 C.3       1 <0>        -0.1266
     18 C14         5.5490   -0.8622   -6.8166 C.3       1 <0>        -0.0785
     19 N3          3.4017    0.1813   -5.3191 N.pl3     1 <0>        -0.8032
     20 C15         1.7246   -1.4124   -3.6449 C.3       1 <0>         0.0837
     21 H1          2.0429   -0.4741   -3.1905 H         1 <0>         0.1048
     22 C16         0.5763   -1.1422   -4.5826 C.ar      1 <0>        -0.1020
     23 C17        -0.0171   -2.1875   -5.2656 C.ar      1 <0>        -0.0898
     24 C18        -1.0708   -1.9448   -6.1269 C.ar      1 <0>        -0.1677
     25 C19        -1.5347   -0.6516   -6.3069 C.ar      1 <0>         0.1165
     26 C20        -0.9377    0.4005   -5.6191 C.ar      1 <0>         0.1127
     27 C21         0.1149    0.1497   -4.7536 C.ar      1 <0>        -0.1716
     28 O3         -1.3894    1.6715   -5.7925 O.3       1 <0>        -0.2991
     29 C22        -0.7288    2.7012   -5.0540 C.3       1 <0>         0.0233
     30 O4         -2.5709   -0.4110   -7.1543 O.3       1 <0>        -0.3008
     31 C23        -3.1343   -1.5390   -7.8267 C.3       1 <0>         0.0237
     32 C24         1.0978   -4.5450   -1.4617 C.3       1 <0>        -0.1353
     33 H2         -3.4791   -1.6689   -1.4827 H         1 <0>         0.0676
     34 H3         -3.1361   -3.1273   -0.5217 H         1 <0>         0.0679
     35 H4         -3.6539   -1.6292    0.2882 H         1 <0>         0.0845
     36 H5         -1.5544   -0.5185   -0.4240 H         1 <0>         0.0706
     37 H6         -1.2114   -1.9769    0.5370 H         1 <0>         0.0717
     38 H7          2.4097   -5.1456   -3.6846 H         1 <0>         0.4336
     39 H8          6.8903   -3.9826   -5.8577 H         1 <0>         0.1162
     40 H9          5.7139   -4.7535   -6.9441 H         1 <0>         0.1062
     41 H10         7.4825   -3.3749   -8.1240 H         1 <0>         0.0953
     42 H11         5.8082   -2.8795   -8.4828 H         1 <0>         0.0803
     43 H12         7.4983   -1.6083   -6.2807 H         1 <0>         0.0770
     44 H13         7.3892   -0.9514   -7.9344 H         1 <0>         0.0905
     45 H14         5.0007   -0.6431   -7.7328 H         1 <0>         0.0966
     46 H15         5.7491    0.0692   -6.2868 H         1 <0>         0.0894
     47 H16         2.6681    0.5719   -4.8190 H         1 <0>         0.4186
     48 H17         3.9558    0.7417   -5.8846 H         1 <0>         0.4231
     49 H18         0.3435   -3.1959   -5.1262 H         1 <0>         0.1168
     50 H19        -1.5322   -2.7631   -6.6598 H         1 <0>         0.1399
     51 H20         0.5776    0.9640   -4.2158 H         1 <0>         0.1344
     52 H21         0.3259    2.7253   -5.3280 H         1 <0>         0.0530
     53 H22        -1.1860    3.6636   -5.2838 H         1 <0>         0.1081
     54 H23        -0.8224    2.5001   -3.9868 H         1 <0>         0.0575
     55 H24        -2.3670   -2.0217   -8.4320 H         1 <0>         0.0563
     56 H25        -3.5158   -2.2472   -7.0912 H         1 <0>         0.0585
     57 H26        -3.9499   -1.2085   -8.4699 H         1 <0>         0.1073
     58 H27         0.1068   -4.9184   -1.7201 H         1 <0>         0.1068
     59 H28         1.7801   -5.3850   -1.3318 H         1 <0>         0.0903
     60 H29         1.0411   -3.9761   -0.5337 H         1 <0>         0.0948
     61 H30         4.3511   -4.8056   -4.9839 H         1 <0>         0.4378
@<TRIPOS>BOND
     1    1    2 1
     2    1   33 1
     3    1   34 1
     4    1   35 1
     5    2    3 1
     6    2   36 1
     7    2   37 1
     8    3    4 1
     9    4    5 2
    10    4    6 1
    11    6   20 1
    12    6    7 2
    13    7    8 1
    14    7   32 1
    15    8    9 1
    16    8   38 1
    17    9   14 ar
    18    9   10 ar
    19   10   11 ar
    20   10   20 1
    21   11   12 ar
    22   11   19 1
    23   12   18 1
    24   12   13 ar
    25   13   14 ar
    26   13   15 1
    27   14   61 1
    28   15   16 1
    29   15   39 1
    30   15   40 1
    31   16   17 1
    32   16   41 1
    33   16   42 1
    34   17   18 1
    35   17   43 1
    36   17   44 1
    37   18   45 1
    38   18   46 1
    39   19   47 1
    40   19   48 1
    41   20   21 1
    42   20   22 1
    43   22   27 ar
    44   22   23 ar
    45   23   24 ar
    46   23   49 1
    47   24   25 ar
    48   24   50 1
    49   25   26 ar
    50   25   30 1
    51   26   27 ar
    52   26   28 1
    53   27   51 1
    54   28   29 1
    55   29   52 1
    56   29   53 1
    57   29   54 1
    58   30   31 1
    59   31   55 1
    60   31   56 1
    61   31   57 1
    62   32   58 1
    63   32   59 1
    64   32   60 1
@<TRIPOS>MOLECULE
ZINC45506745
   52    55     0     0     0
SMALL
USER_CHARGES

@<TRIPOS>ATOM
      1 C1         -2.0695   -0.7754   -0.2607 C.3       1 <0>        -0.1537
      2 C2         -0.5668   -1.0605   -0.3013 C.3       1 <0>         0.0574
      3 O1         -0.1440   -1.5687    0.9656 O.3       1 <0>        -0.3426
      4 C3          1.1643   -1.8731    1.0980 C.2       1 <0>         0.5258
      5 O2          1.9246   -1.7108    0.1617 O.2       1 <0>        -0.4843
      6 C4          1.6509   -2.3800    2.3233 C.2       1 <0>        -0.2058
      7 C5          1.4841   -3.6839    2.5995 C.2       1 <0>         0.1949
      8 N1          1.9425   -4.2275    3.7643 N.pl3     1 <0>        -0.6320
      9 C6          2.9008   -3.5555    4.5202 C.ar      1 <0>         0.4532
     10 C7          3.1235   -2.2042    4.3050 C.ar      1 <0>        -0.2146
     11 C8          4.0889   -1.5549    5.0646 C.ar      1 <0>         0.3564
     12 C9          4.7991   -2.2887    6.0250 C.ar      1 <0>        -0.1675
     13 C10         4.5197   -3.6220    6.1893 C.ar      1 <0>         0.2160
     14 N2          3.5931   -4.2086    5.4395 N.ar      1 <0>        -0.5249
     15 C11         5.2263   -4.4737    7.2132 C.3       1 <0>        -0.1007
     16 C12         6.5204   -3.8034    7.6690 C.3       1 <0>        -0.1204
     17 C13         6.1995   -2.3633    8.0862 C.3       1 <0>        -0.1268
     18 C14         5.8451   -1.5672    6.8315 C.3       1 <0>        -0.0784
     19 N3          4.3464   -0.2001    4.8751 N.pl3     1 <0>        -0.8039
     20 C15         2.3431   -1.4456    3.2721 C.3       1 <0>         0.0850
     21 H1          3.0199   -0.8018    2.7104 H         1 <0>         0.1080
     22 C16         1.3129   -0.5926    3.9663 C.ar      1 <0>        -0.1566
     23 C17         1.3415    0.7878    3.8366 C.ar      1 <0>        -0.0714
     24 C18         0.3738    1.5324    4.4932 C.ar      1 <0>        -0.1593
     25 C19        -0.5806    0.8788    5.2498 C.ar      1 <0>         0.1136
     26 N4         -0.5769   -0.4359    5.3510 N.ar      1 <0>        -0.4740
     27 C20         0.3244   -1.1763    4.7354 C.ar      1 <0>         0.1259
     28 C21         0.7757   -4.5646    1.6027 C.3       1 <0>        -0.1397
     29 H2         -2.2786   -0.0383    0.5146 H         1 <0>         0.0668
     30 H3         -2.3920   -0.3878   -1.2270 H         1 <0>         0.0854
     31 H4         -2.6083   -1.6970   -0.0406 H         1 <0>         0.0684
     32 H5         -0.3577   -1.7977   -1.0766 H         1 <0>         0.0729
     33 H6         -0.0280   -0.1390   -0.5213 H         1 <0>         0.0713
     34 H7          1.6003   -5.0833    4.0667 H         1 <0>         0.4349
     35 H8          4.5731   -4.6168    8.0740 H         1 <0>         0.1168
     36 H9          5.4593   -5.4439    6.7745 H         1 <0>         0.1072
     37 H10         6.9362   -4.3471    8.5173 H         1 <0>         0.0959
     38 H11         7.2387   -3.7965    6.8492 H         1 <0>         0.0808
     39 H12         5.3542   -2.3599    8.7743 H         1 <0>         0.0769
     40 H13         7.0692   -1.9185    8.5698 H         1 <0>         0.0910
     41 H14         6.7405   -1.4364    6.2239 H         1 <0>         0.0974
     42 H15         5.4629   -0.5888    7.1226 H         1 <0>         0.0891
     43 H16         3.8501    0.2992    4.2079 H         1 <0>         0.4184
     44 H17         5.0223    0.2445    5.4103 H         1 <0>         0.4240
     45 H18         2.0998    1.2713    3.2387 H         1 <0>         0.1358
     46 H19         0.3660    2.6095    4.4147 H         1 <0>         0.1449
     47 H20        -1.3379    1.4516    5.7644 H         1 <0>         0.1642
     48 H21         0.2923   -2.2510    4.8375 H         1 <0>         0.1414
     49 H22         1.4883   -4.9137    0.8554 H         1 <0>         0.1026
     50 H23         0.3415   -5.4210    2.1186 H         1 <0>         0.0930
     51 H24        -0.0150   -3.9962    1.1131 H         1 <0>         0.1024
     52 H25         3.4169   -5.1533    5.5713 H         1 <0>         0.4389
@<TRIPOS>BOND
     1    1    2 1
     2    1   29 1
     3    1   30 1
     4    1   31 1
     5    2    3 1
     6    2   32 1
     7    2   33 1
     8    3    4 1
     9    4    5 2
    10    4    6 1
    11    6   20 1
    12    6    7 2
    13    7    8 1
    14    7   28 1
    15    8    9 1
    16    8   34 1
    17    9   14 ar
    18    9   10 ar
    19   10   11 ar
    20   10   20 1
    21   11   12 ar
    22   11   19 1
    23   12   18 1
    24   12   13 ar
    25   13   14 ar
    26   13   15 1
    27   14   52 1
    28   15   16 1
    29   15   35 1
    30   15   36 1
    31   16   17 1
    32   16   37 1
    33   16   38 1
    34   17   18 1
    35   17   39 1
    36   17   40 1
    37   18   41 1
    38   18   42 1
    39   19   43 1
    40   19   44 1
    41   20   21 1
    42   20   22 1
    43   22   27 ar
    44   22   23 ar
    45   23   24 ar
    46   23   45 1
    47   24   25 ar
    48   24   46 1
    49   25   26 ar
    50   25   47 1
    51   26   27 ar
    52   27   48 1
    53   28   49 1
    54   28   50 1
    55   28   51 1
@<TRIPOS>MOLECULE
ZINC45506748
   52    55     0     0     0
SMALL
USER_CHARGES

@<TRIPOS>ATOM
      1 C1          2.0418   -1.9595   -2.4327 C.3       1 <0>        -0.1536
      2 C2          1.1882   -1.5643   -1.2260 C.3       1 <0>         0.0578
      3 O1          1.7584   -2.1167   -0.0378 O.3       1 <0>        -0.3421
      4 C3          1.1216   -1.8597    1.1241 C.2       1 <0>         0.5253
      5 O2          0.1091   -1.1843    1.1267 O.2       1 <0>        -0.4860
      6 C4          1.6302   -2.3746    2.3371 C.2       1 <0>        -0.2069
      7 C5          1.4841   -3.6839    2.5994 C.2       1 <0>         0.1963
      8 N1          1.9483   -4.2317    3.7600 N.pl3     1 <0>        -0.6329
      9 C6          2.2452   -3.4147    4.8489 C.ar      1 <0>         0.4532
     10 C7          2.4268   -2.0536    4.6586 C.ar      1 <0>        -0.2147
     11 C8          2.7198   -1.2565    5.7584 C.ar      1 <0>         0.3566
     12 C9          2.8221   -1.8578    7.0206 C.ar      1 <0>        -0.1674
     13 C10         2.6269   -3.2112    7.1345 C.ar      1 <0>         0.2160
     14 N2          2.3508   -3.9402    6.0587 N.ar      1 <0>        -0.5249
     15 C11         2.7052   -3.9287    8.4581 C.3       1 <0>        -0.1007
     16 C12         3.4416   -3.0756    9.4886 C.3       1 <0>        -0.1207
     17 C13         2.8039   -1.6814    9.5075 C.3       1 <0>        -0.1267
     18 C14         3.1486   -0.9772    8.1965 C.3       1 <0>        -0.0784
     19 N3          2.9087    0.1146    5.6094 N.pl3     1 <0>        -0.8038
     20 C15         2.3217   -1.4425    3.2885 C.3       1 <0>         0.0855
     21 H1          1.7545   -0.5140    3.3555 H         1 <0>         0.1086
     22 C16         3.7035   -1.1403    2.7686 C.ar      1 <0>        -0.1570
     23 C17         4.0759    0.1643    2.4816 C.ar      1 <0>        -0.0712
     24 C18         5.3572    0.3950    2.0053 C.ar      1 <0>        -0.1594
     25 C19         6.2149   -0.6753    1.8336 C.ar      1 <0>         0.1135
     26 N4          5.8263   -1.9031    2.1166 N.ar      1 <0>        -0.4739
     27 C20         4.6172   -2.1590    2.5771 C.ar      1 <0>         0.1251
     28 C21         0.7929   -4.5659    1.5917 C.3       1 <0>        -0.1365
     29 H2          2.0728   -3.0459   -2.5157 H         1 <0>         0.0684
     30 H3          1.6070   -1.5381   -3.3390 H         1 <0>         0.0852
     31 H4          3.0539   -1.5760   -2.3031 H         1 <0>         0.0669
     32 H5          1.1573   -0.4779   -1.1431 H         1 <0>         0.0710
     33 H6          0.1762   -1.9477   -1.3557 H         1 <0>         0.0726
     34 H7          2.0716   -5.1915    3.8270 H         1 <0>         0.4351
     35 H8          1.6962   -4.1335    8.8161 H         1 <0>         0.1171
     36 H9          3.2369   -4.8709    8.3254 H         1 <0>         0.1072
     37 H10         3.3536   -3.5330   10.4741 H         1 <0>         0.0959
     38 H11         4.4933   -2.9945    9.2137 H         1 <0>         0.0805
     39 H12         1.7219   -1.7737    9.6014 H         1 <0>         0.0773
     40 H13         3.1983   -1.1085   10.3468 H         1 <0>         0.0909
     41 H14         4.2127   -0.7412    8.1843 H         1 <0>         0.0967
     42 H15         2.5754   -0.0530    8.1234 H         1 <0>         0.0898
     43 H16         2.8362    0.5216    4.7320 H         1 <0>         0.4185
     44 H17         3.1129    0.6629    6.3831 H         1 <0>         0.4240
     45 H18         3.3841    0.9810    2.6253 H         1 <0>         0.1361
     46 H19         5.6811    1.3983    1.7711 H         1 <0>         0.1451
     47 H20         7.2147   -0.5040    1.4630 H         1 <0>         0.1644
     48 H21         4.3365   -3.1772    2.8029 H         1 <0>         0.1416
     49 H22         1.5177   -4.9134    0.8555 H         1 <0>         0.1083
     50 H23         0.3525   -5.4232    2.1008 H         1 <0>         0.0918
     51 H24         0.0087   -3.9990    1.0900 H         1 <0>         0.0957
     52 H25         2.2214   -4.8957    6.1643 H         1 <0>         0.4389
@<TRIPOS>BOND
     1    1    2 1
     2    1   29 1
     3    1   30 1
     4    1   31 1
     5    2    3 1
     6    2   32 1
     7    2   33 1
     8    3    4 1
     9    4    5 2
    10    4    6 1
    11    6   20 1
    12    6    7 2
    13    7    8 1
    14    7   28 1
    15    8    9 1
    16    8   34 1
    17    9   14 ar
    18    9   10 ar
    19   10   11 ar
    20   10   20 1
    21   11   12 ar
    22   11   19 1
    23   12   18 1
    24   12   13 ar
    25   13   14 ar
    26   13   15 1
    27   14   52 1
    28   15   16 1
    29   15   35 1
    30   15   36 1
    31   16   17 1
    32   16   37 1
    33   16   38 1
    34   17   18 1
    35   17   39 1
    36   17   40 1
    37   18   41 1
    38   18   42 1
    39   19   43 1
    40   19   44 1
    41   20   21 1
    42   20   22 1
    43   22   27 ar
    44   22   23 ar
    45   23   24 ar
    46   23   45 1
    47   24   25 ar
    48   24   46 1
    49   25   26 ar
    50   25   47 1
    51   26   27 ar
    52   27   48 1
    53   28   49 1
    54   28   50 1
    55   28   51 1
@<TRIPOS>MOLECULE
ZINC45506751
   52    55     0     0     0
SMALL
USER_CHARGES

@<TRIPOS>ATOM
      1 C1          0.8294   -0.7471    1.9297 C.3       1 <0>        -0.1538
      2 C2          0.0504   -1.0569    0.6499 C.3       1 <0>         0.0573
      3 O1          0.9487   -1.5461   -0.3479 O.3       1 <0>        -0.3424
      4 C3          0.4172   -1.8687   -1.5459 C.2       1 <0>         0.5248
      5 O2         -0.7777   -1.7374   -1.7367 O.2       1 <0>        -0.4837
      6 C4          1.2476   -2.3585   -2.5782 C.2       1 <0>        -0.2046
      7 C5          1.6028   -3.6539   -2.5672 C.2       1 <0>         0.1962
      8 N1          2.3959   -4.1812   -3.5447 N.pl3     1 <0>        -0.6320
      9 C6          2.5546   -3.5092   -4.7549 C.ar      1 <0>         0.4543
     10 C7          2.2230   -2.1661   -4.8448 C.ar      1 <0>        -0.2147
     11 C8          2.3821   -1.5168   -6.0630 C.ar      1 <0>         0.3565
     12 C9          2.8771   -2.2422   -7.1556 C.ar      1 <0>        -0.1670
     13 C10         3.1924   -3.5675   -6.9912 C.ar      1 <0>         0.2160
     14 N2          3.0210   -4.1545   -5.8118 N.ar      1 <0>        -0.5254
     15 C11         3.7472   -4.4094   -8.1120 C.3       1 <0>        -0.1007
     16 C12         3.4783   -3.7504   -9.4630 C.3       1 <0>        -0.1206
     17 C13         3.9637   -2.2974   -9.3987 C.3       1 <0>        -0.1267
     18 C14         3.0345   -1.5212   -8.4672 C.3       1 <0>        -0.0789
     19 N3          2.0553   -0.1703   -6.1960 N.pl3     1 <0>        -0.8029
     20 C15         1.6997   -1.4163   -3.6553 C.3       1 <0>         0.0779
     21 H1          0.8590   -0.7944   -3.9629 H         1 <0>         0.1097
     22 C16         2.7942   -0.5335   -3.1131 C.ar      1 <0>        -0.0537
     23 C17         3.9781   -1.0796   -2.6412 C.ar      1 <0>        -0.1519
     24 C18         4.9593   -0.2386   -2.1513 C.ar      1 <0>         0.1127
     25 N4          4.7790    1.0675   -2.1292 N.ar      1 <0>        -0.4717
     26 C19         3.6663    1.6214   -2.5695 C.ar      1 <0>         0.1162
     27 C20         2.6435    0.8444   -3.0795 C.ar      1 <0>        -0.1734
     28 C21         1.1158   -4.5432   -1.4523 C.3       1 <0>        -0.1399
     29 H2          1.3127   -1.6553    2.2898 H         1 <0>         0.0681
     30 H3          1.5863    0.0087    1.7203 H         1 <0>         0.0673
     31 H4          0.1441   -0.3740    2.6908 H         1 <0>         0.0857
     32 H5         -0.7066   -1.8128    0.8593 H         1 <0>         0.0728
     33 H6         -0.4329   -0.1487    0.2898 H         1 <0>         0.0718
     34 H7          2.8502   -5.0253   -3.3965 H         1 <0>         0.4345
     35 H8          4.8225   -4.5251   -7.9762 H         1 <0>         0.1168
     36 H9          3.2752   -5.3918   -8.0911 H         1 <0>         0.1072
     37 H10         4.0186   -4.2835  -10.2453 H         1 <0>         0.0961
     38 H11         2.4094   -3.7711   -9.6752 H         1 <0>         0.0808
     39 H12         4.9818   -2.2671   -9.0107 H         1 <0>         0.0769
     40 H13         3.9367   -1.8567  -10.3953 H         1 <0>         0.0912
     41 H14         2.0577   -1.4166   -8.9394 H         1 <0>         0.0977
     42 H15         3.4530   -0.5313   -8.2852 H         1 <0>         0.0896
     43 H16         1.7131    0.3233   -5.4343 H         1 <0>         0.4192
     44 H17         2.1697    0.2744   -7.0505 H         1 <0>         0.4244
     45 H18         4.1314   -2.1485   -2.6560 H         1 <0>         0.1246
     46 H19         5.8844   -0.6561   -1.7819 H         1 <0>         0.1603
     47 H20         3.5546    2.6951   -2.5351 H         1 <0>         0.1637
     48 H21         1.7365    1.3043   -3.4432 H         1 <0>         0.1363
     49 H22         0.1214   -4.9182   -1.6946 H         1 <0>         0.1028
     50 H23         1.8010   -5.3822   -1.3312 H         1 <0>         0.0929
     51 H24         1.0728   -3.9724   -0.5247 H         1 <0>         0.1027
     52 H25         3.2468   -5.0935   -5.7218 H         1 <0>         0.4388
@<TRIPOS>BOND
     1    1    2 1
     2    1   29 1
     3    1   30 1
     4    1   31 1
     5    2    3 1
     6    2   32 1
     7    2   33 1
     8    3    4 1
     9    4    5 2
    10    4    6 1
    11    6   20 1
    12    6    7 2
    13    7    8 1
    14    7   28 1
    15    8    9 1
    16    8   34 1
    17    9   14 ar
    18    9   10 ar
    19   10   11 ar
    20   10   20 1
    21   11   12 ar
    22   11   19 1
    23   12   18 1
    24   12   13 ar
    25   13   14 ar
    26   13   15 1
    27   14   52 1
    28   15   16 1
    29   15   35 1
    30   15   36 1
    31   16   17 1
    32   16   37 1
    33   16   38 1
    34   17   18 1
    35   17   39 1
    36   17   40 1
    37   18   41 1
    38   18   42 1
    39   19   43 1
    40   19   44 1
    41   20   21 1
    42   20   22 1
    43   22   27 ar
    44   22   23 ar
    45   23   24 ar
    46   23   45 1
    47   24   25 ar
    48   24   46 1
    49   25   26 ar
    50   26   27 ar
    51   26   47 1
    52   27   48 1
    53   28   49 1
    54   28   50 1
    55   28   51 1
