@<TRIPOS>MOLECULE
ZINC01532339
   56    55     0     0     0
SMALL
USER_CHARGES

@<TRIPOS>ATOM
      1 C1         -0.0178    1.4648    0.0101 C.3       1 <0>        -0.0508
      2 N1          0.0021   -0.0041    0.0020 N.4       1 <0>        -0.2715
      3 C2          0.7126   -0.4907    1.1921 C.3       1 <0>        -0.0508
      4 C3         -1.3761   -0.5125    0.0124 C.3       1 <0>        -0.0458
      5 C4          0.6897   -0.4778   -1.2066 C.3       1 <0>        -0.0093
      6 C5          2.1250    0.0518   -1.2175 C.3       1 <0>        -0.1512
      7 C6          2.8412   -0.4417   -2.4763 C.3       1 <0>        -0.1183
      8 C7          4.2766    0.0879   -2.4871 C.3       1 <0>        -0.1213
      9 C8          4.9927   -0.4055   -3.7459 C.3       1 <0>        -0.1222
     10 C9          6.4281    0.1241   -3.7568 C.3       1 <0>        -0.1222
     11 C10         7.1442   -0.3693   -5.0156 C.3       1 <0>        -0.1214
     12 C11         8.5796    0.1603   -5.0265 C.3       1 <0>        -0.1183
     13 C12         9.2957   -0.3332   -6.2853 C.3       1 <0>        -0.1511
     14 C13        10.7311    0.1964   -6.2961 C.3       1 <0>        -0.0092
     15 N2         11.4187   -0.2773   -7.5048 N.4       1 <0>        -0.2715
     16 C14        10.7082    0.2093   -8.6949 C.3       1 <0>        -0.0508
     17 C15        12.7969    0.2311   -7.5152 C.3       1 <0>        -0.0458
     18 C16        11.4386   -1.7462   -7.5128 C.3       1 <0>        -0.0508
     19 H1          1.0047    1.8421    0.0024 H         1 <0>         0.1221
     20 H2         -0.5450    1.8259   -0.8730 H         1 <0>         0.1218
     21 H3         -0.5280    1.8163    0.9069 H         1 <0>         0.1235
     22 H4          0.2024   -0.1392    2.0889 H         1 <0>         0.1235
     23 H5          0.7273   -1.5806    1.1861 H         1 <0>         0.1218
     24 H6          1.7352   -0.1134    1.1844 H         1 <0>         0.1221
     25 H7         -1.9033   -0.1515   -0.8706 H         1 <0>         0.1217
     26 H8         -1.3613   -1.6024    0.0065 H         1 <0>         0.1217
     27 H9         -1.8863   -0.1610    0.9092 H         1 <0>         0.1238
     28 H10         0.7044   -1.5677   -1.2126 H         1 <0>         0.1279
     29 H11         0.1625   -0.1167   -2.0897 H         1 <0>         0.1279
     30 H12         2.1103    1.1417   -1.2115 H         1 <0>         0.0874
     31 H13         2.6522   -0.3093   -0.3344 H         1 <0>         0.0874
     32 H14         2.8560   -1.5315   -2.4823 H         1 <0>         0.0735
     33 H15         2.3140   -0.0806   -3.3593 H         1 <0>         0.0735
     34 H16         4.2618    1.1778   -2.4811 H         1 <0>         0.0662
     35 H17         4.8037   -0.2731   -1.6041 H         1 <0>         0.0662
     36 H18         5.0075   -1.4954   -3.7519 H         1 <0>         0.0647
     37 H19         4.4655   -0.0444   -4.6290 H         1 <0>         0.0647
     38 H20         6.4133    1.2140   -3.7508 H         1 <0>         0.0647
     39 H21         6.9553   -0.2370   -2.8737 H         1 <0>         0.0647
     40 H22         7.1590   -1.4592   -5.0216 H         1 <0>         0.0662
     41 H23         6.6170   -0.0082   -5.8987 H         1 <0>         0.0662
     42 H24         8.5648    1.2501   -5.0205 H         1 <0>         0.0735
     43 H25         9.1068   -0.2008   -4.1434 H         1 <0>         0.0735
     44 H26         9.3105   -1.4230   -6.2913 H         1 <0>         0.0874
     45 H27         8.7685    0.0279   -7.1683 H         1 <0>         0.0874
     46 H28        10.7163    1.2863   -6.2901 H         1 <0>         0.1279
     47 H29        11.2583   -0.1647   -5.4131 H         1 <0>         0.1279
     48 H30        10.6934    1.2992   -8.6889 H         1 <0>         0.1218
     49 H31        11.2184   -0.1422   -9.5917 H         1 <0>         0.1235
     50 H32         9.6856   -0.1680   -8.6871 H         1 <0>         0.1221
     51 H33        13.3240   -0.1299   -6.6321 H         1 <0>         0.1217
     52 H34        13.3070   -0.1204   -8.4120 H         1 <0>         0.1238
     53 H35        12.7821    1.3210   -7.5092 H         1 <0>         0.1217
     54 H36        10.4160   -2.1235   -7.5051 H         1 <0>         0.1221
     55 H37        11.9488   -2.0977   -8.4096 H         1 <0>         0.1234
     56 H38        11.9658   -2.1073   -6.6298 H         1 <0>         0.1218
@<TRIPOS>BOND
     1    1    2 1
     2    1   19 1
     3    1   20 1
     4    1   21 1
     5    2    3 1
     6    2    4 1
     7    2    5 1
     8    3   22 1
     9    3   23 1
    10    3   24 1
    11    4   25 1
    12    4   26 1
    13    4   27 1
    14    5    6 1
    15    5   28 1
    16    5   29 1
    17    6    7 1
    18    6   30 1
    19    6   31 1
    20    7    8 1
    21    7   32 1
    22    7   33 1
    23    8    9 1
    24    8   34 1
    25    8   35 1
    26    9   10 1
    27    9   36 1
    28    9   37 1
    29   10   11 1
    30   10   38 1
    31   10   39 1
    32   11   12 1
    33   11   40 1
    34   11   41 1
    35   12   13 1
    36   12   42 1
    37   12   43 1
    38   13   14 1
    39   13   44 1
    40   13   45 1
    41   14   15 1
    42   14   46 1
    43   14   47 1
    44   15   16 1
    45   15   17 1
    46   15   18 1
    47   16   48 1
    48   16   49 1
    49   16   50 1
    50   17   51 1
    51   17   52 1
    52   17   53 1
    53   18   54 1
    54   18   55 1
    55   18   56 1
@<TRIPOS>MOLECULE
ZINC53022004
   57    60     0     0     0
SMALL
USER_CHARGES

@<TRIPOS>ATOM
      1 C1         -6.5759   -6.7397    6.4771 C.3       1 <0>        -0.1459
      2 C2         -5.6654   -5.5161    6.3560 C.3       1 <0>        -0.0559
      3 C3         -4.2048   -5.9524    6.4863 C.3       1 <0>        -0.1454
      4 C4         -5.8769   -4.8633    5.0143 C.ar      1 <0>        -0.0905
      5 C5         -5.6410   -5.5783    3.8544 C.ar      1 <0>        -0.0916
      6 C6         -5.8339   -4.9829    2.6232 C.ar      1 <0>        -0.1249
      7 C7         -6.2653   -3.6649    2.5508 C.ar      1 <0>         0.1539
      8 C8         -6.5013   -2.9497    3.7175 C.ar      1 <0>        -0.1415
      9 C9         -6.3119   -3.5525    4.9456 C.ar      1 <0>        -0.0951
     10 N1         -6.4612   -3.0586    1.3049 N.am      1 <0>        -0.6456
     11 C10        -6.7557   -3.8128    0.2273 C.2       1 <0>         0.6418
     12 O1         -6.9596   -5.0038    0.3566 O.2       1 <0>        -0.5338
     13 O2         -6.8241   -3.2464   -0.9925 O.3       1 <0>        -0.2947
     14 C11        -7.2270   -4.0217   -2.0347 C.ar      1 <0>         0.0496
     15 C12        -6.3470   -4.3153   -3.0658 C.ar      1 <0>        -0.0665
     16 C13        -6.7555   -5.1000   -4.1234 C.ar      1 <0>        -0.1616
     17 C14        -8.0512   -5.6126   -4.1624 C.ar      1 <0>         0.1991
     18 C15        -8.9279   -5.3113   -3.1282 C.ar      1 <0>        -0.1393
     19 C16        -8.5198   -4.5218   -2.0713 C.ar      1 <0>        -0.0551
     20 C17       -10.2530   -5.9756   -3.4216 C.3       1 <0>        -0.0358
     21 C18       -10.6179   -6.9191   -2.2503 C.3       1 <0>        -0.1104
     22 C19        -9.6556   -8.1083   -2.5226 C.3       1 <0>         0.0431
     23 N2         -9.7712   -8.2804   -3.9937 N.3       1 <0>        -0.5449
     24 C20        -9.9210   -6.9480   -4.5883 C.3       1 <0>         0.3105
     25 H1        -10.7175   -6.9280   -5.3382 H         1 <0>         0.1113
     26 N3         -8.6775   -6.4059   -5.1322 N.pl3     1 <0>        -0.6392
     27 C21        -8.1768   -6.5968   -6.4961 C.3       1 <0>         0.1072
     28 C22        -8.6737   -9.0786   -4.5288 C.3       1 <0>         0.0376
     29 C23       -11.3626   -4.9911   -3.7674 C.3       1 <0>        -0.1254
     30 H2         -6.4229   -7.2118    7.4475 H         1 <0>         0.0585
     31 H3         -7.6165   -6.4289    6.3842 H         1 <0>         0.0561
     32 H4         -6.3369   -7.4501    5.6857 H         1 <0>         0.0569
     33 H5         -5.9044   -4.8056    7.1474 H         1 <0>         0.0777
     34 H6         -3.9658   -6.6628    5.6949 H         1 <0>         0.0567
     35 H7         -3.5561   -5.0806    6.4001 H         1 <0>         0.0561
     36 H8         -4.0518   -6.4245    7.4568 H         1 <0>         0.0585
     37 H9         -5.3052   -6.6032    3.9113 H         1 <0>         0.1256
     38 H10        -5.6492   -5.5417    1.7176 H         1 <0>         0.1432
     39 H11        -6.8365   -1.9244    3.6645 H         1 <0>         0.1280
     40 H12        -6.4995   -2.9982    5.8533 H         1 <0>         0.1279
     41 H13        -6.3851   -2.0957    1.2167 H         1 <0>         0.4187
     42 H14        -5.3388   -3.9289   -3.0408 H         1 <0>         0.1341
     43 H15        -6.0613   -5.3164   -4.9225 H         1 <0>         0.1273
     44 H16        -9.2076   -4.2931   -1.2704 H         1 <0>         0.1240
     45 H17       -10.3984   -6.4555   -1.2928 H         1 <0>         0.0794
     46 H18       -11.6545   -7.2376   -2.3152 H         1 <0>         0.0844
     47 H19        -8.6372   -7.8507   -2.2402 H         1 <0>         0.0490
     48 H20        -9.9936   -9.0010   -2.0001 H         1 <0>         0.0848
     49 H21        -7.2546   -6.0307   -6.6271 H         1 <0>         0.0733
     50 H22        -7.9805   -7.6555   -6.6662 H         1 <0>         0.0557
     51 H23        -8.9227   -6.2464   -7.2094 H         1 <0>         0.0589
     52 H24        -8.6810  -10.0643   -4.0636 H         1 <0>         0.0691
     53 H25        -8.7937   -9.1847   -5.6069 H         1 <0>         0.0652
     54 H26        -7.7265   -8.5832   -4.3156 H         1 <0>         0.0284
     55 H27       -11.0723   -4.4090   -4.6421 H         1 <0>         0.0600
     56 H28       -12.2799   -5.5388   -3.9836 H         1 <0>         0.0670
     57 H29       -11.5297   -4.3210   -2.9241 H         1 <0>         0.0644
@<TRIPOS>BOND
     1    1    2 1
     2    1   30 1
     3    1   31 1
     4    1   32 1
     5    2    3 1
     6    2    4 1
     7    2   33 1
     8    3   34 1
     9    3   35 1
    10    3   36 1
    11    4    9 ar
    12    4    5 ar
    13    5    6 ar
    14    5   37 1
    15    6    7 ar
    16    6   38 1
    17    7    8 ar
    18    7   10 1
    19    8    9 ar
    20    8   39 1
    21    9   40 1
    22   10   11 am
    23   10   41 1
    24   11   12 2
    25   11   13 1
    26   13   14 1
    27   14   19 ar
    28   14   15 ar
    29   15   16 ar
    30   15   42 1
    31   16   17 ar
    32   16   43 1
    33   17   26 1
    34   17   18 ar
    35   18   19 ar
    36   18   20 1
    37   19   44 1
    38   20   24 1
    39   20   21 1
    40   20   29 1
    41   21   22 1
    42   21   45 1
    43   21   46 1
    44   22   23 1
    45   22   47 1
    46   22   48 1
    47   23   24 1
    48   23   28 1
    49   24   25 1
    50   24   26 1
    51   26   27 1
    52   27   49 1
    53   27   50 1
    54   27   51 1
    55   28   52 1
    56   28   53 1
    57   28   54 1
    58   29   55 1
    59   29   56 1
    60   29   57 1
@<TRIPOS>MOLECULE
ZINC00598356
   65    69     0     0     0
SMALL
USER_CHARGES
N-[2-[2-(1-benzyl-4-piperidyl)ethyl]-1,3-dioxo-isoindolin-5-yl]benzamide
@<TRIPOS>ATOM
      1 C1        -10.7486    5.9527    1.5375 C.ar      1 <0>        -0.0839
      2 C2        -10.6958    4.9793    0.5574 C.ar      1 <0>        -0.1136
      3 C3        -10.3269    3.6880    0.8849 C.ar      1 <0>        -0.0969
      4 C4        -10.0111    3.3700    2.1926 C.ar      1 <0>        -0.1633
      5 C5        -10.0694    4.3421    3.1737 C.ar      1 <0>        -0.0945
      6 C6        -10.4328    5.6347    2.8452 C.ar      1 <0>        -0.1130
      7 C7         -9.6093    1.9621    2.5498 C.3       1 <0>         0.0490
      8 C8         -7.6962    0.5441    2.9852 C.3       1 <0>        -0.0008
      9 C9         -6.1667    0.4952    2.9680 C.3       1 <0>        -0.1426
     10 C10        -5.6723    0.6451    1.5266 C.3       1 <0>        -0.0954
     11 C11        -6.2015    1.9603    0.9481 C.3       1 <0>        -0.1478
     12 C12        -7.7300    1.9668    1.0238 C.3       1 <0>        -0.0060
     13 C13        -4.1424    0.6580    1.5096 C.3       1 <0>        -0.1352
     14 C14        -3.6487    0.6822    0.0616 C.3       1 <0>         0.1090
     15 N1         -2.1839    0.6945    0.0453 N.am      1 <0>        -0.5790
     16 C15        -1.4321    1.8098    0.0590 C.2       1 <0>         0.5808
     17 O1         -1.8545    2.9486    0.0814 O.2       1 <0>        -0.4634
     18 C16        -0.0092    1.4202    0.0323 C.ar      1 <0>        -0.1659
     19 C17         1.1868    2.1246    0.0294 C.ar      1 <0>        -0.0156
     20 C18         2.3880    1.4402    0.0081 C.ar      1 <0>        -0.1002
     21 C19         2.4054    0.0506   -0.0124 C.ar      1 <0>         0.1796
     22 C20         1.2101   -0.6680   -0.0101 C.ar      1 <0>        -0.0688
     23 C21         0.0045    0.0094    0.0120 C.ar      1 <0>        -0.1224
     24 C22        -1.4138   -0.4083    0.0213 C.2       1 <0>         0.5801
     25 O2         -1.8160   -1.5542    0.0087 O.2       1 <0>        -0.4581
     26 N2          3.6226   -0.6276   -0.0347 N.am      1 <0>        -0.6707
     27 C23         4.6686   -0.1129   -0.7111 C.2       1 <0>         0.5666
     28 O3          4.5763    0.9815   -1.2319 O.2       1 <0>        -0.5073
     29 C24         5.9278   -0.8792   -0.8196 C.ar      1 <0>        -0.1458
     30 C25         6.0389   -2.1339   -0.2178 C.ar      1 <0>        -0.0847
     31 C26         7.2151   -2.8464   -0.3278 C.ar      1 <0>        -0.1256
     32 C27         8.2870   -2.3151   -1.0229 C.ar      1 <0>        -0.0836
     33 C28         8.1854   -1.0695   -1.6169 C.ar      1 <0>        -0.1250
     34 C29         7.0130   -0.3490   -1.5194 C.ar      1 <0>        -0.0530
     35 H1        -11.0361    6.9618    1.2815 H         1 <0>         0.1359
     36 H2        -10.9425    5.2278   -0.4643 H         1 <0>         0.1361
     37 H3        -10.2857    2.9275    0.1192 H         1 <0>         0.1307
     38 H4         -9.8269    4.0926    4.1962 H         1 <0>         0.1308
     39 H5        -10.4737    6.3953    3.6109 H         1 <0>         0.1361
     40 H6        -10.1022    1.2616    1.8757 H         1 <0>         0.1362
     41 H7         -9.9067    1.7488    3.5765 H         1 <0>         0.1346
     42 H8         -8.0926   -0.2777    2.3889 H         1 <0>         0.1315
     43 H9         -8.0510    0.4520    4.0117 H         1 <0>         0.1295
     44 H10        -5.8286   -0.4594    3.3712 H         1 <0>         0.1141
     45 H11        -5.7697    1.3085    3.5754 H         1 <0>         0.0892
     46 H12        -6.0362   -0.1899    0.9280 H         1 <0>         0.0952
     47 H13        -5.8050    2.7967    1.5237 H         1 <0>         0.0911
     48 H14        -5.8883    2.0526   -0.0919 H         1 <0>         0.1130
     49 H15        -8.1262    1.1384    0.4367 H         1 <0>         0.1304
     50 H16        -8.1093    2.9080    0.6258 H         1 <0>         0.1296
     51 H17        -3.7660   -0.2360    2.0069 H         1 <0>         0.0828
     52 H18        -3.7807    1.5438    2.0317 H         1 <0>         0.0785
     53 H19        -4.0251    1.5762   -0.4357 H         1 <0>         0.0975
     54 H20        -4.0105   -0.2036   -0.4605 H         1 <0>         0.0997
     55 H21         1.1791    3.2045    0.0446 H         1 <0>         0.1490
     56 H22         3.3183    1.9888    0.0062 H         1 <0>         0.1612
     57 H23         1.2259   -1.7478   -0.0253 H         1 <0>         0.1481
     58 H24         3.7170   -1.4702    0.4366 H         1 <0>         0.4176
     59 H25         5.2047   -2.5477    0.3292 H         1 <0>         0.1256
     60 H26         7.3010   -3.8191    0.1335 H         1 <0>         0.1333
     61 H27         9.2070   -2.8752   -1.1025 H         1 <0>         0.1324
     62 H28         9.0257   -0.6606   -2.1583 H         1 <0>         0.1351
     63 H29         6.9351    0.6232   -1.9832 H         1 <0>         0.1392
     64 N3         -8.1408    1.8439    2.4386 N.4       1 <0>        -0.3927
     65 H30        -7.7036    2.5995    2.9791 H         1 <0>         0.4259
@<TRIPOS>BOND
     1    1    6 ar
     2    1    2 ar
     3    1   35 1
     4    2    3 ar
     5    2   36 1
     6    3    4 ar
     7    3   37 1
     8    4    5 ar
     9    4    7 1
    10    5    6 ar
    11    5   38 1
    12    6   39 1
    13    7   40 1
    14    7   41 1
    15    7   64 1
    16    8    9 1
    17    8   42 1
    18    8   43 1
    19    8   64 1
    20    9   10 1
    21    9   44 1
    22    9   45 1
    23   10   11 1
    24   10   13 1
    25   10   46 1
    26   11   12 1
    27   11   47 1
    28   11   48 1
    29   12   49 1
    30   12   50 1
    31   12   64 1
    32   13   14 1
    33   13   51 1
    34   13   52 1
    35   14   15 1
    36   14   53 1
    37   14   54 1
    38   15   24 am
    39   15   16 am
    40   16   17 2
    41   16   18 1
    42   18   23 ar
    43   18   19 ar
    44   19   20 ar
    45   19   55 1
    46   20   21 ar
    47   20   56 1
    48   21   22 ar
    49   21   26 1
    50   22   23 ar
    51   22   57 1
    52   23   24 1
    53   24   25 2
    54   26   27 am
    55   26   58 1
    56   27   28 2
    57   27   29 1
    58   29   34 ar
    59   29   30 ar
    60   30   31 ar
    61   30   59 1
    62   31   32 ar
    63   31   60 1
    64   32   33 ar
    65   32   61 1
    66   33   34 ar
    67   33   62 1
    68   34   63 1
    69   64   65 1
@<TRIPOS>MOLECULE
ZINC03079342
   25    24     0     0     0
SMALL
USER_CHARGES

@<TRIPOS>ATOM
      1 C1          0.5385    1.3265   -0.0156 C.3       1 <0>        -0.0552
      2 N1          0.0207   -0.0467    0.0478 N.4       1 <0>        -0.2722
      3 C2          0.5070   -0.6974    1.2718 C.3       1 <0>        -0.0471
      4 C3         -1.4480   -0.0161    0.0600 C.3       1 <0>        -0.0454
      5 C4          0.4850   -0.7999   -1.1248 C.3       1 <0>        -0.0017
      6 C5          2.0115   -0.7313   -1.2033 C.3       1 <0>         0.0515
      7 O1          2.5777   -1.4543   -0.1084 O.3       1 <0>        -0.3772
      8 C6          3.9213   -1.4920   -0.0303 C.2       1 <0>         0.6511
      9 O2          4.5947   -0.9264   -0.8688 O.2       1 <0>        -0.5552
     10 N2          4.5193   -2.1570    0.9780 N.am      1 <0>        -0.8167
     11 H1          1.6283    1.3038   -0.0246 H         1 <0>         0.1211
     12 H2          0.1776    1.8093   -0.9238 H         1 <0>         0.1253
     13 H3          0.1939    1.8853    0.8545 H         1 <0>         0.1262
     14 H4          0.0211   -0.2500    2.1388 H         1 <0>         0.1189
     15 H5          0.2750   -1.7618    1.2342 H         1 <0>         0.1224
     16 H6          1.5859   -0.5633    1.3504 H         1 <0>         0.1286
     17 H7         -1.8089    0.4667   -0.8482 H         1 <0>         0.1227
     18 H8         -1.8322   -1.0351    0.1071 H         1 <0>         0.1229
     19 H9         -1.7926    0.5427    0.9301 H         1 <0>         0.1241
     20 H10         0.1722   -1.8402   -1.0357 H         1 <0>         0.1419
     21 H11         0.0550   -0.3672   -2.0281 H         1 <0>         0.1522
     22 H12         2.3472   -1.1718   -2.1420 H         1 <0>         0.1171
     23 H13         2.3314    0.3096   -1.1555 H         1 <0>         0.0971
     24 H14         3.9817   -2.6085    1.6473 H         1 <0>         0.4117
     25 H15         5.4873   -2.1841    1.0343 H         1 <0>         0.4360
@<TRIPOS>BOND
     1    1    2 1
     2    1   11 1
     3    1   12 1
     4    1   13 1
     5    2    3 1
     6    2    4 1
     7    2    5 1
     8    3   14 1
     9    3   15 1
    10    3   16 1
    11    4   17 1
    12    4   18 1
    13    4   19 1
    14    5    6 1
    15    5   20 1
    16    5   21 1
    17    6    7 1
    18    6   22 1
    19    6   23 1
    20    7    8 1
    21    8    9 2
    22    8   10 am
    23   10   24 1
    24   10   25 1
@<TRIPOS>MOLECULE
ZINC00597013
   58    61     0     0     0
SMALL
USER_CHARGES

@<TRIPOS>ATOM
      1 C1         -0.0173    1.4248    0.0099 C.3       1 <0>         0.0208
      2 O1          0.0021   -0.0041    0.0020 O.3       1 <0>        -0.2950
      3 C2          0.6051   -0.6064   -1.0545 C.ar      1 <0>         0.1532
      4 C3          1.1721    0.1632   -2.0609 C.ar      1 <0>        -0.1821
      5 C4          1.7866   -0.4410   -3.1387 C.ar      1 <0>        -0.0371
      6 C5          1.8416   -1.8340   -3.2219 C.ar      1 <0>        -0.2044
      7 C6          1.2663   -2.6106   -2.2012 C.ar      1 <0>        -0.1044
      8 C7          0.6597   -1.9984   -1.1254 C.ar      1 <0>         0.0877
      9 O2          0.1088   -2.7516   -0.1361 O.3       1 <0>        -0.3011
     10 C8          0.2013   -4.1710   -0.2735 C.3       1 <0>         0.0231
     11 C9          2.5389   -2.2531   -4.4456 C.2       1 <0>         0.4182
     12 O3          2.7420   -3.3976   -4.7923 O.2       1 <0>        -0.4477
     13 C10         2.9584   -1.0129   -5.1966 C.3       1 <0>        -0.1391
     14 H1          4.0434   -0.9806   -5.2959 H         1 <0>         0.1138
     15 C11         2.4673    0.1645   -4.3432 C.3       1 <0>        -0.0780
     16 C12         2.2994   -0.9808   -6.5770 C.3       1 <0>        -0.0982
     17 C13         2.8476   -2.1260   -7.4307 C.3       1 <0>        -0.1155
     18 C14         4.3380   -1.8972   -7.6982 C.3       1 <0>        -0.1415
     19 C15         4.8612   -3.0029   -8.6175 C.3       1 <0>        -0.0066
     20 N1          4.1252   -2.9777   -9.8872 N.4       1 <0>        -0.3801
     21 C16         2.7066   -3.2675   -9.6464 C.3       1 <0>        -0.0118
     22 C17         2.1004   -2.1720   -8.7666 C.3       1 <0>        -0.1383
     23 C18         4.6828   -3.9891  -10.7949 C.3       1 <0>         0.0438
     24 C19         4.0113   -3.8820  -12.1398 C.ar      1 <0>        -0.1605
     25 C20         2.8641   -4.6083  -12.3993 C.ar      1 <0>        -0.0978
     26 C21         2.2481   -4.5101  -13.6329 C.ar      1 <0>        -0.1135
     27 C22         2.7790   -3.6851  -14.6068 C.ar      1 <0>        -0.0847
     28 C23         3.9256   -2.9580  -14.3470 C.ar      1 <0>        -0.1130
     29 C24         4.5392   -3.0530  -13.1119 C.ar      1 <0>        -0.0942
     30 H2          1.0053    1.8021    0.0021 H         1 <0>         0.0608
     31 H3         -0.5445    1.7859   -0.8732 H         1 <0>         0.0604
     32 H4         -0.5275    1.7763    0.9067 H         1 <0>         0.1088
     33 H5          1.1317    1.2407   -2.0004 H         1 <0>         0.1449
     34 H6          1.3038   -3.6885   -2.2575 H         1 <0>         0.1426
     35 H7         -0.2763   -4.6506    0.5809 H         1 <0>         0.1075
     36 H8         -0.2996   -4.4806   -1.1908 H         1 <0>         0.0566
     37 H9          1.2502   -4.4644   -0.3155 H         1 <0>         0.0572
     38 H10         1.7583    0.7678   -4.9101 H         1 <0>         0.0961
     39 H11         3.3123    0.7764   -4.0277 H         1 <0>         0.0964
     40 H12         1.2208   -1.0934   -6.4674 H         1 <0>         0.0800
     41 H13         2.5179   -0.0293   -7.0618 H         1 <0>         0.0849
     42 H14         2.7114   -3.0706   -6.9042 H         1 <0>         0.1081
     43 H15         4.4772   -0.9286   -8.1782 H         1 <0>         0.0886
     44 H16         4.8846   -1.9188   -6.7553 H         1 <0>         0.1118
     45 H17         5.9222   -2.8432   -8.8098 H         1 <0>         0.1305
     46 H18         4.7218   -3.9711   -8.1364 H         1 <0>         0.1303
     47 H19         2.1768   -3.3031  -10.5983 H         1 <0>         0.1310
     48 H20         2.6131   -4.2300   -9.1434 H         1 <0>         0.1282
     49 H21         1.0476   -2.3899   -8.5875 H         1 <0>         0.1106
     50 H22         2.1932   -1.2090   -9.2688 H         1 <0>         0.0874
     51 H23         5.7540   -3.8234  -10.9095 H         1 <0>         0.1365
     52 H24         4.5111   -4.9828  -10.3812 H         1 <0>         0.1348
     53 H25         2.4494   -5.2529  -11.6384 H         1 <0>         0.1308
     54 H26         1.3522   -5.0781  -13.8359 H         1 <0>         0.1360
     55 H27         2.2981   -3.6088  -15.5708 H         1 <0>         0.1358
     56 H28         4.3405   -2.3138  -15.1080 H         1 <0>         0.1360
     57 H29         5.4329   -2.4822  -12.9076 H         1 <0>         0.1309
     58 H30         4.2142   -2.0651  -10.3083 H         1 <0>         0.4207
@<TRIPOS>BOND
     1    1    2 1
     2    1   30 1
     3    1   31 1
     4    1   32 1
     5    2    3 1
     6    3    8 ar
     7    3    4 ar
     8    4    5 ar
     9    4   33 1
    10    5   15 1
    11    5    6 ar
    12    6    7 ar
    13    6   11 1
    14    7    8 ar
    15    7   34 1
    16    8    9 1
    17    9   10 1
    18   10   35 1
    19   10   36 1
    20   10   37 1
    21   11   12 2
    22   11   13 1
    23   13   14 1
    24   13   15 1
    25   13   16 1
    26   15   38 1
    27   15   39 1
    28   16   17 1
    29   16   40 1
    30   16   41 1
    31   17   22 1
    32   17   18 1
    33   17   42 1
    34   18   19 1
    35   18   43 1
    36   18   44 1
    37   19   20 1
    38   19   45 1
    39   19   46 1
    40   20   21 1
    41   20   23 1
    42   20   58 1
    43   21   22 1
    44   21   47 1
    45   21   48 1
    46   22   49 1
    47   22   50 1
    48   23   24 1
    49   23   51 1
    50   23   52 1
    51   24   29 ar
    52   24   25 ar
    53   25   26 ar
    54   25   53 1
    55   26   27 ar
    56   26   54 1
    57   27   28 ar
    58   27   55 1
    59   28   29 ar
    60   28   56 1
    61   29   57 1
@<TRIPOS>MOLECULE
ZINC00897251
   58    61     0     0     0
SMALL
USER_CHARGES

@<TRIPOS>ATOM
      1 C1         -0.4000    2.7928   -9.4111 C.3       1 <0>         0.0217
      2 O1         -0.3921    3.3043   -8.0768 O.3       1 <0>        -0.2952
      3 C2          0.2864    2.5865   -7.1456 C.ar      1 <0>         0.1496
      4 C3          0.9365    1.4157   -7.5106 C.ar      1 <0>        -0.1810
      5 C4          1.6280    0.6797   -6.5702 C.ar      1 <0>        -0.0432
      6 C5          1.6776    1.1109   -5.2428 C.ar      1 <0>        -0.1980
      7 C6          1.0179    2.2969   -4.8763 C.ar      1 <0>        -0.1053
      8 C7          0.3345    3.0288   -5.8236 C.ar      1 <0>         0.0903
      9 O2         -0.2981    4.1789   -5.4680 O.3       1 <0>        -0.3013
     10 C8         -0.2072    4.5722   -4.0972 C.3       1 <0>         0.0223
     11 C9          2.4645    0.1785   -4.4238 C.2       1 <0>         0.4126
     12 O3          2.6844    0.2862   -3.2359 O.2       1 <0>        -0.4369
     13 C10         2.9517   -0.9365   -5.3169 C.3       1 <0>        -0.1385
     14 H1          2.5591   -1.8938   -4.9740 H         1 <0>         0.1136
     15 C11         2.4055   -0.6071   -6.7129 C.3       1 <0>        -0.0752
     16 C12         4.4812   -0.9687   -5.3380 C.3       1 <0>        -0.1018
     17 C13         4.9548   -2.1846   -6.1369 C.3       1 <0>        -0.0999
     18 C14         4.5565   -3.4674   -5.4014 C.3       1 <0>        -0.1473
     19 C15         5.1018   -4.6765   -6.1643 C.3       1 <0>        -0.0062
     20 N1          6.5650   -4.5904   -6.2436 N.4       1 <0>        -0.3817
     21 C16         6.9530   -3.4000   -7.0098 C.3       1 <0>        -0.0117
     22 C17         6.4789   -2.1417   -6.2794 C.3       1 <0>        -0.1414
     23 C18         7.0894   -5.7910   -6.9081 C.3       1 <0>         0.0445
     24 C19         8.5959   -5.7625   -6.8811 C.ar      1 <0>        -0.1617
     25 C20         9.2944   -5.1622   -7.9119 C.ar      1 <0>        -0.0980
     26 C21        10.6763   -5.1361   -7.8871 C.ar      1 <0>        -0.1136
     27 C22        11.3596   -5.7098   -6.8313 C.ar      1 <0>        -0.0841
     28 C23        10.6611   -6.3093   -5.8000 C.ar      1 <0>        -0.1126
     29 C24         9.2791   -6.3317   -5.8227 C.ar      1 <0>        -0.0940
     30 H2          0.6233    2.7264   -9.7808 H         1 <0>         0.0592
     31 H3         -0.8537    1.8018   -9.4176 H         1 <0>         0.0598
     32 H4         -0.9755    3.4601  -10.0527 H         1 <0>         0.1082
     33 H5          0.9006    1.0787   -8.5360 H         1 <0>         0.1432
     34 H6          1.0506    2.6377   -3.8520 H         1 <0>         0.1438
     35 H7         -0.7539    5.5035   -3.9494 H         1 <0>         0.1078
     36 H8         -0.6376    3.7942   -3.4667 H         1 <0>         0.0580
     37 H9          0.8393    4.7188   -3.8299 H         1 <0>         0.0577
     38 H10         1.7480   -1.4060   -7.0558 H         1 <0>         0.0927
     39 H11         3.2285   -0.4716   -7.4146 H         1 <0>         0.0925
     40 H12         4.8574   -0.0583   -5.8047 H         1 <0>         0.0823
     41 H13         4.8574   -1.0358   -4.3172 H         1 <0>         0.0822
     42 H14         4.4958   -2.1724   -7.1255 H         1 <0>         0.0950
     43 H15         4.9736   -3.4540   -4.3944 H         1 <0>         0.0914
     44 H16         3.4699   -3.5323   -5.3452 H         1 <0>         0.1144
     45 H17         4.8199   -5.5916   -5.6435 H         1 <0>         0.1311
     46 H18         4.6840   -4.6890   -7.1710 H         1 <0>         0.1295
     47 H19         8.0378   -3.3726   -7.1131 H         1 <0>         0.1315
     48 H20         6.4957   -3.4397   -7.9984 H         1 <0>         0.1282
     49 H21         6.7664   -1.2591   -6.8507 H         1 <0>         0.1129
     50 H22         6.9359   -2.1009   -5.2906 H         1 <0>         0.0893
     51 H23         6.7334   -6.6795   -6.3867 H         1 <0>         0.1365
     52 H24         6.7449   -5.8138   -7.9420 H         1 <0>         0.1348
     53 H25         8.7606   -4.7139   -8.7368 H         1 <0>         0.1306
     54 H26        11.2221   -4.6677   -8.6928 H         1 <0>         0.1361
     55 H27        12.4393   -5.6901   -6.8123 H         1 <0>         0.1360
     56 H28        11.1949   -6.7579   -4.9753 H         1 <0>         0.1363
     57 H29         8.7332   -6.7968   -5.0151 H         1 <0>         0.1311
     58 H30         6.9482   -4.5293   -5.3123 H         1 <0>         0.4220
@<TRIPOS>BOND
     1    1    2 1
     2    1   30 1
     3    1   31 1
     4    1   32 1
     5    2    3 1
     6    3    8 ar
     7    3    4 ar
     8    4    5 ar
     9    4   33 1
    10    5   15 1
    11    5    6 ar
    12    6    7 ar
    13    6   11 1
    14    7    8 ar
    15    7   34 1
    16    8    9 1
    17    9   10 1
    18   10   35 1
    19   10   36 1
    20   10   37 1
    21   11   12 2
    22   11   13 1
    23   13   14 1
    24   13   15 1
    25   13   16 1
    26   15   38 1
    27   15   39 1
    28   16   17 1
    29   16   40 1
    30   16   41 1
    31   17   22 1
    32   17   18 1
    33   17   42 1
    34   18   19 1
    35   18   43 1
    36   18   44 1
    37   19   20 1
    38   19   45 1
    39   19   46 1
    40   20   21 1
    41   20   23 1
    42   20   58 1
    43   21   22 1
    44   21   47 1
    45   21   48 1
    46   22   49 1
    47   22   50 1
    48   23   24 1
    49   23   51 1
    50   23   52 1
    51   24   29 ar
    52   24   25 ar
    53   25   26 ar
    54   25   53 1
    55   26   27 ar
    56   26   54 1
    57   27   28 ar
    58   27   55 1
    59   28   29 ar
    60   28   56 1
    61   29   57 1
@<TRIPOS>MOLECULE
ZINC00597028
   56    59     0     0     0
SMALL
USER_CHARGES
2-[(1-benzyl-4-piperidyl)methylene]-5,6-dimethoxy-indan-1-one
@<TRIPOS>ATOM
      1 C1          4.7610    1.3608   -0.0363 C.3       1 <0>         0.0216
      2 O1          3.5512    2.1213   -0.0211 O.3       1 <0>        -0.2946
      3 C2          2.3855    1.4250   -0.0136 C.ar      1 <0>         0.1480
      4 C3          2.4063    0.0370   -0.0208 C.ar      1 <0>        -0.1759
      5 C4          1.2255   -0.6755   -0.0133 C.ar      1 <0>        -0.0480
      6 C5          0.0021   -0.0041    0.0020 C.ar      1 <0>        -0.1868
      7 C6         -0.0169    1.3977    0.0097 C.ar      1 <0>        -0.1038
      8 C7          1.1679    2.1045    0.0022 C.ar      1 <0>         0.0929
      9 O2          1.1483    3.4643    0.0097 O.3       1 <0>        -0.3005
     10 C8         -0.1341    4.0946    0.0254 C.3       1 <0>         0.0218
     11 C9         -1.1060   -0.9788    0.0079 C.2       1 <0>         0.4314
     12 O3         -2.2917   -0.7066    0.0212 O.2       1 <0>        -0.4342
     13 C10        -0.5361   -2.3349   -0.0045 C.2       1 <0>        -0.1729
     14 C11        -1.2083   -3.4844   -0.0042 C.2       1 <0>        -0.0712
     15 C12        -0.4622   -4.7936   -0.0186 C.3       1 <0>        -0.0748
     16 C13        -0.8503   -5.5901   -1.2674 C.3       1 <0>        -0.1392
     17 C14        -0.1376   -6.9442   -1.2447 C.3       1 <0>        -0.0065
     18 C15        -0.1127   -6.9567    1.1784 C.3       1 <0>         0.0002
     19 C16        -0.8259   -5.6036    1.2288 C.3       1 <0>        -0.1412
     20 C17         0.0382   -9.0399   -0.0456 C.3       1 <0>         0.0486
     21 C18        -0.1891   -9.6633   -1.3987 C.ar      1 <0>        -0.1616
     22 C19        -1.3410  -10.3881   -1.6410 C.ar      1 <0>        -0.0943
     23 C20        -1.5515  -10.9562   -2.8835 C.ar      1 <0>        -0.1130
     24 C21        -0.6059  -10.8073   -3.8808 C.ar      1 <0>        -0.0841
     25 C22         0.5485  -10.0870   -3.6368 C.ar      1 <0>        -0.1142
     26 C23         0.7570   -9.5151   -2.3957 C.ar      1 <0>        -0.0968
     27 C24         0.9646   -2.1622   -0.0183 C.3       1 <0>        -0.0448
     28 H1          4.8035    0.7280    0.8502 H         1 <0>         0.0594
     29 H2          4.7868    0.7369   -0.9297 H         1 <0>         0.0594
     30 H3          5.6155    2.0375   -0.0409 H         1 <0>         0.1083
     31 H4          3.3506   -0.4868   -0.0327 H         1 <0>         0.1442
     32 H5         -0.9596    1.9247    0.0171 H         1 <0>         0.1453
     33 H6         -0.0068    5.1771    0.0301 H         1 <0>         0.1081
     34 H7         -0.6953    3.7985   -0.8608 H         1 <0>         0.0583
     35 H8         -0.6782    3.7889    0.9190 H         1 <0>         0.0583
     36 H9         -2.2882   -3.4784    0.0064 H         1 <0>         0.1369
     37 H10         0.6107   -4.6013   -0.0281 H         1 <0>         0.0997
     38 H11        -1.9288   -5.7476   -1.2779 H         1 <0>         0.0923
     39 H12        -0.5541   -5.0367   -2.1586 H         1 <0>         0.1144
     40 H13         0.9408   -6.7861   -1.2493 H         1 <0>         0.1296
     41 H14        -0.4238   -7.5201   -2.1249 H         1 <0>         0.1342
     42 H15         0.9656   -6.7985    1.1624 H         1 <0>         0.1316
     43 H16        -0.3810   -7.5417    2.0581 H         1 <0>         0.1322
     44 H17        -0.5122   -5.0599    2.1200 H         1 <0>         0.1161
     45 H18        -1.9040   -5.7614    1.2587 H         1 <0>         0.0936
     46 H19         1.1079   -8.9959    0.1591 H         1 <0>         0.1363
     47 H20        -0.4537   -9.6414    0.7188 H         1 <0>         0.1347
     48 H21        -2.0780  -10.5076   -0.8607 H         1 <0>         0.1310
     49 H22        -2.4535  -11.5188   -3.0743 H         1 <0>         0.1361
     50 H23        -0.7691  -11.2535   -4.8507 H         1 <0>         0.1359
     51 H24         1.2872   -9.9706   -4.4159 H         1 <0>         0.1361
     52 H25         1.6588   -8.9523   -2.2050 H         1 <0>         0.1303
     53 H26         1.4017   -2.6213    0.8684 H         1 <0>         0.0993
     54 H27         1.3843   -2.6130   -0.9176 H         1 <0>         0.0992
     55 N1         -0.5488   -7.6840   -0.0327 N.4       1 <0>        -0.3931
     56 H28        -1.5724   -7.7640   -0.0227 H         1 <0>         0.4266
@<TRIPOS>BOND
     1    1    2 1
     2    1   28 1
     3    1   29 1
     4    1   30 1
     5    2    3 1
     6    3    8 ar
     7    3    4 ar
     8    4    5 ar
     9    4   31 1
    10    5   27 1
    11    5    6 ar
    12    6    7 ar
    13    6   11 1
    14    7    8 ar
    15    7   32 1
    16    8    9 1
    17    9   10 1
    18   10   33 1
    19   10   34 1
    20   10   35 1
    21   11   12 2
    22   11   13 1
    23   13   14 2
    24   13   27 1
    25   14   15 1
    26   14   36 1
    27   15   19 1
    28   15   16 1
    29   15   37 1
    30   16   17 1
    31   16   38 1
    32   16   39 1
    33   17   40 1
    34   17   41 1
    35   17   55 1
    36   18   19 1
    37   18   42 1
    38   18   43 1
    39   18   55 1
    40   19   44 1
    41   19   45 1
    42   20   21 1
    43   20   46 1
    44   20   47 1
    45   20   55 1
    46   21   26 ar
    47   21   22 ar
    48   22   23 ar
    49   22   48 1
    50   23   24 ar
    51   23   49 1
    52   24   25 ar
    53   24   50 1
    54   25   26 ar
    55   25   51 1
    56   26   52 1
    57   27   53 1
    58   27   54 1
    59   55   56 1
@<TRIPOS>MOLECULE
ZINC13744607
   57    60     0     0     0
SMALL
USER_CHARGES
1-benzyl-4-[(5,6-dimethoxy-1H-inden-2-yl)methyl]piperidine
@<TRIPOS>ATOM
      1 C1          8.1910    6.0203    3.0763 C.3       1 <0>         0.0241
      2 O1          8.2675    6.0848    1.6508 O.3       1 <0>        -0.3008
      3 C2          7.1668    5.6932    0.9553 C.ar      1 <0>         0.1140
      4 C3          6.0364    5.2564    1.6325 C.ar      1 <0>        -0.1574
      5 C4          4.9233    4.8609    0.9281 C.ar      1 <0>        -0.0960
      6 C5          4.9164    4.8936   -0.4683 C.ar      1 <0>        -0.0839
      7 C6          6.0554    5.3337   -1.1479 C.ar      1 <0>        -0.1507
      8 C7          7.1724    5.7305   -0.4369 C.ar      1 <0>         0.1024
      9 O2          8.2804    6.1590   -1.0990 O.3       1 <0>        -0.3033
     10 C8          8.2183    6.1726   -2.5266 C.3       1 <0>         0.0251
     11 C9          3.6061    4.4193   -0.9503 C.2       1 <0>        -0.1008
     12 C10         2.8152    4.1001    0.0595 C.2       1 <0>        -0.1385
     13 C11         3.5651    4.3521    1.3466 C.3       1 <0>        -0.0522
     14 C12         1.4052    3.5803   -0.0535 C.3       1 <0>        -0.0567
     15 C13         1.4196    2.0513   -0.0005 C.3       1 <0>        -0.0943
     16 C14        -0.0187    1.5261    0.0104 C.3       1 <0>        -0.1440
     17 C15         0.0021   -0.0041    0.0020 C.3       1 <0>        -0.0013
     18 C16         2.1034   -0.0262   -1.2048 C.3       1 <0>        -0.0060
     19 C17         2.1454    1.5033   -1.2324 C.3       1 <0>        -0.1450
     20 C18         0.6260   -1.9412   -1.3090 C.3       1 <0>         0.0487
     21 C19         1.1387   -2.3694   -2.6599 C.ar      1 <0>        -0.1627
     22 C20         0.2676   -2.4758   -3.7279 C.ar      1 <0>        -0.0946
     23 C21         0.7388   -2.8635   -4.9683 C.ar      1 <0>        -0.1131
     24 C22         2.0793   -3.1555   -5.1380 C.ar      1 <0>        -0.0842
     25 C23         2.9494   -3.0547   -4.0686 C.ar      1 <0>        -0.1136
     26 C24         2.4792   -2.6614   -2.8296 C.ar      1 <0>        -0.0968
     27 H1          7.3807    6.6600    3.4260 H         1 <0>         0.0572
     28 H2          8.0008    4.9921    3.3838 H         1 <0>         0.0560
     29 H3          9.1333    6.3598    3.5064 H         1 <0>         0.1055
     30 H4          6.0309    5.2274    2.7121 H         1 <0>         0.1377
     31 H5          6.0630    5.3634   -2.2275 H         1 <0>         0.1360
     32 H6          9.1649    6.5345   -2.9280 H         1 <0>         0.1048
     33 H7          8.0313    5.1627   -2.8917 H         1 <0>         0.0545
     34 H8          7.4116    6.8308   -2.8490 H         1 <0>         0.0561
     35 H9          3.3291    4.3424   -1.9913 H         1 <0>         0.1267
     36 H10         3.0470    5.1019    1.9445 H         1 <0>         0.1012
     37 H11         3.6689    3.4250    1.9104 H         1 <0>         0.0960
     38 H12         0.9723    3.9070   -0.9990 H         1 <0>         0.0803
     39 H13         0.8082    3.9669    0.7724 H         1 <0>         0.0859
     40 H14         1.9345    1.7220    0.9021 H         1 <0>         0.0913
     41 H15        -0.5449    1.8878   -0.8730 H         1 <0>         0.0890
     42 H16        -0.5279    1.8782    0.9076 H         1 <0>         0.1138
     43 H17         0.5163   -0.3652    0.8927 H         1 <0>         0.1302
     44 H18        -1.0206   -0.3811   -0.0047 H         1 <0>         0.1289
     45 H19         2.6078   -0.3873   -0.3085 H         1 <0>         0.1287
     46 H20         2.6069   -0.4194   -2.0879 H         1 <0>         0.1280
     47 H21         3.1823    1.8391   -1.2232 H         1 <0>         0.1143
     48 H22         1.6539    1.8646   -2.1357 H         1 <0>         0.0871
     49 H23         1.2325   -2.3999   -0.5281 H         1 <0>         0.1357
     50 H24        -0.4109   -2.2578   -1.1969 H         1 <0>         0.1346
     51 H25        -0.7805   -2.2519   -3.5942 H         1 <0>         0.1309
     52 H26         0.0591   -2.9419   -5.8038 H         1 <0>         0.1361
     53 H27         2.4468   -3.4620   -6.1062 H         1 <0>         0.1358
     54 H28         3.9967   -3.2828   -4.2012 H         1 <0>         0.1359
     55 H29         3.1590   -2.5826   -1.9941 H         1 <0>         0.1304
     56 N1          0.6927   -0.4679   -1.2203 N.4       1 <0>        -0.3921
     57 H30         0.2260   -0.0630   -2.0404 H         1 <0>         0.4253
@<TRIPOS>BOND
     1    1    2 1
     2    1   27 1
     3    1   28 1
     4    1   29 1
     5    2    3 1
     6    3    8 ar
     7    3    4 ar
     8    4    5 ar
     9    4   30 1
    10    5   13 1
    11    5    6 ar
    12    6    7 ar
    13    6   11 1
    14    7    8 ar
    15    7   31 1
    16    8    9 1
    17    9   10 1
    18   10   32 1
    19   10   33 1
    20   10   34 1
    21   11   12 2
    22   11   35 1
    23   12   13 1
    24   12   14 1
    25   13   36 1
    26   13   37 1
    27   14   15 1
    28   14   38 1
    29   14   39 1
    30   15   19 1
    31   15   16 1
    32   15   40 1
    33   16   17 1
    34   16   41 1
    35   16   42 1
    36   17   43 1
    37   17   44 1
    38   17   56 1
    39   18   19 1
    40   18   45 1
    41   18   46 1
    42   18   56 1
    43   19   47 1
    44   19   48 1
    45   20   21 1
    46   20   49 1
    47   20   50 1
    48   20   56 1
    49   21   26 ar
    50   21   22 ar
    51   22   23 ar
    52   22   51 1
    53   23   24 ar
    54   23   52 1
    55   24   25 ar
    56   24   53 1
    57   25   26 ar
    58   25   54 1
    59   26   55 1
    60   56   57 1
@<TRIPOS>MOLECULE
ZINC01530487
   32    32     0     0     0
SMALL
USER_CHARGES

@<TRIPOS>ATOM
      1 C1         -0.0187    1.5258    0.0104 C.3       1 <0>        -0.1596
      2 C2          0.0021   -0.0041    0.0020 C.3       1 <0>         0.1107
      3 O1          0.6709   -0.4649   -1.1737 O.3       1 <0>        -0.7407
      4 P1          0.8773   -2.0258   -1.5102 P.3       1 <0>         2.3093
      5 O2          1.5558   -2.6897   -0.3748 O.2       1 <0>        -0.9857
      6 O3         -0.5563   -2.7158   -1.7567 O.3       1 <0>        -0.7199
      7 C3         -1.4547   -2.2974   -2.7862 C.3       1 <0>         0.0859
      8 C4         -2.7179   -3.1595   -2.7420 C.3       1 <0>        -0.1586
      9 O4          1.7794   -2.1743   -2.8355 O.3       1 <0>        -0.6320
     10 C5          2.1016   -3.4580   -3.1438 C.ar      1 <0>         0.1435
     11 C6          3.2580   -4.0267   -2.6300 C.ar      1 <0>        -0.1103
     12 C7          3.5831   -5.3320   -2.9445 C.ar      1 <0>        -0.0298
     13 C8          2.7571   -6.0716   -3.7706 C.ar      1 <0>        -0.0496
     14 C9          1.6043   -5.5069   -4.2844 C.ar      1 <0>        -0.0315
     15 C10         1.2718   -4.2039   -3.9683 C.ar      1 <0>        -0.1460
     16 N1          3.1078   -7.4698   -4.1060 N.pl3     1 <0>         0.0322
     17 O5          4.1158   -7.9644   -3.6576 O.2       1 <0>        -0.1474
     18 O6          2.3863   -8.1174   -4.8283 O.3       1 <0>        -0.1514
     19 H1          1.0039    1.9031    0.0027 H         1 <0>         0.0715
     20 H2         -0.5459    1.8868   -0.8726 H         1 <0>         0.0664
     21 H3         -0.5289    1.8773    0.9072 H         1 <0>         0.0834
     22 H4          0.5293   -0.3651    0.8851 H         1 <0>         0.0792
     23 H5         -1.0205   -0.3814    0.0098 H         1 <0>         0.0629
     24 H6         -1.7225   -1.2522   -2.6321 H         1 <0>         0.0697
     25 H7         -0.9721   -2.4095   -3.7571 H         1 <0>         0.0640
     26 H8         -3.2005   -3.0475   -1.7711 H         1 <0>         0.0729
     27 H9         -3.4032   -2.8404   -3.5273 H         1 <0>         0.0819
     28 H10        -2.4500   -4.2048   -2.8962 H         1 <0>         0.0724
     29 H11         3.9036   -3.4493   -1.9849 H         1 <0>         0.1665
     30 H12         4.4834   -5.7751   -2.5449 H         1 <0>         0.1694
     31 H13         0.9610   -6.0865   -4.9298 H         1 <0>         0.1672
     32 H14         0.3690   -3.7647   -4.3663 H         1 <0>         0.1537
@<TRIPOS>BOND
     1    1    2 1
     2    1   19 1
     3    1   20 1
     4    1   21 1
     5    2    3 1
     6    2   22 1
     7    2   23 1
     8    3    4 1
     9    4    5 2
    10    4    6 1
    11    4    9 1
    12    6    7 1
    13    7    8 1
    14    7   24 1
    15    7   25 1
    16    8   26 1
    17    8   27 1
    18    8   28 1
    19    9   10 1
    20   10   15 ar
    21   10   11 ar
    22   11   12 ar
    23   11   29 1
    24   12   13 ar
    25   12   30 1
    26   13   14 ar
    27   13   16 1
    28   14   15 ar
    29   14   31 1
    30   15   32 1
    31   16   17 2
    32   16   18 1
@<TRIPOS>MOLECULE
ZINC00011988
   31    33     0     0     0
SMALL
USER_CHARGES
(4S)-9-amino-1,2,3,4-tetrahydroacridin-4-ol
@<TRIPOS>ATOM
      1 C1         -1.7205    2.8148   -5.9034 C.ar      1 <0>        -0.1133
      2 C2         -0.4109    2.3415   -5.8737 C.ar      1 <0>        -0.0253
      3 C3          0.1568    1.9192   -4.7108 C.ar      1 <0>        -0.1550
      4 C4         -0.5848    1.9596   -3.5172 C.ar      1 <0>         0.1892
      5 C5         -1.9149    2.4425   -3.5514 C.ar      1 <0>        -0.1366
      6 C6         -2.4689    2.8688   -4.7660 C.ar      1 <0>        -0.0556
      7 C7         -2.6509    2.4814   -2.3465 C.ar      1 <0>         0.3709
      8 C8         -2.0343    2.0427   -1.1783 C.ar      1 <0>        -0.1973
      9 C9         -0.7318    1.5804   -1.2229 C.ar      1 <0>         0.2295
     10 C10        -0.0127    1.0858    0.0080 C.3       1 <0>         0.1209
     11 H1          0.0021   -0.0041    0.0020 H         1 <0>         0.1097
     12 C11        -0.7164    1.5727    1.2724 C.3       1 <0>        -0.1160
     13 C12        -2.2034    1.2141    1.1677 C.3       1 <0>        -0.1222
     14 C13        -2.8362    2.0983    0.0950 C.3       1 <0>        -0.0766
     15 O1          1.3298    1.5752   -0.0022 O.3       1 <0>        -0.5330
     16 N1         -3.9570    2.9462   -2.3277 N.pl3     1 <0>        -0.7898
     17 H2         -2.1478    3.1434   -6.8392 H         1 <0>         0.1525
     18 H3          0.1632    2.3087   -6.7879 H         1 <0>         0.1545
     19 H4          1.1734    1.5546   -4.7051 H         1 <0>         0.1549
     20 H5         -3.4835    3.2373   -4.8006 H         1 <0>         0.1478
     21 H6         -0.2818    1.0852    2.1451 H         1 <0>         0.1016
     22 H7         -0.6048    2.6533    1.3615 H         1 <0>         0.0895
     23 H8         -2.3097    0.1657    0.8893 H         1 <0>         0.0792
     24 H9         -2.6923    1.3911    2.1258 H         1 <0>         0.0988
     25 H10        -3.8505    1.7521   -0.1036 H         1 <0>         0.0894
     26 H11        -2.8713    3.1275    0.4523 H         1 <0>         0.0964
     27 H12         1.8433    1.2990   -0.7737 H         1 <0>         0.3766
     28 H13        -4.4520    2.9683   -1.4938 H         1 <0>         0.4276
     29 H14        -4.3758    3.2493   -3.1485 H         1 <0>         0.4234
     30 N2          0.0224    1.5232   -2.3608 N.ar      1 <0>        -0.5499
     31 H15         0.9881    1.1744   -2.3540 H         1 <0>         0.4584
@<TRIPOS>BOND
     1    1    6 ar
     2    1    2 ar
     3    1   17 1
     4    2    3 ar
     5    2   18 1
     6    3    4 ar
     7    3   19 1
     8    4    5 ar
     9    4   30 ar
    10    5    6 ar
    11    5    7 ar
    12    6   20 1
    13    7    8 ar
    14    7   16 1
    15    8   14 1
    16    8    9 ar
    17    9   10 1
    18    9   30 ar
    19   10   11 1
    20   10   12 1
    21   10   15 1
    22   12   13 1
    23   12   21 1
    24   12   22 1
    25   13   14 1
    26   13   23 1
    27   13   24 1
    28   14   25 1
    29   14   26 1
    30   15   27 1
    31   16   28 1
    32   16   29 1
    33   30   31 1
@<TRIPOS>MOLECULE
ZINC03776165
   31    33     0     0     0
SMALL
USER_CHARGES
9-amino-1,2,3,4-tetrahydroacridin-4-ol
@<TRIPOS>ATOM
      1 C1         -1.9521    7.7722   -2.3532 C.ar      1 <0>        -0.1129
      2 C2         -2.0292    7.0201   -3.5229 C.ar      1 <0>        -0.0259
      3 C3         -1.8082    5.6771   -3.5099 C.ar      1 <0>        -0.1548
      4 C4         -1.4965    5.0328   -2.2999 C.ar      1 <0>         0.1873
      5 C5         -1.4189    5.8007   -1.1134 C.ar      1 <0>        -0.1355
      6 C6         -1.6525    7.1816   -1.1623 C.ar      1 <0>        -0.0563
      7 C7         -1.1041    5.1443    0.0970 C.ar      1 <0>         0.3689
      8 C8         -0.8830    3.7704    0.0682 C.ar      1 <0>        -0.1879
      9 C9         -0.9801    3.0856   -1.1301 C.ar      1 <0>         0.2217
     10 C10        -0.7595    1.5957   -1.2221 C.3       1 <0>         0.1239
     11 H1         -0.1751    1.3735   -2.1150 H         1 <0>         0.0973
     12 C11        -0.0127    1.0858    0.0080 C.3       1 <0>        -0.1176
     13 C12        -0.7389    1.5845    1.2629 C.3       1 <0>        -0.1237
     14 C13        -0.5362    3.0938    1.3680 C.3       1 <0>        -0.0769
     15 O1         -2.0244    0.9369   -1.3120 O.3       1 <0>        -0.5300
     16 N1         -1.0173    5.8520    1.2860 N.pl3     1 <0>        -0.7895
     17 H2         -2.1322    8.8365   -2.3905 H         1 <0>         0.1524
     18 H3         -2.2686    7.5103   -4.4550 H         1 <0>         0.1542
     19 H4         -1.8716    5.1085   -4.4259 H         1 <0>         0.1547
     20 H5         -1.5959    7.7743   -0.2613 H         1 <0>         0.1476
     21 H6          0.0021   -0.0041    0.0020 H         1 <0>         0.1021
     22 H7          1.0088    1.4661    0.0003 H         1 <0>         0.0934
     23 H8         -1.8035    1.3649    1.1828 H         1 <0>         0.0839
     24 H9         -0.3274    1.0937    2.1448 H         1 <0>         0.0916
     25 H10         0.5066    3.2969    1.6118 H         1 <0>         0.0948
     26 H11        -1.1731    3.4884    2.1597 H         1 <0>         0.0881
     27 H12        -2.5571    1.2103   -2.0713 H         1 <0>         0.3835
     28 H13        -1.1736    6.8093    1.2931 H         1 <0>         0.4233
     29 H14        -0.8004    5.3899    2.1108 H         1 <0>         0.4278
     30 N2         -1.2799    3.6730   -2.3258 N.ar      1 <0>        -0.5485
     31 H15        -1.3406    3.1310   -3.1957 H         1 <0>         0.4631
@<TRIPOS>BOND
     1    1    6 ar
     2    1    2 ar
     3    1   17 1
     4    2    3 ar
     5    2   18 1
     6    3    4 ar
     7    3   19 1
     8    4    5 ar
     9    4   30 ar
    10    5    6 ar
    11    5    7 ar
    12    6   20 1
    13    7    8 ar
    14    7   16 1
    15    8   14 1
    16    8    9 ar
    17    9   10 1
    18    9   30 ar
    19   10   11 1
    20   10   12 1
    21   10   15 1
    22   12   13 1
    23   12   21 1
    24   12   22 1
    25   13   14 1
    26   13   23 1
    27   13   24 1
    28   14   25 1
    29   14   26 1
    30   15   27 1
    31   16   28 1
    32   16   29 1
    33   30   31 1
@<TRIPOS>MOLECULE
ZINC36294563
   51    50     0     0     0
SMALL
USER_CHARGES

@<TRIPOS>ATOM
      1 C1         -0.0187    1.5258    0.0104 C.3       1 <0>        -0.1543
      2 C2          0.0021   -0.0041    0.0020 C.3       1 <0>        -0.1261
      3 C3          0.7421   -0.5109    1.2415 C.3       1 <0>        -0.1213
      4 C4          0.7628   -2.0407    1.2331 C.3       1 <0>        -0.1212
      5 C5          1.5028   -2.5476    2.4727 C.3       1 <0>        -0.1206
      6 C6          1.5236   -4.0774    2.4642 C.3       1 <0>        -0.1205
      7 C7          2.2636   -4.5842    3.7038 C.3       1 <0>        -0.1206
      8 C8          2.2843   -6.1141    3.6954 C.3       1 <0>        -0.1203
      9 C9          3.0243   -6.6209    4.9349 C.3       1 <0>        -0.1234
     10 C10         3.0450   -8.1508    4.9265 C.3       1 <0>        -0.1151
     11 C11         3.7850   -8.6576    6.1660 C.3       1 <0>        -0.1171
     12 C12         3.8058  -10.1874    6.1576 C.3       1 <0>        -0.7256
     13 P1          4.6875  -10.7913    7.6345 P.3       1 <0>         2.2074
     14 O1          3.9947  -10.3140    8.8521 O.2       1 <0>        -0.9842
     15 O2          4.7093  -12.4012    7.6256 O.3       1 <0>        -0.7243
     16 C13         5.3289  -13.1768    8.6535 C.3       1 <0>         0.1331
     17 C14         4.2829  -14.0774    9.3135 C.3       1 <0>        -0.1691
     18 C15         6.4344  -14.0412    8.0439 C.3       1 <0>        -0.1751
     19 F1          6.2542  -10.2133    7.6226 F         1 <0>        -0.3644
     20 H1          1.0039    1.9031    0.0027 H         1 <0>         0.0534
     21 H2         -0.5459    1.8868   -0.8726 H         1 <0>         0.0535
     22 H3         -0.5289    1.8773    0.9072 H         1 <0>         0.0535
     23 H4         -1.0205   -0.3814    0.0098 H         1 <0>         0.0602
     24 H5          0.5123   -0.3556   -0.8948 H         1 <0>         0.0601
     25 H6          1.7647   -0.1336    1.2338 H         1 <0>         0.0607
     26 H7          0.2319   -0.1594    2.1383 H         1 <0>         0.0608
     27 H8         -0.2598   -2.4180    1.2409 H         1 <0>         0.0604
     28 H9          1.2730   -2.3923    0.3363 H         1 <0>         0.0603
     29 H10         2.5254   -2.1703    2.4649 H         1 <0>         0.0609
     30 H11         0.9926   -2.1961    3.3695 H         1 <0>         0.0611
     31 H12         0.5010   -4.4547    2.4720 H         1 <0>         0.0603
     32 H13         2.0337   -4.4289    1.5675 H         1 <0>         0.0601
     33 H14         3.2861   -4.2070    3.6960 H         1 <0>         0.0617
     34 H15         1.7534   -4.2327    4.6006 H         1 <0>         0.0621
     35 H16         1.2617   -6.4914    3.7031 H         1 <0>         0.0608
     36 H17         2.7945   -6.4656    2.7986 H         1 <0>         0.0603
     37 H18         4.0469   -6.2436    4.9271 H         1 <0>         0.0648
     38 H19         2.5141   -6.2694    5.8317 H         1 <0>         0.0662
     39 H20         2.0224   -8.5280    4.9342 H         1 <0>         0.0634
     40 H21         3.5552   -8.5023    4.0297 H         1 <0>         0.0613
     41 H22         4.8076   -8.2803    6.1583 H         1 <0>         0.0735
     42 H23         3.2748   -8.3061    7.0628 H         1 <0>         0.0872
     43 H24         2.7832  -10.5647    6.1653 H         1 <0>         0.1208
     44 H25         4.3160  -10.5389    5.2608 H         1 <0>         0.1018
     45 H26         5.7592  -12.5110    9.4016 H         1 <0>         0.0721
     46 H27         3.8526  -14.7431    8.5654 H         1 <0>         0.0700
     47 H28         4.7555  -14.6690   10.0976 H         1 <0>         0.0800
     48 H29         3.4953  -13.4616    9.7478 H         1 <0>         0.0712
     49 H30         6.0041  -14.7069    7.2957 H         1 <0>         0.0728
     50 H31         7.1797  -13.3996    7.5737 H         1 <0>         0.0642
     51 H32         6.9071  -14.6328    8.8279 H         1 <0>         0.0831
@<TRIPOS>BOND
     1    1    2 1
     2    1   20 1
     3    1   21 1
     4    1   22 1
     5    2    3 1
     6    2   23 1
     7    2   24 1
     8    3    4 1
     9    3   25 1
    10    3   26 1
    11    4    5 1
    12    4   27 1
    13    4   28 1
    14    5    6 1
    15    5   29 1
    16    5   30 1
    17    6    7 1
    18    6   31 1
    19    6   32 1
    20    7    8 1
    21    7   33 1
    22    7   34 1
    23    8    9 1
    24    8   35 1
    25    8   36 1
    26    9   10 1
    27    9   37 1
    28    9   38 1
    29   10   11 1
    30   10   39 1
    31   10   40 1
    32   11   12 1
    33   11   41 1
    34   11   42 1
    35   12   13 1
    36   12   43 1
    37   12   44 1
    38   13   14 2
    39   13   15 1
    40   13   19 1
    41   15   16 1
    42   16   17 1
    43   16   18 1
    44   16   45 1
    45   17   46 1
    46   17   47 1
    47   17   48 1
    48   18   49 1
    49   18   50 1
    50   18   51 1
@<TRIPOS>MOLECULE
ZINC36294566
   51    50     0     0     0
SMALL
USER_CHARGES

@<TRIPOS>ATOM
      1 C1         -0.0187    1.5258    0.0104 C.3       1 <0>        -0.1543
      2 C2          0.0021   -0.0041    0.0020 C.3       1 <0>        -0.1261
      3 C3          0.7421   -0.5109    1.2415 C.3       1 <0>        -0.1213
      4 C4          0.7628   -2.0407    1.2331 C.3       1 <0>        -0.1212
      5 C5          1.5028   -2.5476    2.4727 C.3       1 <0>        -0.1206
      6 C6          1.5236   -4.0774    2.4642 C.3       1 <0>        -0.1205
      7 C7          2.2636   -4.5842    3.7038 C.3       1 <0>        -0.1206
      8 C8          2.2843   -6.1141    3.6954 C.3       1 <0>        -0.1203
      9 C9          3.0243   -6.6209    4.9349 C.3       1 <0>        -0.1233
     10 C10         3.0450   -8.1508    4.9265 C.3       1 <0>        -0.1151
     11 C11         3.7850   -8.6576    6.1660 C.3       1 <0>        -0.1171
     12 C12         3.8058  -10.1874    6.1576 C.3       1 <0>        -0.7256
     13 P1          4.6875  -10.7913    7.6345 P.3       1 <0>         2.2074
     14 O1          6.0760  -10.2791    7.6240 O.2       1 <0>        -0.9842
     15 O2          4.7093  -12.4012    7.6256 O.3       1 <0>        -0.7243
     16 C13         5.3289  -13.1768    8.6535 C.3       1 <0>         0.1331
     17 C14         4.2828  -14.0773    9.3136 C.3       1 <0>        -0.1751
     18 C15         6.4344  -14.0412    8.0439 C.3       1 <0>        -0.1691
     19 F1          3.9058  -10.2527    9.0085 F         1 <0>        -0.3644
     20 H1          1.0039    1.9031    0.0027 H         1 <0>         0.0535
     21 H2         -0.5459    1.8868   -0.8726 H         1 <0>         0.0535
     22 H3         -0.5289    1.8773    0.9072 H         1 <0>         0.0534
     23 H4         -1.0205   -0.3814    0.0098 H         1 <0>         0.0601
     24 H5          0.5123   -0.3556   -0.8948 H         1 <0>         0.0602
     25 H6          1.7647   -0.1336    1.2338 H         1 <0>         0.0608
     26 H7          0.2319   -0.1594    2.1383 H         1 <0>         0.0607
     27 H8         -0.2598   -2.4180    1.2409 H         1 <0>         0.0603
     28 H9          1.2730   -2.3923    0.3363 H         1 <0>         0.0604
     29 H10         2.5254   -2.1703    2.4649 H         1 <0>         0.0610
     30 H11         0.9926   -2.1961    3.3695 H         1 <0>         0.0609
     31 H12         0.5010   -4.4547    2.4720 H         1 <0>         0.0601
     32 H13         2.0337   -4.4289    1.5675 H         1 <0>         0.0603
     33 H14         3.2861   -4.2070    3.6960 H         1 <0>         0.0621
     34 H15         1.7534   -4.2327    4.6006 H         1 <0>         0.0617
     35 H16         1.2617   -6.4914    3.7031 H         1 <0>         0.0603
     36 H17         2.7945   -6.4656    2.7986 H         1 <0>         0.0608
     37 H18         4.0469   -6.2436    4.9271 H         1 <0>         0.0663
     38 H19         2.5141   -6.2694    5.8317 H         1 <0>         0.0648
     39 H20         2.0224   -8.5280    4.9342 H         1 <0>         0.0613
     40 H21         3.5552   -8.5023    4.0297 H         1 <0>         0.0634
     41 H22         4.8076   -8.2803    6.1583 H         1 <0>         0.0872
     42 H23         3.2748   -8.3061    7.0628 H         1 <0>         0.0735
     43 H24         2.7832  -10.5647    6.1653 H         1 <0>         0.1018
     44 H25         4.3160  -10.5389    5.2608 H         1 <0>         0.1208
     45 H26         5.7592  -12.5110    9.4016 H         1 <0>         0.0720
     46 H27         3.8525  -14.7431    8.5654 H         1 <0>         0.0728
     47 H28         4.7555  -14.6690   10.0976 H         1 <0>         0.0831
     48 H29         3.4953  -13.4615    9.7479 H         1 <0>         0.0642
     49 H30         6.0041  -14.7070    7.2958 H         1 <0>         0.0700
     50 H31         7.1796  -13.3996    7.5737 H         1 <0>         0.0712
     51 H32         6.9070  -14.6328    8.8279 H         1 <0>         0.0800
@<TRIPOS>BOND
     1    1    2 1
     2    1   20 1
     3    1   21 1
     4    1   22 1
     5    2    3 1
     6    2   23 1
     7    2   24 1
     8    3    4 1
     9    3   25 1
    10    3   26 1
    11    4    5 1
    12    4   27 1
    13    4   28 1
    14    5    6 1
    15    5   29 1
    16    5   30 1
    17    6    7 1
    18    6   31 1
    19    6   32 1
    20    7    8 1
    21    7   33 1
    22    7   34 1
    23    8    9 1
    24    8   35 1
    25    8   36 1
    26    9   10 1
    27    9   37 1
    28    9   38 1
    29   10   11 1
    30   10   39 1
    31   10   40 1
    32   11   12 1
    33   11   41 1
    34   11   42 1
    35   12   13 1
    36   12   43 1
    37   12   44 1
    38   13   14 2
    39   13   15 1
    40   13   19 1
    41   15   16 1
    42   16   17 1
    43   16   18 1
    44   16   45 1
    45   17   46 1
    46   17   47 1
    47   17   48 1
    48   18   49 1
    49   18   50 1
    50   18   51 1
@<TRIPOS>MOLECULE
ZINC13744633
   45    47     0     0     0
SMALL
USER_CHARGES
(2R)-5,6-dimethoxy-2-(4-piperidylmethyl)indan-1-one
@<TRIPOS>ATOM
      1 C1          3.2492    6.8742   -0.5536 C.3       1 <0>         0.0216
      2 O1          3.8228    5.5654   -0.5387 O.3       1 <0>        -0.2949
      3 C2          2.9656    4.5180   -0.4351 C.ar      1 <0>         0.1502
      4 C3          1.5991    4.7458   -0.3489 C.ar      1 <0>        -0.1809
      5 C4          0.7208    3.6868   -0.2424 C.ar      1 <0>        -0.0434
      6 C5          1.2041    2.3767   -0.2207 C.ar      1 <0>        -0.1984
      7 C6          2.5885    2.1493   -0.3086 C.ar      1 <0>        -0.1050
      8 C7          3.4584    3.2133   -0.4147 C.ar      1 <0>         0.0907
      9 O2          4.7974    2.9909   -0.4991 O.3       1 <0>        -0.3011
     10 C8          5.2320    1.6298   -0.4718 C.3       1 <0>         0.0222
     11 C9          0.0971    1.4177   -0.1019 C.2       1 <0>         0.4109
     12 O3          0.2034    0.2102   -0.0586 O.2       1 <0>        -0.4362
     13 C10        -1.1956    2.1950   -0.0497 C.3       1 <0>        -0.1292
     14 H1         -1.6734    1.9902    0.8045 H         1 <0>         0.1028
     15 C11        -0.7856    3.6716   -0.1357 C.3       1 <0>        -0.0747
     16 C12        -2.0878    1.8201   -1.2346 C.3       1 <0>        -0.1048
     17 C13        -3.4438    2.5143   -1.0918 C.3       1 <0>        -0.1012
     18 C14        -4.1767    1.9585    0.1323 C.3       1 <0>        -0.1497
     19 C15        -5.5573    2.6112    0.2340 C.3       1 <0>        -0.0025
     20 C16        -5.6626    2.9001   -2.1697 C.3       1 <0>        -0.0022
     21 C17        -4.2859    2.2549   -2.3441 C.3       1 <0>        -0.1452
     22 H2          2.5723    6.9645   -1.4031 H         1 <0>         0.0593
     23 H3          2.6959    7.0389    0.3710 H         1 <0>         0.0598
     24 H4          4.0419    7.6173   -0.6399 H         1 <0>         0.1084
     25 H5          1.2213    5.7575   -0.3647 H         1 <0>         0.1435
     26 H6          2.9711    1.1395   -0.2926 H         1 <0>         0.1441
     27 H7          4.9165    1.1664    0.4629 H         1 <0>         0.0581
     28 H8          4.7921    1.0911   -1.3111 H         1 <0>         0.0578
     29 H9          6.3188    1.5939   -0.5465 H         1 <0>         0.1081
     30 H10        -1.1029    4.2046    0.7606 H         1 <0>         0.0932
     31 H11        -1.2284    4.1298   -1.0200 H         1 <0>         0.0930
     32 H12        -1.6125    2.1386   -2.1624 H         1 <0>         0.0829
     33 H13        -2.2328    0.7399   -1.2529 H         1 <0>         0.0826
     34 H14        -3.2929    3.5869   -0.9701 H         1 <0>         0.0948
     35 H15        -4.2920    0.8796    0.0286 H         1 <0>         0.0916
     36 H16        -3.6019    2.1788    1.0318 H         1 <0>         0.1135
     37 H17        -5.4408    3.6884    0.3526 H         1 <0>         0.1298
     38 H18        -6.0879    2.2063    1.0957 H         1 <0>         0.1322
     39 H19        -5.5456    3.9760   -2.0398 H         1 <0>         0.1299
     40 H20        -6.2697    2.7051   -3.0538 H         1 <0>         0.1322
     41 H21        -3.7889    2.6869   -3.2127 H         1 <0>         0.1134
     42 H22        -4.4023    1.1808   -2.4882 H         1 <0>         0.0906
     43 N1         -6.3343    2.3273   -0.9877 N.4       1 <0>        -0.5170
     44 H23        -7.2699    2.7404   -0.8971 H         1 <0>         0.4365
     45 H24        -6.4190    1.3110   -1.1062 H         1 <0>         0.4327
@<TRIPOS>BOND
     1    1    2 1
     2    1   22 1
     3    1   23 1
     4    1   24 1
     5    2    3 1
     6    3    8 ar
     7    3    4 ar
     8    4    5 ar
     9    4   25 1
    10    5   15 1
    11    5    6 ar
    12    6    7 ar
    13    6   11 1
    14    7    8 ar
    15    7   26 1
    16    8    9 1
    17    9   10 1
    18   10   27 1
    19   10   28 1
    20   10   29 1
    21   11   12 2
    22   11   13 1
    23   13   14 1
    24   13   15 1
    25   13   16 1
    26   15   30 1
    27   15   31 1
    28   16   17 1
    29   16   32 1
    30   16   33 1
    31   17   21 1
    32   17   18 1
    33   17   34 1
    34   18   19 1
    35   18   35 1
    36   18   36 1
    37   19   37 1
    38   19   38 1
    39   19   43 1
    40   20   21 1
    41   20   39 1
    42   20   40 1
    43   20   43 1
    44   21   41 1
    45   21   42 1
    46   43   44 1
    47   43   45 1
@<TRIPOS>MOLECULE
ZINC13744635
   45    47     0     0     0
SMALL
USER_CHARGES
(2S)-5,6-dimethoxy-2-(4-piperidylmethyl)indan-1-one
@<TRIPOS>ATOM
      1 C1          4.4114    9.6875    2.9328 C.3       1 <0>         0.0207
      2 O1          4.8620    8.5442    3.6621 O.3       1 <0>        -0.2947
      3 C2          4.5780    7.3258    3.1352 C.ar      1 <0>         0.1537
      4 C3          3.8791    7.2330    1.9395 C.ar      1 <0>        -0.1818
      5 C4          3.5870    5.9985    1.3965 C.ar      1 <0>        -0.0372
      6 C5          3.9940    4.8331    2.0496 C.ar      1 <0>        -0.2050
      7 C6          4.7011    4.9305    3.2606 C.ar      1 <0>        -0.1042
      8 C7          4.9885    6.1679    3.7956 C.ar      1 <0>         0.0881
      9 O2          5.6728    6.2598    4.9673 O.3       1 <0>        -0.3009
     10 C8          6.0625    5.0335    5.5889 C.3       1 <0>         0.0230
     11 C9          3.5774    3.6432    1.2947 C.2       1 <0>         0.4161
     12 O3          3.7860    2.4909    1.6108 O.2       1 <0>        -0.4473
     13 C10         2.8440    4.1031    0.0583 C.3       1 <0>        -0.1296
     14 H1          3.3164    3.7636   -0.7551 H         1 <0>         0.1029
     15 C11         2.8522    5.6363    0.1277 C.3       1 <0>        -0.0776
     16 C12         1.4064    3.5796    0.0693 C.3       1 <0>        -0.1011
     17 C13         1.4133    2.0654   -0.1496 C.3       1 <0>        -0.1158
     18 C14         1.9304    1.7541   -1.5568 C.3       1 <0>        -0.1448
     19 C15         1.8776    0.2428   -1.7917 C.3       1 <0>        -0.0030
     20 C16        -0.0070    0.0165   -0.2853 C.3       1 <0>        -0.0027
     21 C17        -0.0106    1.5211   -0.0055 C.3       1 <0>        -0.1420
     22 H2          4.8613    9.6856    1.9400 H         1 <0>         0.0608
     23 H3          3.3258    9.6545    2.8398 H         1 <0>         0.0605
     24 H4          4.7032   10.5944    3.4623 H         1 <0>         0.1090
     25 H5          3.5626    8.1318    1.4313 H         1 <0>         0.1452
     26 H6          5.0195    4.0345    3.7727 H         1 <0>         0.1429
     27 H7          6.5991    5.2490    6.5128 H         1 <0>         0.1077
     28 H8          5.1750    4.4420    5.8136 H         1 <0>         0.0568
     29 H9          6.7107    4.4742    4.9142 H         1 <0>         0.0573
     30 H10         3.3728    6.0476   -0.7370 H         1 <0>         0.0968
     31 H11         1.8307    6.0149    0.1655 H         1 <0>         0.0971
     32 H12         0.8390    4.0594   -0.7282 H         1 <0>         0.0857
     33 H13         0.9448    3.8057    1.0304 H         1 <0>         0.0805
     34 H14         2.0605    1.5926    0.5891 H         1 <0>         0.1064
     35 H15         2.9592    2.1015   -1.6516 H         1 <0>         0.1108
     36 H16         1.3059    2.2590   -2.2939 H         1 <0>         0.0897
     37 H17         2.2317    0.0191   -2.7980 H         1 <0>         0.1318
     38 H18         2.5130   -0.2604   -1.0629 H         1 <0>         0.1306
     39 H19        -1.0218   -0.3716   -0.1976 H         1 <0>         0.1320
     40 H20         0.6373   -0.4856    0.4363 H         1 <0>         0.1300
     41 H21        -0.6656    2.0222   -0.7182 H         1 <0>         0.0889
     42 H22        -0.3691    1.7019    1.0078 H         1 <0>         0.1113
     43 N1          0.4885   -0.2341   -1.6522 N.4       1 <0>        -0.5157
     44 H23         0.4561   -1.2423   -1.8442 H         1 <0>         0.4361
     45 H24        -0.1085    0.2617   -2.3246 H         1 <0>         0.4313
@<TRIPOS>BOND
     1    1    2 1
     2    1   22 1
     3    1   23 1
     4    1   24 1
     5    2    3 1
     6    3    8 ar
     7    3    4 ar
     8    4    5 ar
     9    4   25 1
    10    5   15 1
    11    5    6 ar
    12    6    7 ar
    13    6   11 1
    14    7    8 ar
    15    7   26 1
    16    8    9 1
    17    9   10 1
    18   10   27 1
    19   10   28 1
    20   10   29 1
    21   11   12 2
    22   11   13 1
    23   13   14 1
    24   13   15 1
    25   13   16 1
    26   15   30 1
    27   15   31 1
    28   16   17 1
    29   16   32 1
    30   16   33 1
    31   17   21 1
    32   17   18 1
    33   17   34 1
    34   18   19 1
    35   18   35 1
    36   18   36 1
    37   19   37 1
    38   19   38 1
    39   19   43 1
    40   20   21 1
    41   20   39 1
    42   20   40 1
    43   20   43 1
    44   21   41 1
    45   21   42 1
    46   43   44 1
    47   43   45 1
@<TRIPOS>MOLECULE
ZINC00622264
   65    68     0     0     0
SMALL
USER_CHARGES

@<TRIPOS>ATOM
      1 C1         -0.0325    0.9961   -0.3223 C.3       1 <0>        -0.1897
      2 C2         -0.0791   -0.5278   -0.1935 C.3       1 <0>        -0.0231
      3 N1          0.6441   -0.9392    1.0171 N.4       1 <0>        -0.2653
      4 C3          0.5993   -2.4023    1.1408 C.3       1 <0>        -0.0579
      5 C4          2.0423   -0.4981    0.9260 C.3       1 <0>        -0.0144
      6 C5          2.6988   -1.1339   -0.3010 C.3       1 <0>        -0.1908
      7 C6          0.0137   -0.3288    2.1953 C.3       1 <0>        -0.0080
      8 C7         -1.4425   -0.7883    2.2902 C.3       1 <0>        -0.1738
      9 C8         -2.0990   -0.1525    3.5172 C.3       1 <0>         0.0378
     10 N2         -3.5201   -0.5071    3.5496 N.ar      1 <0>        -0.3467
     11 C9         -4.3856    0.2692    2.8794 C.ar      1 <0>         0.1264
     12 C10        -3.9240    1.3889    2.1703 C.ar      1 <0>        -0.2389
     13 C11        -4.8196    2.1825    1.4830 C.ar      1 <0>         0.2703
     14 C12        -6.1839    1.8832    1.4857 C.ar      1 <0>        -0.1433
     15 C13        -6.6541    0.7997    2.1682 C.ar      1 <0>        -0.0367
     16 C14        -5.7700   -0.0206    2.8717 C.ar      1 <0>        -0.0682
     17 C15        -6.2485   -1.1919    3.6139 C.ar      1 <0>        -0.0155
     18 C16        -7.5957   -1.5478    3.6572 C.ar      1 <0>        -0.0735
     19 C17        -7.9826   -2.6497    4.3645 C.ar      1 <0>        -0.1022
     20 C18        -7.0437   -3.4262    5.0465 C.ar      1 <0>         0.2369
     21 C19        -5.7017   -3.0940    5.0195 C.ar      1 <0>        -0.1624
     22 C20        -5.2885   -1.9710    4.3009 C.ar      1 <0>        -0.0610
     23 C21        -3.8813   -1.5712    4.2285 C.ar      1 <0>         0.3298
     24 C22        -2.8553   -2.3730    4.9331 C.ar      1 <0>        -0.1302
     25 C23        -2.6758   -3.7187    4.6119 C.ar      1 <0>        -0.0721
     26 C24        -1.7180   -4.4607    5.2721 C.ar      1 <0>        -0.1096
     27 C25        -0.9369   -3.8729    6.2511 C.ar      1 <0>        -0.0720
     28 C26        -1.1101   -2.5388    6.5742 C.ar      1 <0>        -0.1068
     29 C27        -2.0603   -1.7846    5.9169 C.ar      1 <0>        -0.0935
     30 N3         -7.4640   -4.5489    5.7631 N.pl3     1 <0>        -0.8547
     31 N4         -4.3576    3.2956    0.7785 N.pl3     1 <0>        -0.8528
     32 H1          1.0050    1.3234   -0.3899 H         1 <0>         0.0870
     33 H2         -0.5691    1.3014   -1.2206 H         1 <0>         0.1083
     34 H3         -0.5002    1.4490    0.5519 H         1 <0>         0.0751
     35 H4         -1.1166   -0.8551   -0.1259 H         1 <0>         0.1254
     36 H5          0.3886   -0.9807   -1.0677 H         1 <0>         0.1373
     37 H6          1.0670   -2.8553    0.2666 H         1 <0>         0.1311
     38 H7          1.1359   -2.7076    2.0391 H         1 <0>         0.1262
     39 H8         -0.4382   -2.7297    1.2084 H         1 <0>         0.1187
     40 H9          2.0755    0.5876    0.8343 H         1 <0>         0.1322
     41 H10         2.5789   -0.8034    1.8244 H         1 <0>         0.1313
     42 H11         3.7362   -0.8065   -0.3686 H         1 <0>         0.1100
     43 H12         2.6656   -2.2195   -0.2093 H         1 <0>         0.0832
     44 H13         2.1622   -0.8286   -1.1993 H         1 <0>         0.0820
     45 H14         0.5503   -0.6341    3.0936 H         1 <0>         0.1382
     46 H15         0.0469    0.7568    2.1036 H         1 <0>         0.1380
     47 H16        -1.9791   -0.4830    1.3919 H         1 <0>         0.1072
     48 H17        -1.4757   -1.8739    2.3819 H         1 <0>         0.1060
     49 H18        -1.6123   -0.5194    4.4208 H         1 <0>         0.1400
     50 H19        -1.9962    0.9313    3.4637 H         1 <0>         0.1336
     51 H20        -2.8711    1.6289    2.1628 H         1 <0>         0.1391
     52 H21        -6.8720    2.5147    0.9434 H         1 <0>         0.1512
     53 H22        -7.7107    0.5763    2.1644 H         1 <0>         0.1562
     54 H23        -8.3305   -0.9541    3.1337 H         1 <0>         0.1538
     55 H24        -9.0268   -2.9237    4.3971 H         1 <0>         0.1517
     56 H25        -4.9799   -3.6981    5.5492 H         1 <0>         0.1461
     57 H26        -3.2854   -4.1788    3.8483 H         1 <0>         0.1391
     58 H27        -1.5781   -5.5025    5.0244 H         1 <0>         0.1450
     59 H28        -0.1890   -4.4580    6.7656 H         1 <0>         0.1433
     60 H29        -0.4973   -2.0857    7.3394 H         1 <0>         0.1450
     61 H30        -2.1913   -0.7421    6.1666 H         1 <0>         0.1355
     62 H31        -8.4043   -4.7859    5.7854 H         1 <0>         0.4133
     63 H32        -6.8156   -5.0915    6.2386 H         1 <0>         0.4100
     64 H33        -3.4111    3.5080    0.7738 H         1 <0>         0.4062
     65 H34        -4.9830    3.8567    0.2938 H         1 <0>         0.4157
@<TRIPOS>BOND
     1    1    2 1
     2    1   32 1
     3    1   33 1
     4    1   34 1
     5    2    3 1
     6    2   35 1
     7    2   36 1
     8    3    4 1
     9    3    5 1
    10    3    7 1
    11    4   37 1
    12    4   38 1
    13    4   39 1
    14    5    6 1
    15    5   40 1
    16    5   41 1
    17    6   42 1
    18    6   43 1
    19    6   44 1
    20    7    8 1
    21    7   45 1
    22    7   46 1
    23    8    9 1
    24    8   47 1
    25    8   48 1
    26    9   10 1
    27    9   49 1
    28    9   50 1
    29   10   23 ar
    30   10   11 ar
    31   11   16 ar
    32   11   12 ar
    33   12   13 ar
    34   12   51 1
    35   13   14 ar
    36   13   31 1
    37   14   15 ar
    38   14   52 1
    39   15   16 ar
    40   15   53 1
    41   16   17 ar
    42   17   22 ar
    43   17   18 ar
    44   18   19 ar
    45   18   54 1
    46   19   20 ar
    47   19   55 1
    48   20   21 ar
    49   20   30 1
    50   21   22 ar
    51   21   56 1
    52   22   23 ar
    53   23   24 1
    54   24   29 ar
    55   24   25 ar
    56   25   26 ar
    57   25   57 1
    58   26   27 ar
    59   26   58 1
    60   27   28 ar
    61   27   59 1
    62   28   29 ar
    63   28   60 1
    64   29   61 1
    65   30   62 1
    66   30   63 1
    67   31   64 1
    68   31   65 1
@<TRIPOS>MOLECULE
ZINC02046797
   60    63     0     0     0
SMALL
USER_CHARGES
(1S,2S)-2-[(1-benzyl-4-piperidyl)methyl]-5,6-dimethoxy-indan-1-ol
@<TRIPOS>ATOM
      1 C1          4.2044    1.6169    5.4566 C.3       1 <0>         0.0248
      2 O1          4.2744    0.5671    4.4896 O.3       1 <0>        -0.3019
      3 C2          3.5945    0.7528    3.3265 C.ar      1 <0>         0.1148
      4 C3          2.8762    1.9182    3.1204 C.ar      1 <0>        -0.1654
      5 C4          2.1827    2.1102    1.9369 C.ar      1 <0>        -0.0816
      6 C5          2.2063    1.1353    0.9565 C.ar      1 <0>        -0.1434
      7 C6          2.9234   -0.0322    1.1586 C.ar      1 <0>        -0.1495
      8 C7          3.6183   -0.2281    2.3398 C.ar      1 <0>         0.1018
      9 O2          4.3215   -1.3756    2.5355 O.3       1 <0>        -0.3027
     10 C8          4.2999   -2.3378    1.4792 C.3       1 <0>         0.0248
     11 C9          1.3769    1.5819   -0.2288 C.3       1 <0>         0.1553
     12 H1          1.8999    1.3641   -1.1599 H         1 <0>         0.0648
     13 C10         1.2063    3.1058   -0.0541 C.3       1 <0>        -0.0810
     14 H2          1.9975    3.6463   -0.5736 H         1 <0>         0.0923
     15 C11         1.3360    3.2778    1.4768 C.3       1 <0>        -0.0714
     16 C12        -0.1725    3.5579   -0.5393 C.3       1 <0>        -0.0938
     17 C13        -0.2587    5.0843   -0.4806 C.3       1 <0>        -0.1031
     18 C14        -1.6807    5.5305   -0.8318 C.3       1 <0>        -0.1409
     19 C15        -1.7447    7.0596   -0.8324 C.3       1 <0>        -0.0065
     20 C16         0.5888    7.2157   -1.4670 C.3       1 <0>        -0.0019
     21 C17         0.7229    5.6913   -1.4869 C.3       1 <0>        -0.1469
     22 C18        -0.9202    9.0493   -1.9377 C.3       1 <0>         0.0487
     23 C19        -2.2669    9.3828   -2.5261 C.ar      1 <0>        -0.1626
     24 C20        -2.4154    9.4883   -3.8964 C.ar      1 <0>        -0.0947
     25 C21        -3.6517    9.7899   -4.4364 C.ar      1 <0>        -0.1131
     26 C22        -4.7373    9.9954   -3.6056 C.ar      1 <0>        -0.0843
     27 C23        -4.5876    9.8946   -2.2351 C.ar      1 <0>        -0.1137
     28 C24        -3.3523    9.5887   -1.6953 C.ar      1 <0>        -0.0968
     29 O3          0.1026    0.9354   -0.2139 O.3       1 <0>        -0.5540
     30 H3          4.6054    2.5346    5.0263 H         1 <0>         0.0555
     31 H4          3.1657    1.7752    5.7465 H         1 <0>         0.0561
     32 H5          4.7888    1.3417    6.3346 H         1 <0>         0.1052
     33 H6          2.8565    2.6804    3.8852 H         1 <0>         0.1353
     34 H7          2.9408   -0.7925    0.3917 H         1 <0>         0.1345
     35 H8          3.2725   -2.6517    1.2946 H         1 <0>         0.0557
     36 H9          4.7120   -1.8925    0.5736 H         1 <0>         0.0554
     37 H10         4.8986   -3.2031    1.7636 H         1 <0>         0.1052
     38 H11         0.3530    3.2403    1.9463 H         1 <0>         0.0850
     39 H12         1.8319    4.2199    1.7105 H         1 <0>         0.0741
     40 H13        -0.3236    3.2247   -1.5661 H         1 <0>         0.0734
     41 H14        -0.9424    3.1256    0.0999 H         1 <0>         0.0851
     42 H15        -0.0077    5.4249    0.5240 H         1 <0>         0.0899
     43 H16        -1.9460    5.1556   -1.8203 H         1 <0>         0.0873
     44 H17        -2.3786    5.1363   -0.0931 H         1 <0>         0.1117
     45 H18        -1.4938    7.4331    0.1604 H         1 <0>         0.1287
     46 H19        -2.7521    7.3807   -1.0972 H         1 <0>         0.1279
     47 H20         0.8287    7.5884   -0.4713 H         1 <0>         0.1298
     48 H21         1.2761    7.6502   -2.1929 H         1 <0>         0.1277
     49 H22         1.7411    5.4120   -1.2159 H         1 <0>         0.1129
     50 H23         0.4965    5.3190   -2.4860 H         1 <0>         0.0888
     51 H24        -0.8298    9.5088   -0.9535 H         1 <0>         0.1356
     52 H25        -0.1343    9.4300   -2.5900 H         1 <0>         0.1342
     53 H26        -1.5664    9.3318   -4.5453 H         1 <0>         0.1308
     54 H27        -3.7687    9.8684   -5.5072 H         1 <0>         0.1360
     55 H28        -5.7024   10.2344   -4.0273 H         1 <0>         0.1358
     56 H29        -5.4357   10.0552   -1.5860 H         1 <0>         0.1359
     57 H30        -3.2353    9.5103   -0.6246 H         1 <0>         0.1306
     58 H31         0.1487   -0.0268   -0.2988 H         1 <0>         0.3838
     59 N1         -0.7951    7.5804   -1.8385 N.4       1 <0>        -0.3918
     60 H32        -1.0155    7.1647   -2.7510 H         1 <0>         0.4254
@<TRIPOS>BOND
     1    1    2 1
     2    1   30 1
     3    1   31 1
     4    1   32 1
     5    2    3 1
     6    3    8 ar
     7    3    4 ar
     8    4    5 ar
     9    4   33 1
    10    5   15 1
    11    5    6 ar
    12    6    7 ar
    13    6   11 1
    14    7    8 ar
    15    7   34 1
    16    8    9 1
    17    9   10 1
    18   10   35 1
    19   10   36 1
    20   10   37 1
    21   11   12 1
    22   11   13 1
    23   11   29 1
    24   13   14 1
    25   13   15 1
    26   13   16 1
    27   15   38 1
    28   15   39 1
    29   16   17 1
    30   16   40 1
    31   16   41 1
    32   17   21 1
    33   17   18 1
    34   17   42 1
    35   18   19 1
    36   18   43 1
    37   18   44 1
    38   19   45 1
    39   19   46 1
    40   19   59 1
    41   20   21 1
    42   20   47 1
    43   20   48 1
    44   20   59 1
    45   21   49 1
    46   21   50 1
    47   22   23 1
    48   22   51 1
    49   22   52 1
    50   22   59 1
    51   23   28 ar
    52   23   24 ar
    53   24   25 ar
    54   24   53 1
    55   25   26 ar
    56   25   54 1
    57   26   27 ar
    58   26   55 1
    59   27   28 ar
    60   27   56 1
    61   28   57 1
    62   29   58 1
    63   59   60 1
@<TRIPOS>MOLECULE
ZINC03814291
   60    63     0     0     0
SMALL
USER_CHARGES
2-[(1-benzyl-4-piperidyl)methyl]-5,6-dimethoxy-indan-1-ol
@<TRIPOS>ATOM
      1 C1         -2.8816    2.7317    4.5389 C.3       1 <0>         0.0250
      2 O1         -2.0901    2.3528    3.4111 O.3       1 <0>        -0.3019
      3 C2         -2.6869    1.5698    2.4730 C.ar      1 <0>         0.1109
      4 C3         -4.0057    1.1793    2.6311 C.ar      1 <0>        -0.1614
      5 C4         -4.6144    0.3768    1.6804 C.ar      1 <0>        -0.0922
      6 C5         -3.9061   -0.0321    0.5654 C.ar      1 <0>        -0.1361
      7 C6         -2.5883    0.3610    0.4004 C.ar      1 <0>        -0.1518
      8 C7         -1.9758    1.1628    1.3483 C.ar      1 <0>         0.1060
      9 O2         -0.6816    1.5467    1.1837 O.3       1 <0>        -0.3023
     10 C8         -0.0127    1.0858    0.0080 C.3       1 <0>         0.0243
     11 C9         -4.7881   -0.8935   -0.3132 C.3       1 <0>         0.1546
     12 H1         -5.1574   -0.3157   -1.1606 H         1 <0>         0.0733
     13 C10        -5.9610   -1.3259    0.5920 C.3       1 <0>        -0.0797
     14 H2         -5.7483   -2.2777    1.0787 H         1 <0>         0.0955
     15 C11        -6.0205   -0.1819    1.6263 C.3       1 <0>        -0.0716
     16 C12        -7.2637   -1.4052   -0.2066 C.3       1 <0>        -0.1070
     17 C13        -8.4064   -1.8218    0.7217 C.3       1 <0>        -0.1001
     18 C14        -8.1620   -3.2466    1.2265 C.3       1 <0>        -0.1445
     19 C15        -9.3376   -3.6799    2.1052 C.3       1 <0>        -0.0071
     20 C16       -10.8605   -2.2568    0.8692 C.3       1 <0>        -0.0004
     21 C17        -9.7304   -1.7810   -0.0464 C.3       1 <0>        -0.1437
     22 C18       -11.7093   -4.1650    2.0934 C.3       1 <0>         0.0484
     23 C19       -11.2979   -5.4587    2.7479 C.ar      1 <0>        -0.1605
     24 C20       -11.4819   -6.6577    2.0850 C.ar      1 <0>        -0.0946
     25 C21       -11.1004   -7.8439    2.6835 C.ar      1 <0>        -0.1132
     26 C22       -10.5435   -7.8320    3.9486 C.ar      1 <0>        -0.0845
     27 C23       -10.3644   -6.6334    4.6136 C.ar      1 <0>        -0.1142
     28 C24       -10.7418   -5.4468    4.0134 C.ar      1 <0>        -0.0965
     29 O3         -4.0658   -2.0388   -0.7698 O.3       1 <0>        -0.5592
     30 H3         -3.7522    3.2931    4.1996 H         1 <0>         0.0558
     31 H4         -3.2099    1.8378    5.0692 H         1 <0>         0.0553
     32 H5         -2.2867    3.3533    5.2080 H         1 <0>         0.1051
     33 H6         -4.5604    1.4977    3.5014 H         1 <0>         0.1355
     34 H7         -2.0366    0.0410   -0.4712 H         1 <0>         0.1340
     35 H8          0.0021   -0.0041    0.0020 H         1 <0>         0.0562
     36 H9          1.0099    1.4631    0.0003 H         1 <0>         0.1055
     37 H10        -0.5399    1.4469   -0.8751 H         1 <0>         0.0558
     38 H11        -6.3112   -0.5696    2.6027 H         1 <0>         0.0769
     39 H12        -6.7210    0.5875    1.3017 H         1 <0>         0.0847
     40 H13        -7.4846   -0.4296   -0.6394 H         1 <0>         0.0775
     41 H14        -7.1568   -2.1407   -1.0040 H         1 <0>         0.0776
     42 H15        -8.4554   -1.1376    1.5688 H         1 <0>         0.0916
     43 H16        -8.0738   -3.9236    0.3768 H         1 <0>         0.0887
     44 H17        -7.2420   -3.2730    1.8105 H         1 <0>         0.1125
     45 H18        -9.4166   -3.0108    2.9620 H         1 <0>         0.1274
     46 H19        -9.1734   -4.6993    2.4545 H         1 <0>         0.1310
     47 H20       -10.9324   -1.5943    1.7318 H         1 <0>         0.1296
     48 H21       -11.8025   -2.2426    0.3209 H         1 <0>         0.1286
     49 H22        -9.9309   -0.7602   -0.3718 H         1 <0>         0.1126
     50 H23        -9.6666   -2.4344   -0.9165 H         1 <0>         0.0888
     51 H24       -12.0038   -3.4478    2.8596 H         1 <0>         0.1355
     52 H25       -12.5501   -4.3477    1.4243 H         1 <0>         0.1336
     53 H26       -11.9204   -6.6673    1.0981 H         1 <0>         0.1306
     54 H27       -11.2401   -8.7803    2.1638 H         1 <0>         0.1359
     55 H28       -10.2479   -8.7590    4.4173 H         1 <0>         0.1357
     56 H29        -9.9292   -6.6241    5.6021 H         1 <0>         0.1359
     57 H30       -10.6018   -4.5104    4.5329 H         1 <0>         0.1300
     58 H31        -3.2914   -1.8264   -1.3085 H         1 <0>         0.3829
     59 N1        -10.5774   -3.6421    1.3007 N.4       1 <0>        -0.3918
     60 H32       -10.4528   -4.2310    0.4689 H         1 <0>         0.4255
@<TRIPOS>BOND
     1    1    2 1
     2    1   30 1
     3    1   31 1
     4    1   32 1
     5    2    3 1
     6    3    8 ar
     7    3    4 ar
     8    4    5 ar
     9    4   33 1
    10    5   15 1
    11    5    6 ar
    12    6    7 ar
    13    6   11 1
    14    7    8 ar
    15    7   34 1
    16    8    9 1
    17    9   10 1
    18   10   35 1
    19   10   36 1
    20   10   37 1
    21   11   12 1
    22   11   13 1
    23   11   29 1
    24   13   14 1
    25   13   15 1
    26   13   16 1
    27   15   38 1
    28   15   39 1
    29   16   17 1
    30   16   40 1
    31   16   41 1
    32   17   21 1
    33   17   18 1
    34   17   42 1
    35   18   19 1
    36   18   43 1
    37   18   44 1
    38   19   45 1
    39   19   46 1
    40   19   59 1
    41   20   21 1
    42   20   47 1
    43   20   48 1
    44   20   59 1
    45   21   49 1
    46   21   50 1
    47   22   23 1
    48   22   51 1
    49   22   52 1
    50   22   59 1
    51   23   28 ar
    52   23   24 ar
    53   24   25 ar
    54   24   53 1
    55   25   26 ar
    56   25   54 1
    57   26   27 ar
    58   26   55 1
    59   27   28 ar
    60   27   56 1
    61   28   57 1
    62   29   58 1
    63   59   60 1
@<TRIPOS>MOLECULE
ZINC06483864
   60    63     0     0     0
SMALL
USER_CHARGES
2-[(1-benzyl-4-piperidyl)methyl]-5,6-dimethoxy-indan-1-ol
@<TRIPOS>ATOM
      1 C1          2.4484   -3.9550   -2.2851 C.3       1 <0>         0.0249
      2 O1          3.3812   -2.8732   -2.3237 O.3       1 <0>        -0.3019
      3 C2          2.9812   -1.6934   -1.7782 C.ar      1 <0>         0.1145
      4 C3          1.7203   -1.5793   -1.2181 C.ar      1 <0>        -0.1654
      5 C4          1.3101   -0.3790   -0.6618 C.ar      1 <0>        -0.0820
      6 C5          2.1618    0.7103   -0.6642 C.ar      1 <0>        -0.1425
      7 C6          3.4242    0.6006   -1.2233 C.ar      1 <0>        -0.1495
      8 C7          3.8382   -0.5971   -1.7807 C.ar      1 <0>         0.1020
      9 O2          5.0782   -0.7017   -2.3293 O.3       1 <0>        -0.3027
     10 C8          5.9028    0.4649   -2.2963 C.3       1 <0>         0.0248
     11 C9          1.4838    1.8910   -0.0020 C.3       1 <0>         0.1550
     12 H1          1.6549    2.7988   -0.5806 H         1 <0>         0.0653
     13 C10        -0.0189    1.5391    0.0105 C.3       1 <0>        -0.0809
     14 H2         -0.5145    1.9248   -0.8804 H         1 <0>         0.0918
     15 C11         0.0021   -0.0041    0.0020 C.3       1 <0>        -0.0710
     16 C12        -0.6905    2.0669    1.2798 C.3       1 <0>        -0.0950
     17 C13        -2.1731    1.6895    1.2670 C.3       1 <0>        -0.1031
     18 C14        -2.8755    2.4135    0.1150 C.3       1 <0>        -0.1450
     19 C15        -4.3688    2.0801    0.1444 C.3       1 <0>        -0.0067
     20 C16        -4.3139    1.7824    2.5487 C.3       1 <0>        -0.0016
     21 C17        -2.8189    2.1070    2.5911 C.3       1 <0>        -0.1428
     22 C18        -6.3983    2.3215    1.4418 C.3       1 <0>         0.0486
     23 C19        -7.0263    3.2580    0.4421 C.ar      1 <0>        -0.1625
     24 C20        -7.4154    4.5258    0.8323 C.ar      1 <0>        -0.0945
     25 C21        -7.9875    5.3864   -0.0859 C.ar      1 <0>        -0.1130
     26 C22        -8.1788    4.9761   -1.3919 C.ar      1 <0>        -0.0844
     27 C23        -7.7945    3.7064   -1.7809 C.ar      1 <0>        -0.1138
     28 C24        -7.2185    2.8473   -0.8638 C.ar      1 <0>        -0.0969
     29 O3          1.9658    2.0547    1.3333 O.3       1 <0>        -0.5537
     30 H3          2.8922   -4.8343   -2.7521 H         1 <0>         0.1052
     31 H4          2.1974   -4.1816   -1.2489 H         1 <0>         0.0560
     32 H5          1.5440   -3.6744   -2.8250 H         1 <0>         0.0554
     33 H6          1.0539   -2.4292   -1.2153 H         1 <0>         0.1351
     34 H7          4.0879    1.4526   -1.2247 H         1 <0>         0.1346
     35 H8          6.8619    0.2453   -2.7653 H         1 <0>         0.1053
     36 H9          5.4105    1.2732   -2.8370 H         1 <0>         0.0554
     37 H10         6.0649    0.7661   -1.2613 H         1 <0>         0.0557
     38 H11        -0.0284   -0.3883    1.0216 H         1 <0>         0.0847
     39 H12        -0.8397   -0.3906   -0.5725 H         1 <0>         0.0738
     40 H13        -0.2111    1.6270    2.1544 H         1 <0>         0.0874
     41 H14        -0.5920    3.1518    1.3188 H         1 <0>         0.0722
     42 H15        -2.2736    0.6120    1.1365 H         1 <0>         0.0903
     43 H16        -2.7407    3.4895    0.2254 H         1 <0>         0.0879
     44 H17        -2.4485    2.0881   -0.8336 H         1 <0>         0.1116
     45 H18        -4.5035    1.0056    0.0201 H         1 <0>         0.1286
     46 H19        -4.8742    2.6054   -0.6660 H         1 <0>         0.1276
     47 H20        -4.4488    0.7093    2.4132 H         1 <0>         0.1298
     48 H21        -4.7793    2.0915    3.4845 H         1 <0>         0.1280
     49 H22        -2.3515    1.5625    3.4116 H         1 <0>         0.1129
     50 H23        -2.6826    3.1780    2.7408 H         1 <0>         0.0881
     51 H24        -6.6409    1.2922    1.1777 H         1 <0>         0.1356
     52 H25        -6.7834    2.5415    2.4375 H         1 <0>         0.1344
     53 H26        -7.2694    4.8451    1.8536 H         1 <0>         0.1309
     54 H27        -8.2874    6.3785    0.2179 H         1 <0>         0.1360
     55 H28        -8.6282    5.6475   -2.1086 H         1 <0>         0.1357
     56 H29        -7.9440    3.3858   -2.8013 H         1 <0>         0.1358
     57 H30        -6.9182    1.8554   -1.1676 H         1 <0>         0.1304
     58 H31         2.9053    2.2770    1.3878 H         1 <0>         0.3838
     59 N1         -4.9354    2.5288    1.4339 N.4       1 <0>        -0.3918
     60 H32        -4.7399    3.5296    1.5533 H         1 <0>         0.4254
@<TRIPOS>BOND
     1    1    2 1
     2    1   30 1
     3    1   31 1
     4    1   32 1
     5    2    3 1
     6    3    8 ar
     7    3    4 ar
     8    4    5 ar
     9    4   33 1
    10    5   15 1
    11    5    6 ar
    12    6    7 ar
    13    6   11 1
    14    7    8 ar
    15    7   34 1
    16    8    9 1
    17    9   10 1
    18   10   35 1
    19   10   36 1
    20   10   37 1
    21   11   12 1
    22   11   13 1
    23   11   29 1
    24   13   14 1
    25   13   15 1
    26   13   16 1
    27   15   38 1
    28   15   39 1
    29   16   17 1
    30   16   40 1
    31   16   41 1
    32   17   21 1
    33   17   18 1
    34   17   42 1
    35   18   19 1
    36   18   43 1
    37   18   44 1
    38   19   45 1
    39   19   46 1
    40   19   59 1
    41   20   21 1
    42   20   47 1
    43   20   48 1
    44   20   59 1
    45   21   49 1
    46   21   50 1
    47   22   23 1
    48   22   51 1
    49   22   52 1
    50   22   59 1
    51   23   28 ar
    52   23   24 ar
    53   24   25 ar
    54   24   53 1
    55   25   26 ar
    56   25   54 1
    57   26   27 ar
    58   26   55 1
    59   27   28 ar
    60   27   56 1
    61   28   57 1
    62   29   58 1
    63   59   60 1
@<TRIPOS>MOLECULE
ZINC13744604
   60    63     0     0     0
SMALL
USER_CHARGES
(1R,2S)-2-[(1-benzyl-4-piperidyl)methyl]-5,6-dimethoxy-indan-1-ol
@<TRIPOS>ATOM
      1 C1         -2.5996    2.9009    4.0612 C.3       1 <0>         0.0249
      2 O1         -1.9077    2.5230    2.8693 O.3       1 <0>        -0.3019
      3 C2         -2.5697    1.7112    2.0021 C.ar      1 <0>         0.1111
      4 C3         -3.8576    1.2916    2.2888 C.ar      1 <0>        -0.1614
      5 C4         -4.5324    0.4606    1.4101 C.ar      1 <0>        -0.0918
      6 C5         -3.9214    0.0511    0.2392 C.ar      1 <0>        -0.1366
      7 C6         -2.6349    0.4723   -0.0540 C.ar      1 <0>        -0.1518
      8 C7         -1.9568    1.3033    0.8213 C.ar      1 <0>         0.1058
      9 O2         -0.6937    1.7152    0.5307 O.3       1 <0>        -0.3023
     10 C8         -0.1263    1.2518   -0.6962 C.3       1 <0>         0.0244
     11 C9         -4.8601   -0.8441   -0.5416 C.3       1 <0>         0.1544
     12 H1         -4.5799   -1.8896   -0.4132 H         1 <0>         0.0731
     13 C10        -6.2582   -0.5846    0.0585 C.3       1 <0>        -0.0798
     14 H2         -6.7746    0.2038   -0.4890 H         1 <0>         0.0958
     15 C11        -5.9231   -0.1317    1.4954 C.3       1 <0>        -0.0718
     16 C12        -7.0905   -1.8683    0.0731 C.3       1 <0>        -0.1074
     17 C13        -8.5104   -1.5501    0.5460 C.3       1 <0>        -0.0994
     18 C14        -9.3038   -2.8513    0.6949 C.3       1 <0>        -0.1417
     19 C15       -10.7404   -2.5226    1.1075 C.3       1 <0>        -0.0068
     20 C16       -10.6424   -0.3876   -0.0347 C.3       1 <0>        -0.0009
     21 C17        -9.2033   -0.6525   -0.4829 C.3       1 <0>        -0.1466
     22 C18       -12.7817   -1.4401    0.3852 C.3       1 <0>         0.0482
     23 C19       -13.4308   -2.7508    0.7481 C.ar      1 <0>        -0.1602
     24 C20       -14.0011   -3.5357   -0.2366 C.ar      1 <0>        -0.0946
     25 C21       -14.5927   -4.7400    0.0957 C.ar      1 <0>        -0.1132
     26 C22       -14.6225   -5.1550    1.4140 C.ar      1 <0>        -0.0847
     27 C23       -14.0564   -4.3678    2.3993 C.ar      1 <0>        -0.1143
     28 C24       -13.4610   -3.1655    2.0664 C.ar      1 <0>        -0.0966
     29 O3         -4.8422   -0.4933   -1.9267 O.3       1 <0>        -0.5597
     30 H3         -1.9606    3.5470    4.6630 H         1 <0>         0.1051
     31 H4         -3.5120    3.4359    3.7975 H         1 <0>         0.0554
     32 H5         -2.8542    2.0080    4.6321 H         1 <0>         0.0559
     33 H6         -4.3363    1.6105    3.2029 H         1 <0>         0.1357
     34 H7         -2.1592    0.1515   -0.9689 H         1 <0>         0.1339
     35 H8         -0.0848    0.1626   -0.6887 H         1 <0>         0.0557
     36 H9          0.8812    1.6531   -0.8050 H         1 <0>         0.1054
     37 H10        -0.7427    1.5862   -1.5307 H         1 <0>         0.0562
     38 H11        -6.6355    0.6224    1.8300 H         1 <0>         0.0775
     39 H12        -5.9296   -0.9859    2.1724 H         1 <0>         0.0849
     40 H13        -7.1279   -2.2885   -0.9320 H         1 <0>         0.0775
     41 H14        -6.6346   -2.5893    0.7516 H         1 <0>         0.0777
     42 H15        -8.4680   -1.0374    1.5069 H         1 <0>         0.0911
     43 H16        -9.3120   -3.3834   -0.2564 H         1 <0>         0.0875
     44 H17        -8.8388   -3.4757    1.4578 H         1 <0>         0.1109
     45 H18       -10.7323   -2.0037    2.0660 H         1 <0>         0.1276
     46 H19       -11.3120   -3.4461    1.1993 H         1 <0>         0.1309
     47 H20       -10.6347    0.1212    0.9292 H         1 <0>         0.1295
     48 H21       -11.1430    0.2394   -0.7724 H         1 <0>         0.1287
     49 H22        -8.6666    0.2931   -0.5610 H         1 <0>         0.1144
     50 H23        -9.2093   -1.1487   -1.4534 H         1 <0>         0.0900
     51 H24       -12.8755   -0.7449    1.2194 H         1 <0>         0.1355
     52 H25       -13.2734   -1.0220   -0.4933 H         1 <0>         0.1338
     53 H26       -13.9815   -3.2095   -1.2660 H         1 <0>         0.1307
     54 H27       -15.0346   -5.3552   -0.6742 H         1 <0>         0.1359
     55 H28       -15.0877   -6.0943    1.6741 H         1 <0>         0.1357
     56 H29       -14.0797   -4.6920    3.4292 H         1 <0>         0.1359
     57 H30       -13.0191   -2.5503    2.8363 H         1 <0>         0.1301
     58 H31        -3.9773   -0.5949   -2.3470 H         1 <0>         0.3830
     59 N1        -11.3590   -1.6771    0.0645 N.4       1 <0>        -0.3916
     60 H32       -11.2971   -2.1628   -0.8379 H         1 <0>         0.4255
@<TRIPOS>BOND
     1    1    2 1
     2    1   30 1
     3    1   31 1
     4    1   32 1
     5    2    3 1
     6    3    8 ar
     7    3    4 ar
     8    4    5 ar
     9    4   33 1
    10    5   15 1
    11    5    6 ar
    12    6    7 ar
    13    6   11 1
    14    7    8 ar
    15    7   34 1
    16    8    9 1
    17    9   10 1
    18   10   35 1
    19   10   36 1
    20   10   37 1
    21   11   12 1
    22   11   13 1
    23   11   29 1
    24   13   14 1
    25   13   15 1
    26   13   16 1
    27   15   38 1
    28   15   39 1
    29   16   17 1
    30   16   40 1
    31   16   41 1
    32   17   21 1
    33   17   18 1
    34   17   42 1
    35   18   19 1
    36   18   43 1
    37   18   44 1
    38   19   45 1
    39   19   46 1
    40   19   59 1
    41   20   21 1
    42   20   47 1
    43   20   48 1
    44   20   59 1
    45   21   49 1
    46   21   50 1
    47   22   23 1
    48   22   51 1
    49   22   52 1
    50   22   59 1
    51   23   28 ar
    52   23   24 ar
    53   24   25 ar
    54   24   53 1
    55   25   26 ar
    56   25   54 1
    57   26   27 ar
    58   26   55 1
    59   27   28 ar
    60   27   56 1
    61   28   57 1
    62   29   58 1
    63   59   60 1
@<TRIPOS>MOLECULE
ZINC02037153
   29    29     0     0     0
SMALL
USER_CHARGES

@<TRIPOS>ATOM
      1 C1         -0.0480    1.6218   -0.2657 C.3       1 <0>        -0.1580
      2 C2         -0.0462    0.0947   -0.1717 C.3       1 <0>         0.0851
      3 O1          0.6767   -0.4498   -1.2776 O.3       1 <0>        -0.7012
      4 P1          0.9802   -2.0228   -1.4378 P.3       1 <0>         2.2994
      5 O2          1.8429   -2.2408   -2.6204 O.2       1 <0>        -0.9763
      6 O3          1.7307   -2.5616   -0.1193 O.3       1 <0>        -0.7469
      7 C3          3.0359   -2.1259    0.2662 C.3       1 <0>         0.1124
      8 C4          3.4478   -2.8317    1.5596 C.3       1 <0>        -0.1574
      9 O4         -0.4055   -2.8198   -1.6301 O.3       1 <0>        -0.6091
     10 C5         -0.2504   -4.1463   -1.8714 C.ar      1 <0>         0.3364
     11 C6         -0.2460   -4.6114   -3.1811 C.ar      1 <0>        -0.0640
     12 C7         -0.0870   -5.9673   -3.4145 C.ar      1 <0>        -0.0277
     13 C8          0.0628   -6.8139   -2.3240 C.ar      1 <0>        -0.0674
     14 C9          0.0486   -6.2812   -1.0477 C.ar      1 <0>         0.2085
     15 N1         -0.0996   -4.9826   -0.8583 N.ar      1 <0>        -0.4593
     16 Cl1         0.2345   -7.3317    0.3218 Cl        1 <0>         0.0199
     17 Cl2         0.2649   -8.5218   -2.5601 Cl        1 <0>        -0.0023
     18 Cl3        -0.4379   -3.5074   -4.5070 Cl        1 <0>         0.0067
     19 H1          0.9783    1.9883   -0.2447 H         1 <0>         0.0710
     20 H2         -0.5241    1.9279   -1.1972 H         1 <0>         0.0733
     21 H3         -0.5994    2.0371    0.5778 H         1 <0>         0.0818
     22 H4          0.4299   -0.2114    0.7598 H         1 <0>         0.0664
     23 H5         -1.0725   -0.2718   -0.1927 H         1 <0>         0.0714
     24 H6          3.7477   -2.3687   -0.5228 H         1 <0>         0.0762
     25 H7          3.0261   -1.0480    0.4277 H         1 <0>         0.0608
     26 H8          2.7360   -2.5890    2.3486 H         1 <0>         0.0665
     27 H9          3.4576   -3.9097    1.3981 H         1 <0>         0.0703
     28 H10         4.4434   -2.4994    1.8537 H         1 <0>         0.0807
     29 H11        -0.0799   -6.3573   -4.4216 H         1 <0>         0.1828
@<TRIPOS>BOND
     1    1    2 1
     2    1   19 1
     3    1   20 1
     4    1   21 1
     5    2    3 1
     6    2   22 1
     7    2   23 1
     8    3    4 1
     9    4    5 2
    10    4    6 1
    11    4    9 1
    12    6    7 1
    13    7    8 1
    14    7   24 1
    15    7   25 1
    16    8   26 1
    17    8   27 1
    18    8   28 1
    19    9   10 1
    20   10   15 ar
    21   10   11 ar
    22   11   12 ar
    23   11   18 1
    24   12   13 ar
    25   12   29 1
    26   13   14 ar
    27   13   17 1
    28   14   15 ar
    29   14   16 1
@<TRIPOS>MOLECULE
ZINC00003711
   31    33     0     0     0
SMALL
USER_CHARGES

@<TRIPOS>ATOM
      1 C1         -0.0164    1.3584    0.0095 C.ar      1 <0>        -0.1139
      2 C2          1.1700    2.0879    0.0021 C.ar      1 <0>        -0.0268
      3 C3          2.3787    1.4623   -0.0132 C.ar      1 <0>        -0.1501
      4 C4          2.4375    0.0577   -0.0223 C.ar      1 <0>         0.1825
      5 C5          1.2296   -0.6801   -0.0133 C.ar      1 <0>        -0.1452
      6 C6          0.0021   -0.0041    0.0020 C.ar      1 <0>        -0.0553
      7 C7          1.2993   -2.0908   -0.0193 C.ar      1 <0>         0.3795
      8 C8          2.5542   -2.6926   -0.0378 C.ar      1 <0>        -0.2248
      9 C9          3.6918   -1.9051   -0.0515 C.ar      1 <0>         0.2736
     10 N1          3.6057   -0.5855   -0.0400 N.ar      1 <0>        -0.5204
     11 C10         5.0781   -2.4997   -0.0887 C.3       1 <0>        -0.1119
     12 C11         5.0462   -3.9647    0.3399 C.3       1 <0>        -0.1174
     13 C12         3.9787   -4.6892   -0.4885 C.3       1 <0>        -0.1593
     14 C13         2.6048   -4.1975   -0.0375 C.3       1 <0>         0.1596
     15 H1          2.4049   -4.5636    0.9696 H         1 <0>         0.0834
     16 O1          1.6079   -4.7026   -0.9280 O.3       1 <0>        -0.5691
     17 N2          0.1447   -2.8582   -0.0066 N.pl3     1 <0>        -0.7763
     18 H2         -0.9625    1.8789    0.0259 H         1 <0>         0.1516
     19 H3          1.1302    3.1672    0.0082 H         1 <0>         0.1547
     20 H4          3.2894    2.0428   -0.0187 H         1 <0>         0.1557
     21 H5         -0.9239   -0.5598    0.0082 H         1 <0>         0.1458
     22 H6          5.4717   -2.4305   -1.1028 H         1 <0>         0.1215
     23 H7          5.7267   -1.9417    0.5867 H         1 <0>         0.1125
     24 H8          6.0202   -4.4200    0.1611 H         1 <0>         0.0996
     25 H9          4.7960   -4.0313    1.3987 H         1 <0>         0.0822
     26 H10         4.1199   -4.4654   -1.5459 H         1 <0>         0.0864
     27 H11         4.0554   -5.7644   -0.3267 H         1 <0>         0.0921
     28 H12         1.5802   -5.6678   -0.9807 H         1 <0>         0.4032
     29 H13        -0.7241   -2.4271    0.0066 H         1 <0>         0.4164
     30 H14         0.2057   -3.8263   -0.0109 H         1 <0>         0.4304
     31 H15         4.4243   -0.0651   -0.0449 H         1 <0>         0.4398
@<TRIPOS>BOND
     1    1    6 ar
     2    1    2 ar
     3    1   18 1
     4    2    3 ar
     5    2   19 1
     6    3    4 ar
     7    3   20 1
     8    4   10 ar
     9    4    5 ar
    10    5    6 ar
    11    5    7 ar
    12    6   21 1
    13    7    8 ar
    14    7   17 1
    15    8   14 1
    16    8    9 ar
    17    9   10 ar
    18    9   11 1
    19   10   31 1
    20   11   12 1
    21   11   22 1
    22   11   23 1
    23   12   13 1
    24   12   24 1
    25   12   25 1
    26   13   14 1
    27   13   26 1
    28   13   27 1
    29   14   15 1
    30   14   16 1
    31   16   28 1
    32   17   29 1
    33   17   30 1
@<TRIPOS>MOLECULE
ZINC00087000
   31    33     0     0     0
SMALL
USER_CHARGES

@<TRIPOS>ATOM
      1 C1         -0.0164    1.3584    0.0095 C.ar      1 <0>        -0.1121
      2 C2          1.1700    2.0879    0.0021 C.ar      1 <0>        -0.0260
      3 C3          2.3787    1.4623   -0.0132 C.ar      1 <0>        -0.1491
      4 C4          2.4375    0.0577   -0.0223 C.ar      1 <0>         0.1825
      5 C5          1.2296   -0.6801   -0.0133 C.ar      1 <0>        -0.1422
      6 C6          0.0021   -0.0041    0.0020 C.ar      1 <0>        -0.0560
      7 C7          1.2993   -2.0908   -0.0193 C.ar      1 <0>         0.3768
      8 C8          2.5542   -2.6926   -0.0378 C.ar      1 <0>        -0.2194
      9 C9          3.6918   -1.9051   -0.0515 C.ar      1 <0>         0.2819
     10 N1          3.6057   -0.5855   -0.0400 N.ar      1 <0>        -0.5182
     11 C10         5.0781   -2.4997   -0.0887 C.3       1 <0>        -0.1122
     12 C11         5.0462   -3.9647    0.3399 C.3       1 <0>        -0.1179
     13 C12         3.9787   -4.6892   -0.4885 C.3       1 <0>        -0.1594
     14 C13         2.6048   -4.1975   -0.0375 C.3       1 <0>         0.1579
     15 H1          1.8444   -4.5828   -0.7168 H         1 <0>         0.0739
     16 O1          2.3427   -4.6774    1.2828 O.3       1 <0>        -0.5614
     17 N2          0.1447   -2.8582   -0.0066 N.pl3     1 <0>        -0.7895
     18 H2         -0.9625    1.8789    0.0259 H         1 <0>         0.1523
     19 H3          1.1302    3.1672    0.0082 H         1 <0>         0.1555
     20 H4          3.2894    2.0428   -0.0187 H         1 <0>         0.1565
     21 H5         -0.9239   -0.5598    0.0082 H         1 <0>         0.1464
     22 H6          5.4717   -2.4305   -1.1028 H         1 <0>         0.1216
     23 H7          5.7267   -1.9417    0.5867 H         1 <0>         0.1124
     24 H8          6.0202   -4.4200    0.1611 H         1 <0>         0.0957
     25 H9          4.7960   -4.0313    1.3987 H         1 <0>         0.0878
     26 H10         4.1199   -4.4654   -1.5459 H         1 <0>         0.0853
     27 H11         4.0554   -5.7644   -0.3267 H         1 <0>         0.0929
     28 H12         2.3586   -5.6411    1.3614 H         1 <0>         0.3953
     29 H13        -0.7241   -2.4271    0.0066 H         1 <0>         0.4217
     30 H14         0.2057   -3.8263   -0.0109 H         1 <0>         0.4266
     31 H15         4.4243   -0.0651   -0.0449 H         1 <0>         0.4403
@<TRIPOS>BOND
     1    1    6 ar
     2    1    2 ar
     3    1   18 1
     4    2    3 ar
     5    2   19 1
     6    3    4 ar
     7    3   20 1
     8    4   10 ar
     9    4    5 ar
    10    5    6 ar
    11    5    7 ar
    12    6   21 1
    13    7    8 ar
    14    7   17 1
    15    8   14 1
    16    8    9 ar
    17    9   10 ar
    18    9   11 1
    19   10   31 1
    20   11   12 1
    21   11   22 1
    22   11   23 1
    23   12   13 1
    24   12   24 1
    25   12   25 1
    26   13   14 1
    27   13   26 1
    28   13   27 1
    29   14   15 1
    30   14   16 1
    31   16   28 1
    32   17   29 1
    33   17   30 1
@<TRIPOS>MOLECULE
ZINC22055510
   56    59     0     0     0
SMALL
USER_CHARGES
(2Z)-2-[(1-benzyl-4-piperidyl)methylene]-5,6-dimethoxy-indan-1-one
@<TRIPOS>ATOM
      1 C1         -2.4337    2.7550    4.7821 C.3       1 <0>         0.0169
      2 O1         -1.8694    2.3659    3.5282 O.3       1 <0>        -0.2942
      3 C2         -0.7509    1.5971    3.5675 C.ar      1 <0>         0.1532
      4 C3         -0.2073    1.2251    4.7895 C.ar      1 <0>        -0.1783
      5 C4          0.9292    0.4451    4.8357 C.ar      1 <0>        -0.0395
      6 C5          1.5391    0.0248    3.6528 C.ar      1 <0>        -0.1964
      7 C6          0.9851    0.3964    2.4197 C.ar      1 <0>        -0.1024
      8 C7         -0.1484    1.1819    2.3805 C.ar      1 <0>         0.0888
      9 O2         -0.6816    1.5467    1.1837 O.3       1 <0>        -0.3001
     10 C8         -0.0127    1.0858    0.0080 C.3       1 <0>         0.0194
     11 C9          2.7288   -0.7914    3.9634 C.2       1 <0>         0.4409
     12 O3          3.4718   -1.3034    3.1475 O.2       1 <0>        -0.4492
     13 C10         2.8647   -0.8826    5.4253 C.2       1 <0>        -0.1786
     14 C11         3.8115   -1.5308    6.1010 C.2       1 <0>        -0.0627
     15 C12         4.8925   -2.2735    5.3588 C.3       1 <0>        -0.1086
     16 C13         4.8513   -3.7552    5.7426 C.3       1 <0>        -0.1326
     17 C14         5.9890   -4.4928    5.0330 C.3       1 <0>        -0.0084
     18 N1          7.2756   -3.9029    5.4243 N.4       1 <0>        -0.3950
     19 C15         7.3569   -2.4925    5.0236 C.3       1 <0>        -0.0022
     20 C16         6.2600   -1.6952    5.7329 C.3       1 <0>        -0.1346
     21 C17         8.3977   -4.6729    4.8712 C.3       1 <0>         0.0458
     22 C18         8.1548   -6.1437    5.0918 C.ar      1 <0>        -0.1575
     23 C19         8.6124   -6.7546    6.2443 C.ar      1 <0>        -0.0948
     24 C20         8.3858   -8.1029    6.4486 C.ar      1 <0>        -0.1137
     25 C21         7.7095   -8.8422    5.4962 C.ar      1 <0>        -0.0855
     26 C22         7.2565   -8.2324    4.3413 C.ar      1 <0>        -0.1141
     27 C23         7.4794   -6.8832    4.1390 C.ar      1 <0>        -0.0972
     28 C24         1.7155   -0.0929    6.0064 C.3       1 <0>        -0.0509
     29 H1         -3.3286    3.3700    4.6064 H         1 <0>         0.1107
     30 H2         -1.6946    3.3374    5.3518 H         1 <0>         0.0618
     31 H3         -2.7122    1.8571    5.3533 H         1 <0>         0.0618
     32 H4         -0.6758    1.5481    5.7074 H         1 <0>         0.1464
     33 H5          1.4487    0.0715    1.4999 H         1 <0>         0.1436
     34 H6         -0.5447    1.4502   -0.8832 H         1 <0>         0.1093
     35 H7          0.0022   -0.0141    0.0020 H         1 <0>         0.0579
     36 H8          1.0193    1.4666    0.0002 H         1 <0>         0.0580
     37 H9          3.8046   -1.5241    7.2010 H         1 <0>         0.1386
     38 H10         4.7160   -2.1578    4.2792 H         1 <0>         0.1311
     39 H11         4.9701   -3.8553    6.8316 H         1 <0>         0.0894
     40 H12         3.8862   -4.1862    5.4379 H         1 <0>         0.1108
     41 H13         5.9713   -5.5551    5.3181 H         1 <0>         0.1354
     42 H14         5.8611   -4.4033    3.9441 H         1 <0>         0.1262
     43 H15         8.3414   -2.0884    5.3019 H         1 <0>         0.1335
     44 H16         7.2221   -2.4123    3.9348 H         1 <0>         0.1283
     45 H17         6.3102   -0.6415    5.4211 H         1 <0>         0.1126
     46 H18         6.4012   -1.7625    6.8217 H         1 <0>         0.0906
     47 H19         8.4833   -4.4731    3.7929 H         1 <0>         0.1325
     48 H20         9.3297   -4.3757    5.3743 H         1 <0>         0.1378
     49 H21         9.1440   -6.1778    6.9867 H         1 <0>         0.1310
     50 H22         8.7394   -8.5792    7.3511 H         1 <0>         0.1355
     51 H23         7.5348   -9.8961    5.6547 H         1 <0>         0.1353
     52 H24         6.7282   -8.8100    3.5972 H         1 <0>         0.1355
     53 H25         7.1255   -6.4068    3.2367 H         1 <0>         0.1298
     54 H26         2.0834    0.7448    6.6170 H         1 <0>         0.1049
     55 H27         1.0669   -0.7361    6.6192 H         1 <0>         0.1048
     56 H28         7.3435   -3.9441    6.5214 H         1 <0>         0.4383
@<TRIPOS>BOND
     1    1    2 1
     2    1   29 1
     3    1   30 1
     4    1   31 1
     5    2    3 1
     6    3    8 ar
     7    3    4 ar
     8    4    5 ar
     9    4   32 1
    10    5   28 1
    11    5    6 ar
    12    6    7 ar
    13    6   11 1
    14    7    8 ar
    15    7   33 1
    16    8    9 1
    17    9   10 1
    18   10   34 1
    19   10   35 1
    20   10   36 1
    21   11   12 2
    22   11   13 1
    23   13   14 2
    24   13   28 1
    25   14   15 1
    26   14   37 1
    27   15   20 1
    28   15   16 1
    29   15   38 1
    30   16   17 1
    31   16   39 1
    32   16   40 1
    33   17   18 1
    34   17   41 1
    35   17   42 1
    36   18   19 1
    37   18   21 1
    38   18   56 1
    39   19   20 1
    40   19   43 1
    41   19   44 1
    42   20   45 1
    43   20   46 1
    44   21   22 1
    45   21   47 1
    46   21   48 1
    47   22   27 ar
    48   22   23 ar
    49   23   24 ar
    50   23   49 1
    51   24   25 ar
    52   24   50 1
    53   25   26 ar
    54   25   51 1
    55   26   27 ar
    56   26   52 1
    57   27   53 1
    58   28   54 1
    59   28   55 1
@<TRIPOS>MOLECULE
ZINC00004413
   41    41     0     0     0
SMALL
USER_CHARGES

@<TRIPOS>ATOM
      1 C1          4.4626    0.9331   -2.8658 C.3       1 <0>        -0.1716
      2 C2          3.0922    1.3370   -2.3184 C.3       1 <0>         0.1225
      3 N1          2.1977    0.1769   -2.3368 N.am      1 <0>        -0.5889
      4 C3          2.1273   -0.7122   -1.1746 C.3       1 <0>         0.0754
      5 C4          1.4396   -0.0723   -3.4229 C.2       1 <0>         0.6477
      6 O1          1.4980    0.6652   -4.3869 O.2       1 <0>        -0.5535
      7 O2          0.6173   -1.1388   -3.4398 O.3       1 <0>        -0.3075
      8 C5         -0.2031   -1.2952   -4.5123 C.ar      1 <0>         0.1261
      9 C6         -1.5478   -0.9685   -4.4120 C.ar      1 <0>        -0.0937
     10 C7         -2.3794   -1.1283   -5.5033 C.ar      1 <0>        -0.0860
     11 C8         -1.8728   -1.6139   -6.6949 C.ar      1 <0>        -0.1221
     12 C9         -0.5334   -1.9405   -6.7972 C.ar      1 <0>        -0.1238
     13 C10         0.3039   -1.7762   -5.7104 C.ar      1 <0>        -0.0901
     14 C11         0.0152   -2.4704   -8.0969 C.3       1 <0>         0.0788
     15 H1          0.9527   -2.9938   -7.9091 H         1 <0>         0.1439
     16 C12         0.2648   -1.3060   -9.0576 C.3       1 <0>        -0.1799
     17 N2         -0.9531   -3.3994   -8.6947 N.4       1 <0>        -0.3859
     18 C13        -0.4184   -3.9159   -9.9616 C.3       1 <0>        -0.0520
     19 C14        -1.1928   -4.5173   -7.7723 C.3       1 <0>        -0.0508
     20 H2          4.8824    0.1408   -2.2460 H         1 <0>         0.0603
     21 H3          4.3537    0.5745   -3.8894 H         1 <0>         0.0581
     22 H4          5.1281    1.7962   -2.8522 H         1 <0>         0.0766
     23 H5          3.2011    1.6957   -1.2949 H         1 <0>         0.0928
     24 H6          2.6725    2.1293   -2.9383 H         1 <0>         0.0905
     25 H7          1.3554   -0.3572   -0.4918 H         1 <0>         0.0654
     26 H8          1.8843   -1.7224   -1.5042 H         1 <0>         0.0784
     27 H9          3.0898   -0.7185   -0.6631 H         1 <0>         0.0821
     28 H10        -1.9440   -0.5899   -3.4814 H         1 <0>         0.1446
     29 H11        -3.4262   -0.8742   -5.4257 H         1 <0>         0.1465
     30 H12        -2.5247   -1.7385   -7.5469 H         1 <0>         0.1259
     31 H13         1.3512   -2.0270   -5.7923 H         1 <0>         0.1385
     32 H14         0.9833   -0.6167   -8.6140 H         1 <0>         0.1084
     33 H15         0.6616   -1.6892   -9.9977 H         1 <0>         0.0875
     34 H16        -0.6727   -0.7825   -9.2453 H         1 <0>         0.0834
     35 H17        -0.2406   -3.0863  -10.6460 H         1 <0>         0.1268
     36 H18         0.5191   -4.4393   -9.7738 H         1 <0>         0.1237
     37 H19        -1.1369   -4.6052  -10.4052 H         1 <0>         0.1270
     38 H20        -1.5895   -4.1341   -6.8322 H         1 <0>         0.1235
     39 H21        -1.9113   -5.2066   -8.2158 H         1 <0>         0.1263
     40 H22        -0.2553   -5.0408   -7.5845 H         1 <0>         0.1229
     41 H23        -1.8209   -2.9148   -8.8685 H         1 <0>         0.4225
@<TRIPOS>BOND
     1    1    2 1
     2    1   20 1
     3    1   21 1
     4    1   22 1
     5    2    3 1
     6    2   23 1
     7    2   24 1
     8    3    4 1
     9    3    5 am
    10    4   25 1
    11    4   26 1
    12    4   27 1
    13    5    6 2
    14    5    7 1
    15    7    8 1
    16    8   13 ar
    17    8    9 ar
    18    9   10 ar
    19    9   28 1
    20   10   11 ar
    21   10   29 1
    22   11   12 ar
    23   11   30 1
    24   12   13 ar
    25   12   14 1
    26   13   31 1
    27   14   15 1
    28   14   16 1
    29   14   17 1
    30   16   32 1
    31   16   33 1
    32   16   34 1
    33   17   18 1
    34   17   19 1
    35   17   41 1
    36   18   35 1
    37   18   36 1
    38   18   37 1
    39   19   38 1
    40   19   39 1
    41   19   40 1
@<TRIPOS>MOLECULE
ZINC01530795
   34    35     0     0     0
SMALL
USER_CHARGES

@<TRIPOS>ATOM
      1 C1         -0.0188    1.5357    0.0105 C.3       1 <0>        -0.1444
      2 C2          1.4678    1.9597   -0.0014 C.3       1 <0>        -0.1453
      3 C3          2.1905    0.7049    0.5496 C.3       1 <0>        -0.0056
      4 N1          1.4211   -0.4185   -0.0440 N.4       1 <0>        -0.3963
      5 C4          0.0021   -0.0041    0.0020 C.3       1 <0>        -0.0071
      6 C5          1.6177   -1.6408    0.7468 C.3       1 <0>         0.1397
      7 C6          0.9478   -2.7694    0.0803 C.1       1 <0>        -0.2723
      8 C7          0.4136   -3.6696   -0.4513 C.1       1 <0>        -0.0629
      9 C8         -0.2563   -4.7982   -1.1178 C.3       1 <0>         0.2164
     10 N2         -0.0602   -6.0172   -0.3292 N.am      1 <0>        -0.6260
     11 C9          1.0683   -6.9401   -0.4981 C.3       1 <0>         0.1002
     12 C10         1.0971   -7.7957    0.7879 C.3       1 <0>        -0.1324
     13 C11        -0.3768   -7.7207    1.2495 C.3       1 <0>        -0.1565
     14 C12        -0.8877   -6.4310    0.6460 C.2       1 <0>         0.5177
     15 O1         -1.8983   -5.8555    0.9901 O.2       1 <0>        -0.5163
     16 H1         -0.5096    1.9024    0.9120 H         1 <0>         0.1051
     17 H2         -0.5267    1.9121   -0.8775 H         1 <0>         0.1049
     18 H3          1.7979    2.1803   -1.0166 H         1 <0>         0.0985
     19 H4          1.6298    2.8165    0.6527 H         1 <0>         0.1191
     20 H5          3.2275    0.6801    0.2150 H         1 <0>         0.1387
     21 H6          2.1355    0.6761    1.6379 H         1 <0>         0.1377
     22 H7         -0.4673   -0.3868    0.9083 H         1 <0>         0.1306
     23 H8         -0.5226   -0.3777   -0.8773 H         1 <0>         0.1268
     24 H9          2.6839   -1.8504    0.8326 H         1 <0>         0.1483
     25 H10         1.1935   -1.5023    1.7412 H         1 <0>         0.1479
     26 H11        -1.3225   -4.5886   -1.2036 H         1 <0>         0.1237
     27 H12         0.1679   -4.9366   -2.1122 H         1 <0>         0.1211
     28 H13         0.9093   -7.5748   -1.3699 H         1 <0>         0.0838
     29 H14         1.9993   -6.3827   -0.6012 H         1 <0>         0.0759
     30 H15         1.3846   -8.8234    0.5663 H         1 <0>         0.0994
     31 H16         1.7619   -7.3582    1.5327 H         1 <0>         0.0801
     32 H17        -0.9394   -8.5734    0.8695 H         1 <0>         0.1140
     33 H18        -0.4342   -7.6786    2.3372 H         1 <0>         0.1068
     34 H19         1.7084   -0.5705   -0.9992 H         1 <0>         0.4287
@<TRIPOS>BOND
     1    1    5 1
     2    1    2 1
     3    1   16 1
     4    1   17 1
     5    2    3 1
     6    2   18 1
     7    2   19 1
     8    3    4 1
     9    3   20 1
    10    3   21 1
    11    4    5 1
    12    4    6 1
    13    4   34 1
    14    5   22 1
    15    5   23 1
    16    6    7 1
    17    6   24 1
    18    6   25 1
    19    7    8 3
    20    8    9 1
    21    9   10 1
    22    9   26 1
    23    9   27 1
    24   10   14 am
    25   10   11 1
    26   11   12 1
    27   11   28 1
    28   11   29 1
    29   12   13 1
    30   12   30 1
    31   12   31 1
    32   13   14 1
    33   13   32 1
    34   13   33 1
    35   14   15 2
@<TRIPOS>MOLECULE
ZINC33971762
   41    43     0     0     0
SMALL
USER_CHARGES

@<TRIPOS>ATOM
      1 C1         -0.1882    1.7290    0.1955 C.3       1 <0>        -0.1309
      2 C2         -0.0702    0.2073    0.0878 C.3       1 <0>        -0.0259
      3 C3          0.7161   -0.2302   -1.1676 C.3       1 <0>        -0.1094
      4 C4          2.1268   -0.5350   -0.6041 C.3       1 <0>         0.0405
      5 N1          1.8390   -1.1603    0.7115 N.3       1 <0>        -0.5322
      6 C5          0.6980   -0.4088    1.2788 C.3       1 <0>         0.2994
      7 H1          1.0394    0.3565    1.9759 H         1 <0>         0.0776
      8 N2         -0.2494   -1.3390    1.8987 N.pl3     1 <0>        -0.6082
      9 C6         -1.4512   -1.3519    1.1851 C.ar      1 <0>         0.2180
     10 C7         -1.4185   -0.4740    0.1132 C.ar      1 <0>        -0.1472
     11 C8         -2.5141   -0.3423   -0.7184 C.ar      1 <0>        -0.0389
     12 C9         -3.6592   -1.0890   -0.4850 C.ar      1 <0>         0.0429
     13 C10        -3.7001   -1.9683    0.5867 C.ar      1 <0>        -0.0563
     14 C11        -2.6072   -2.1000    1.4164 C.ar      1 <0>        -0.1688
     15 O1         -4.7376   -0.9593   -1.3035 O.3       1 <0>        -0.2261
     16 C12        -4.6383   -1.4352   -2.5634 C.2       1 <0>         0.4996
     17 N3         -3.5806   -2.0956   -2.9265 N.2       1 <0>        -0.6269
     18 C13        -3.4728   -2.6119   -4.2933 C.3       1 <0>         0.0245
     19 O2         -5.6388   -1.2245   -3.4457 O.3       1 <0>        -0.4978
     20 C14         0.0235   -2.1399    3.0947 C.3       1 <0>         0.1095
     21 C15         3.0095   -1.0875    1.5963 C.3       1 <0>         0.0155
     22 H2          0.8083    2.1700    0.2180 H         1 <0>         0.0606
     23 H3         -0.7361    2.1127   -0.6652 H         1 <0>         0.0678
     24 H4         -0.7211    1.9882    1.1104 H         1 <0>         0.0624
     25 H5          0.2747   -1.1248   -1.6069 H         1 <0>         0.0841
     26 H6          0.7587    0.5784   -1.8973 H         1 <0>         0.0791
     27 H7          2.6581   -1.2312   -1.2530 H         1 <0>         0.0875
     28 H8          2.6971    0.3850   -0.4763 H         1 <0>         0.0502
     29 H9         -2.4788    0.3438   -1.5516 H         1 <0>         0.1225
     30 H10        -4.5905   -2.5508    0.7720 H         1 <0>         0.1326
     31 H11        -2.6452   -2.7858    2.2498 H         1 <0>         0.1268
     32 H12        -4.2937   -3.3025   -4.4866 H         1 <0>         0.0494
     33 H13        -3.5212   -1.7831   -4.9996 H         1 <0>         0.0495
     34 H14        -2.5234   -3.1342   -4.4105 H         1 <0>         0.0898
     35 H15        -5.4773   -1.6022   -4.3211 H         1 <0>         0.4199
     36 H16        -0.2683   -1.5785    3.9823 H         1 <0>         0.0491
     37 H17        -0.5461   -3.0680    3.0482 H         1 <0>         0.0679
     38 H18         1.0881   -2.3690    3.1434 H         1 <0>         0.0697
     39 H19         3.2777   -0.0435    1.7587 H         1 <0>         0.0309
     40 H20         2.7720   -1.5546    2.5521 H         1 <0>         0.0681
     41 H21         3.8471   -1.6102    1.1345 H         1 <0>         0.0733
@<TRIPOS>BOND
     1    1    2 1
     2    1   22 1
     3    1   23 1
     4    1   24 1
     5    2    6 1
     6    2   10 1
     7    2    3 1
     8    3    4 1
     9    3   25 1
    10    3   26 1
    11    4    5 1
    12    4   27 1
    13    4   28 1
    14    5    6 1
    15    5   21 1
    16    6    7 1
    17    6    8 1
    18    8    9 1
    19    8   20 1
    20    9   14 ar
    21    9   10 ar
    22   10   11 ar
    23   11   12 ar
    24   11   29 1
    25   12   13 ar
    26   12   15 1
    27   13   14 ar
    28   13   30 1
    29   14   31 1
    30   15   16 1
    31   16   17 2
    32   16   19 1
    33   17   18 1
    34   18   32 1
    35   18   33 1
    36   18   34 1
    37   19   35 1
    38   20   36 1
    39   20   37 1
    40   20   38 1
    41   21   39 1
    42   21   40 1
    43   21   41 1
@<TRIPOS>MOLECULE
ZINC33971762
   42    44     0     0     0
SMALL
USER_CHARGES

@<TRIPOS>ATOM
      1 C1         -0.1882    1.7290    0.1955 C.3       1 <0>        -0.1392
      2 C2         -0.0702    0.2073    0.0878 C.3       1 <0>        -0.0229
      3 C3          0.7161   -0.2302   -1.1676 C.3       1 <0>        -0.1344
      4 C4          2.1268   -0.5350   -0.6041 C.3       1 <0>        -0.0013
      5 N1          1.8390   -1.1603    0.7115 N.4       1 <0>        -0.4135
      6 C5          0.6980   -0.4088    1.2788 C.3       1 <0>         0.2646
      7 H1          1.0394    0.3565    1.9759 H         1 <0>         0.1606
      8 N2         -0.2494   -1.3390    1.8987 N.pl3     1 <0>        -0.6268
      9 C6         -1.4512   -1.3519    1.1851 C.ar      1 <0>         0.1765
     10 C7         -1.4185   -0.4740    0.1132 C.ar      1 <0>        -0.1459
     11 C8         -2.5141   -0.3423   -0.7184 C.ar      1 <0>        -0.0416
     12 C9         -3.6592   -1.0890   -0.4850 C.ar      1 <0>         0.0843
     13 C10        -3.7001   -1.9683    0.5867 C.ar      1 <0>        -0.0559
     14 C11        -2.6072   -2.1000    1.4164 C.ar      1 <0>        -0.1358
     15 O1         -4.7376   -0.9593   -1.3035 O.3       1 <0>        -0.2266
     16 C12        -4.6383   -1.4352   -2.5634 C.2       1 <0>         0.5068
     17 N3         -3.5806   -2.0956   -2.9265 N.2       1 <0>        -0.6345
     18 C13        -3.4728   -2.6119   -4.2933 C.3       1 <0>         0.0224
     19 O2         -5.6388   -1.2245   -3.4457 O.3       1 <0>        -0.4909
     20 C14         0.0238   -2.1405    3.0942 C.3       1 <0>         0.0905
     21 C15         3.0087   -1.0454    1.5928 C.3       1 <0>        -0.0450
     22 H2          0.8083    2.1700    0.2180 H         1 <0>         0.0725
     23 H3         -0.7361    2.1127   -0.6652 H         1 <0>         0.0852
     24 H4         -0.7211    1.9882    1.1104 H         1 <0>         0.0759
     25 H5          0.2747   -1.1248   -1.6069 H         1 <0>         0.1057
     26 H6          0.7587    0.5784   -1.8973 H         1 <0>         0.1233
     27 H7          2.6581   -1.2312   -1.2530 H         1 <0>         0.1390
     28 H8          2.6971    0.3850   -0.4763 H         1 <0>         0.1379
     29 H9         -2.4788    0.3438   -1.5516 H         1 <0>         0.1344
     30 H10        -4.5905   -2.5508    0.7720 H         1 <0>         0.1460
     31 H11        -2.6452   -2.7858    2.2498 H         1 <0>         0.1374
     32 H12        -3.5212   -1.7831   -4.9996 H         1 <0>         0.0540
     33 H13        -2.5234   -3.1342   -4.4105 H         1 <0>         0.0911
     34 H14        -4.2937   -3.3025   -4.4866 H         1 <0>         0.0548
     35 H15        -5.4773   -1.6022   -4.3211 H         1 <0>         0.4255
     36 H16        -0.2674   -1.5795    3.9822 H         1 <0>         0.0730
     37 H17        -0.5461   -3.0685    3.0476 H         1 <0>         0.0899
     38 H18         1.0883   -2.3700    3.1423 H         1 <0>         0.0704
     39 H19         3.2642    0.0063    1.7221 H         1 <0>         0.1241
     40 H20         2.7772   -1.4850    2.5630 H         1 <0>         0.1183
     41 H21         3.8525   -1.5722    1.1472 H         1 <0>         0.1259
     42 H22         1.5894   -2.1301    0.5881 H         1 <0>         0.4242
@<TRIPOS>BOND
     1    1    2 1
     2    1   22 1
     3    1   23 1
     4    1   24 1
     5    2    6 1
     6    2   10 1
     7    2    3 1
     8    3    4 1
     9    3   25 1
    10    3   26 1
    11    4    5 1
    12    4   27 1
    13    4   28 1
    14    5    6 1
    15    5   21 1
    16    5   42 1
    17    6    7 1
    18    6    8 1
    19    8    9 1
    20    8   20 1
    21    9   14 ar
    22    9   10 ar
    23   10   11 ar
    24   11   12 ar
    25   11   29 1
    26   12   13 ar
    27   12   15 1
    28   13   14 ar
    29   13   30 1
    30   14   31 1
    31   15   16 1
    32   16   17 2
    33   16   19 1
    34   17   18 1
    35   18   32 1
    36   18   33 1
    37   18   34 1
    38   19   35 1
    39   20   36 1
    40   20   37 1
    41   20   38 1
    42   21   39 1
    43   21   40 1
    44   21   41 1
@<TRIPOS>MOLECULE
ZINC00016827
   30    32     0     0     0
SMALL
USER_CHARGES
1,2,3,4-tetrahydroacridin-9-amine
@<TRIPOS>ATOM
      1 C1         -2.2590   -4.1734    0.7266 C.ar      1 <0>        -0.1151
      2 C2         -1.1015   -4.8453    0.3414 C.ar      1 <0>        -0.0282
      3 C3          0.0181   -4.1626   -0.0240 C.ar      1 <0>        -0.1547
      4 C4          0.0125   -2.7569   -0.0146 C.ar      1 <0>         0.1855
      5 C5         -1.1660   -2.0778    0.3770 C.ar      1 <0>        -0.1377
      6 C6         -2.3011   -2.8116    0.7474 C.ar      1 <0>        -0.0565
      7 C7         -1.1623   -0.6653    0.3817 C.ar      1 <0>         0.3675
      8 C8          0.0021   -0.0041    0.0020 C.ar      1 <0>        -0.2105
      9 C9          1.1175   -0.7361   -0.3646 C.ar      1 <0>         0.2712
     10 C10         2.4120   -0.0754   -0.7701 C.3       1 <0>        -0.1168
     11 C11         2.1762    1.3865   -1.1417 C.3       1 <0>        -0.1213
     12 C12         1.4039    2.0583   -0.0003 C.3       1 <0>        -0.1267
     13 C13        -0.0183    1.5015    0.0103 C.3       1 <0>        -0.0727
     14 N1         -2.2920    0.0458    0.7563 N.pl3     1 <0>        -0.7940
     15 H1         -3.1340   -4.7385    1.0119 H         1 <0>         0.1511
     16 H2         -1.0919   -5.9252    0.3327 H         1 <0>         0.1529
     17 H3          0.9072   -4.6991   -0.3207 H         1 <0>         0.1539
     18 H4         -3.2041   -2.3007    1.0473 H         1 <0>         0.1465
     19 H5          3.1167   -0.1260    0.0600 H         1 <0>         0.1184
     20 H6          2.8304   -0.6013   -1.6283 H         1 <0>         0.1086
     21 H7          3.1338    1.8881   -1.2812 H         1 <0>         0.0939
     22 H8          1.5929    1.4414   -2.0609 H         1 <0>         0.0797
     23 H9          1.3752    3.1361   -0.1607 H         1 <0>         0.0897
     24 H10         1.8906    1.8408    0.9505 H         1 <0>         0.0760
     25 H11        -0.5506    1.8586   -0.8713 H         1 <0>         0.0921
     26 H12        -0.5337    1.8490    0.9057 H         1 <0>         0.0852
     27 H13        -2.2768    1.0157    0.7558 H         1 <0>         0.4265
     28 H14        -3.0975   -0.4265    1.0190 H         1 <0>         0.4221
     29 N2          1.1637   -2.1007   -0.3898 N.ar      1 <0>        -0.5514
     30 H15         2.0097   -2.6092   -0.6727 H         1 <0>         0.4649
@<TRIPOS>BOND
     1    1    6 ar
     2    1    2 ar
     3    1   15 1
     4    2    3 ar
     5    2   16 1
     6    3    4 ar
     7    3   17 1
     8    4    5 ar
     9    4   29 ar
    10    5    6 ar
    11    5    7 ar
    12    6   18 1
    13    7    8 ar
    14    7   14 1
    15    8   13 1
    16    8    9 ar
    17    9   10 1
    18    9   29 ar
    19   10   11 1
    20   10   19 1
    21   10   20 1
    22   11   12 1
    23   11   21 1
    24   11   22 1
    25   12   13 1
    26   12   23 1
    27   12   24 1
    28   13   25 1
    29   13   26 1
    30   14   27 1
    31   14   28 1
    32   29   30 1
