@<TRIPOS>MOLECULE
ZINC06525315
   25    26     0     0     0
SMALL
USER_CHARGES
3-(azetidin-2-ylmethoxy)-2-fluoro-pyridine
@<TRIPOS>ATOM
      1 C1          1.7767   -0.5074   -3.1314 C.ar      1 <0>        -0.1390
      2 C2          1.1669    0.1527   -2.0749 C.ar      1 <0>        -0.1326
      3 C3          0.6061   -0.6074   -1.0562 C.ar      1 <0>         0.0398
      4 C4          0.6664   -1.9943   -1.1374 C.ar      1 <0>         0.2992
      5 N1          1.2519   -2.5828   -2.1630 N.ar      1 <0>        -0.4717
      6 C5          1.7982   -1.8881   -3.1430 C.ar      1 <0>         0.1183
      7 F1          0.1208   -2.7463   -0.1566 F         1 <0>        -0.1011
      8 O1          0.0021   -0.0041    0.0020 O.3       1 <0>        -0.3070
      9 C6         -0.0173    1.4248    0.0099 C.3       1 <0>         0.0437
     10 C7         -0.7334    1.9182    1.2687 C.3       1 <0>         0.0138
     11 H1         -1.6681    1.3897    1.4563 H         1 <0>         0.1745
     12 C8         -0.8689    3.4458    1.3361 C.3       1 <0>        -0.1667
     13 C9         -0.5657    3.2343    2.8261 C.3       1 <0>        -0.0227
     14 H2          2.2262    0.0524   -3.9383 H         1 <0>         0.1565
     15 H3          1.1323    1.2317   -2.0430 H         1 <0>         0.1507
     16 H4          2.2683   -2.4065   -3.9656 H         1 <0>         0.1803
     17 H5          1.0053    1.8021    0.0021 H         1 <0>         0.0891
     18 H6         -0.5445    1.7859   -0.8732 H         1 <0>         0.1145
     19 H7         -0.0927    3.9870    0.7951 H         1 <0>         0.1292
     20 H8         -1.8745    3.8141    1.1332 H         1 <0>         0.1322
     21 H9         -1.4561    3.0580    3.4296 H         1 <0>         0.1557
     22 H10         0.0864    3.9979    3.2501 H         1 <0>         0.1552
     23 N2          0.0393    2.0739    2.3977 N.4       1 <0>        -0.4741
     24 H11         1.0351    2.2017    2.1825 H         1 <0>         0.4375
     25 H12        -0.0704    1.3000    3.0635 H         1 <0>         0.4249
@<TRIPOS>BOND
     1    1    6 ar
     2    1    2 ar
     3    1   14 1
     4    2    3 ar
     5    2   15 1
     6    3    4 ar
     7    3    8 1
     8    4    5 ar
     9    4    7 1
    10    5    6 ar
    11    6   16 1
    12    8    9 1
    13    9   10 1
    14    9   17 1
    15    9   18 1
    16   10   11 1
    17   10   12 1
    18   10   23 1
    19   12   13 1
    20   12   19 1
    21   12   20 1
    22   13   21 1
    23   13   22 1
    24   13   23 1
    25   23   24 1
    26   23   25 1
