@<TRIPOS>MOLECULE
ZINC00005030
   30    32     0     0     0
SMALL
USER_CHARGES
3-(6-chloropyrazin-2-yl)quinuclidine
@<TRIPOS>ATOM
      1 C1         -0.1117    4.4052    0.0258 C.ar      1 <0>         0.0384
      2 C2          1.0958    3.7301    0.0112 C.ar      1 <0>         0.0904
      3 N1          1.1145    2.4088    0.0044 N.ar      1 <0>        -0.4189
      4 C3         -0.0215    1.7317    0.0116 C.ar      1 <0>         0.1359
      5 C4         -1.2302    2.4083    0.0209 C.ar      1 <0>         0.0849
      6 N2         -1.2473    3.7293    0.0326 N.ar      1 <0>        -0.4057
      7 Cl1         0.0021   -0.0041    0.0020 Cl        1 <0>         0.0177
      8 C5          2.3902    4.5019    0.0035 C.3       1 <0>        -0.0443
      9 H1          3.1755    3.8934   -0.4450 H         1 <0>         0.1343
     10 C6          2.2136    5.7920   -0.8025 C.3       1 <0>        -0.0036
     11 C7          1.5175    6.9996    1.1789 C.3       1 <0>        -0.0069
     12 C8          1.6740    5.7436    2.0409 C.3       1 <0>        -0.1449
     13 C9          2.7800    4.8660    1.4415 C.3       1 <0>        -0.0933
     14 C10         4.0925    5.6592    1.4067 C.3       1 <0>        -0.1296
     15 C11         3.8581    6.9343    0.5612 C.3       1 <0>        -0.0052
     16 H2         -0.1263    5.4851    0.0314 H         1 <0>         0.1668
     17 H3         -2.1583    1.8561    0.0223 H         1 <0>         0.1915
     18 H4          2.9145    5.7981   -1.6372 H         1 <0>         0.1438
     19 H5          1.1937    5.8462   -1.1832 H         1 <0>         0.1322
     20 H6          0.5026    7.0456    0.7841 H         1 <0>         0.1272
     21 H7          1.7122    7.8838    1.7859 H         1 <0>         0.1371
     22 H8          0.7351    5.1901    2.0535 H         1 <0>         0.0966
     23 H9          1.9451    6.0296    3.0572 H         1 <0>         0.1092
     24 H10         2.9045    3.9613    2.0367 H         1 <0>         0.1208
     25 H11         4.3737    5.9447    2.4204 H         1 <0>         0.1060
     26 H12         4.8786    5.0455    0.9668 H         1 <0>         0.1069
     27 H13         4.5472    6.9330   -0.2833 H         1 <0>         0.1313
     28 H14         4.0341    7.8192    1.1728 H         1 <0>         0.1327
     29 N3          2.4714    6.9727    0.0497 N.4       1 <0>        -0.3896
     30 H15         2.3467    7.8229   -0.5123 H         1 <0>         0.4381
@<TRIPOS>BOND
     1    1    6 ar
     2    1    2 ar
     3    1   16 1
     4    2    3 ar
     5    2    8 1
     6    3    4 ar
     7    4    5 ar
     8    4    7 1
     9    5    6 ar
    10    5   17 1
    11    8    9 1
    12    8   13 1
    13    8   10 1
    14   10   18 1
    15   10   19 1
    16   10   29 1
    17   11   12 1
    18   11   20 1
    19   11   21 1
    20   11   29 1
    21   12   13 1
    22   12   22 1
    23   12   23 1
    24   13   14 1
    25   13   24 1
    26   14   15 1
    27   14   25 1
    28   14   26 1
    29   15   27 1
    30   15   28 1
    31   15   29 1
    32   29   30 1
@<TRIPOS>MOLECULE
ZINC00005359
   30    32     0     0     0
SMALL
USER_CHARGES
3-(6-chloropyrazin-2-yl)quinuclidine
@<TRIPOS>ATOM
      1 C1         -1.6425   -1.0235   -2.0704 C.ar      1 <0>         0.0386
      2 C2         -0.2952   -1.3380   -2.0705 C.ar      1 <0>         0.0904
      3 N1          0.1419   -2.3735   -2.7655 N.ar      1 <0>        -0.4188
      4 C3         -0.7104   -3.1156   -3.4523 C.ar      1 <0>         0.1358
      5 C4         -2.0592   -2.8004   -3.4514 C.ar      1 <0>         0.0849
      6 N2         -2.4940   -1.7616   -2.7605 N.ar      1 <0>        -0.4057
      7 Cl1        -0.1381   -4.4803   -4.3600 Cl        1 <0>         0.0177
      8 C5          0.6750   -0.4958   -1.2827 C.3       1 <0>        -0.0442
      9 H1          1.5547   -1.0880   -1.0307 H         1 <0>         0.1343
     10 C6          0.0021   -0.0041    0.0020 C.3       1 <0>        -0.0034
     11 C7          1.3461    2.0114    0.0000 C.3       1 <0>        -0.0051
     12 C8          2.0731    1.5660   -1.2918 C.3       1 <0>        -0.1298
     13 C9          1.0959    0.7200   -2.1177 C.3       1 <0>        -0.0933
     14 C10        -0.1530    1.5529   -2.4331 C.3       1 <0>        -0.1454
     15 C11        -0.8025    1.9884   -1.1166 C.3       1 <0>        -0.0068
     16 H2         -1.9985   -0.1745   -1.5057 H         1 <0>         0.1668
     17 H3         -2.7552   -3.4034   -4.0157 H         1 <0>         0.1915
     18 H4          0.5602   -0.3649    0.8659 H         1 <0>         0.1438
     19 H5         -1.0195   -0.3818    0.0450 H         1 <0>         0.1321
     20 H6          1.3021    3.0998    0.0407 H         1 <0>         0.1327
     21 H7          1.8945    1.6366    0.8643 H         1 <0>         0.1314
     22 H8          2.9559    0.9737   -1.0512 H         1 <0>         0.1068
     23 H9          2.3684    2.4456   -1.8638 H         1 <0>         0.1061
     24 H10         1.5718    0.3932   -3.0422 H         1 <0>         0.1207
     25 H11         0.1312    2.4336   -3.0090 H         1 <0>         0.1092
     26 H12        -0.8571    0.9518   -3.0086 H         1 <0>         0.0968
     27 H13        -1.8185    1.5969   -1.0653 H         1 <0>         0.1272
     28 H14        -0.8289    3.0769   -1.0667 H         1 <0>         0.1371
     29 N3         -0.0307    1.4740    0.0347 N.4       1 <0>        -0.3896
     30 H15        -0.4854    1.7781    0.9036 H         1 <0>         0.4382
@<TRIPOS>BOND
     1    1    6 ar
     2    1    2 ar
     3    1   16 1
     4    2    3 ar
     5    2    8 1
     6    3    4 ar
     7    4    5 ar
     8    4    7 1
     9    5    6 ar
    10    5   17 1
    11    8    9 1
    12    8   13 1
    13    8   10 1
    14   10   18 1
    15   10   19 1
    16   10   29 1
    17   11   12 1
    18   11   20 1
    19   11   21 1
    20   11   29 1
    21   12   13 1
    22   12   22 1
    23   12   23 1
    24   13   14 1
    25   13   24 1
    26   14   15 1
    27   14   25 1
    28   14   26 1
    29   15   27 1
    30   15   28 1
    31   15   29 1
    32   29   30 1
@<TRIPOS>MOLECULE
ZINC05160057
   40    41     0     0     0
SMALL
USER_CHARGES
1-[2-(3-pyrrolidin-1-ylprop-1-ynyl)-1-piperidyl]ethanone
@<TRIPOS>ATOM
      1 C1          7.8536    1.1026    2.1619 C.3       1 <0>        -0.1818
      2 C2          7.1213    2.1564    1.3718 C.2       1 <0>         0.5181
      3 O1          7.3539    2.2993    0.1901 O.2       1 <0>        -0.5360
      4 N1          6.2079    2.9401    1.9784 N.am      1 <0>        -0.6121
      5 C3          5.8368    2.7092    3.3812 C.3       1 <0>         0.0993
      6 C4          6.0130    4.0169    4.1594 C.3       1 <0>        -0.1407
      7 C5          5.2137    5.1265    3.4723 C.3       1 <0>        -0.1226
      8 C6          5.7438    5.3346    2.0518 C.3       1 <0>        -0.1261
      9 C7          5.5646    4.0418    1.2497 C.3       1 <0>         0.2329
     10 H1          6.0271    4.1532    0.2689 H         1 <0>         0.1337
     11 C8          4.1297    3.7558    1.0889 C.1       1 <0>        -0.0464
     12 C9          2.9852    3.5276    0.9607 C.1       1 <0>        -0.2749
     13 C10         1.5503    3.2415    0.7999 C.3       1 <0>         0.1452
     14 C11        -0.0278    1.5530    0.0507 C.3       1 <0>        -0.0091
     15 C12        -0.0119    0.0132    0.0482 C.3       1 <0>        -0.1466
     16 C13         1.4845   -0.3751    0.0574 C.3       1 <0>        -0.1468
     17 C14         2.1679    0.8926    0.6287 C.3       1 <0>        -0.0049
     18 H2          7.4475    1.0584    3.1725 H         1 <0>         0.0859
     19 H3          7.7296    0.1339    1.6778 H         1 <0>         0.0993
     20 H4          8.9135    1.3532    2.2069 H         1 <0>         0.1040
     21 H5          6.4811    1.9405    3.8078 H         1 <0>         0.1023
     22 H6          4.7965    2.3887    3.4360 H         1 <0>         0.0663
     23 H7          7.0684    4.2885    4.1804 H         1 <0>         0.0765
     24 H8          5.6507    3.8857    5.1791 H         1 <0>         0.0833
     25 H9          5.3175    6.0524    4.0379 H         1 <0>         0.0779
     26 H10         4.1621    4.8430    3.4295 H         1 <0>         0.0614
     27 H11         6.8018    5.5937    2.0926 H         1 <0>         0.0893
     28 H12         5.1897    6.1408    1.5711 H         1 <0>         0.0848
     29 H13         1.0726    4.0657    0.2702 H         1 <0>         0.1504
     30 H14         1.0907    3.1255    1.7814 H         1 <0>         0.1444
     31 H15        -0.5472    1.9204   -0.8343 H         1 <0>         0.1365
     32 H16        -0.5207    1.9178    0.9519 H         1 <0>         0.1335
     33 H17        -0.5080   -0.3717    0.9391 H         1 <0>         0.1040
     34 H18        -0.4979   -0.3687   -0.8496 H         1 <0>         0.1061
     35 H19         1.6566   -1.2325    0.7080 H         1 <0>         0.1158
     36 H20         1.8359   -0.5802   -0.9538 H         1 <0>         0.0982
     37 H21         2.0949    0.9121    1.7160 H         1 <0>         0.1315
     38 H22         3.2101    0.9431    0.3134 H         1 <0>         0.1315
     39 N2          1.3778    1.9738    0.0285 N.4       1 <0>        -0.3970
     40 H23         1.6796    2.1261   -0.9410 H         1 <0>         0.4329
@<TRIPOS>BOND
     1    1    2 1
     2    1   18 1
     3    1   19 1
     4    1   20 1
     5    2    3 2
     6    2    4 am
     7    4    9 1
     8    4    5 1
     9    5    6 1
    10    5   21 1
    11    5   22 1
    12    6    7 1
    13    6   23 1
    14    6   24 1
    15    7    8 1
    16    7   25 1
    17    7   26 1
    18    8    9 1
    19    8   27 1
    20    8   28 1
    21    9   10 1
    22    9   11 1
    23   11   12 3
    24   12   13 1
    25   13   29 1
    26   13   30 1
    27   13   39 1
    28   14   15 1
    29   14   31 1
    30   14   32 1
    31   14   39 1
    32   15   16 1
    33   15   33 1
    34   15   34 1
    35   16   17 1
    36   16   35 1
    37   16   36 1
    38   17   37 1
    39   17   38 1
    40   17   39 1
    41   39   40 1
@<TRIPOS>MOLECULE
ZINC05160067
   40    41     0     0     0
SMALL
USER_CHARGES
1-[2-(3-pyrrolidin-1-ylprop-1-ynyl)-1-piperidyl]ethanone
@<TRIPOS>ATOM
      1 C1         -4.6353    2.4818   -1.2400 C.3       1 <0>        -0.1852
      2 C2         -4.0129    2.0178    0.0517 C.2       1 <0>         0.5251
      3 O1         -4.5822    2.2149    1.1043 O.2       1 <0>        -0.5553
      4 N1         -2.8236    1.3839    0.0372 N.am      1 <0>        -0.6089
      5 C3         -2.1802    1.0285   -1.2350 C.3       1 <0>         0.0978
      6 C4         -0.7561    1.5929   -1.2419 C.3       1 <0>        -0.1410
      7 C5         -0.0098    1.0987   -0.0005 C.3       1 <0>        -0.1231
      8 C6         -0.7222    1.5998    1.2579 C.3       1 <0>        -0.1268
      9 C7         -2.1457    1.0355    1.2932 C.3       1 <0>         0.2445
     10 H1         -2.1065   -0.0487    1.3988 H         1 <0>         0.1072
     11 C8         -2.8815    1.6156    2.4285 C.1       1 <0>        -0.0380
     12 C9         -3.4684    2.0782    3.3340 C.1       1 <0>        -0.2555
     13 C10        -4.2042    2.6583    4.4692 C.3       1 <0>         0.1520
     14 C11        -2.0858    2.6746    5.6694 C.3       1 <0>         0.0005
     15 C12        -1.6801    2.7397    7.1632 C.3       1 <0>        -0.1474
     16 C13        -2.9315    3.3501    7.8351 C.3       1 <0>        -0.1456
     17 C14        -4.0902    3.0644    6.8619 C.3       1 <0>        -0.0105
     18 H2         -4.0304    2.1377   -2.0789 H         1 <0>         0.0882
     19 H3         -5.6419    2.0726   -1.3259 H         1 <0>         0.0988
     20 H4         -4.6837    3.5707   -1.2495 H         1 <0>         0.0999
     21 H5         -2.7465    1.4556   -2.0627 H         1 <0>         0.1025
     22 H6         -2.1440   -0.0560   -1.3382 H         1 <0>         0.0809
     23 H7         -0.7964    2.6821   -1.2326 H         1 <0>         0.0716
     24 H8         -0.2353    1.2553   -2.1379 H         1 <0>         0.0875
     25 H9          0.0086    0.0089    0.0022 H         1 <0>         0.0724
     26 H10         1.0115    1.4791   -0.0154 H         1 <0>         0.0796
     27 H11        -0.1773    1.2671    2.1413 H         1 <0>         0.0856
     28 H12        -0.7628    2.6890    1.2436 H         1 <0>         0.0747
     29 H13        -4.2379    3.7427    4.3644 H         1 <0>         0.1381
     30 H14        -5.2199    2.2629    4.4840 H         1 <0>         0.1433
     31 H15        -1.5130    1.9076    5.1482 H         1 <0>         0.1332
     32 H16        -1.9538    3.6457    5.1922 H         1 <0>         0.1288
     33 H17        -0.8142    3.3876    7.2999 H         1 <0>         0.1139
     34 H18        -1.4814    1.7413    7.5528 H         1 <0>         0.0965
     35 H19        -2.8041    4.4246    7.9666 H         1 <0>         0.1029
     36 H20        -3.1172    2.8700    8.7959 H         1 <0>         0.1042
     37 H21        -4.5183    4.0025    6.5086 H         1 <0>         0.1316
     38 H22        -4.8550    2.4684    7.3599 H         1 <0>         0.1336
     39 N2         -3.5103    2.3145    5.7468 N.4       1 <0>        -0.3937
     40 H23        -3.6045    1.3069    5.9204 H         1 <0>         0.4358
@<TRIPOS>BOND
     1    1    2 1
     2    1   18 1
     3    1   19 1
     4    1   20 1
     5    2    3 2
     6    2    4 am
     7    4    9 1
     8    4    5 1
     9    5    6 1
    10    5   21 1
    11    5   22 1
    12    6    7 1
    13    6   23 1
    14    6   24 1
    15    7    8 1
    16    7   25 1
    17    7   26 1
    18    8    9 1
    19    8   27 1
    20    8   28 1
    21    9   10 1
    22    9   11 1
    23   11   12 3
    24   12   13 1
    25   13   29 1
    26   13   30 1
    27   13   39 1
    28   14   15 1
    29   14   31 1
    30   14   32 1
    31   14   39 1
    32   15   16 1
    33   15   33 1
    34   15   34 1
    35   16   17 1
    36   16   35 1
    37   16   36 1
    38   17   37 1
    39   17   38 1
    40   17   39 1
    41   39   40 1
@<TRIPOS>MOLECULE
ZINC01530613
   58    59     0     0     0
SMALL
USER_CHARGES

@<TRIPOS>ATOM
      1 C1          0.1106    1.0426   -2.4306 C.3       1 <0>        -0.1879
      2 C2          0.1015   -0.4827   -2.5492 C.3       1 <0>        -0.0193
      3 N1          0.9690   -1.0596   -1.5136 N.4       1 <0>        -0.3890
      4 C3          0.4078   -0.7696   -0.1874 C.3       1 <0>        -0.0167
      5 C4          1.3816   -1.2438    0.8933 C.3       1 <0>        -0.1894
      6 C5          1.0553   -2.5140   -1.7015 C.3       1 <0>        -0.0071
      7 C6          1.7598   -2.8163   -3.0256 C.3       1 <0>         0.0189
      8 O1          3.1110   -2.3557   -2.9622 O.3       1 <0>        -0.3537
      9 C7          3.8432   -2.4589   -4.0825 C.2       1 <0>         0.4794
     10 O2          3.3281   -2.8367   -5.1082 O.2       1 <0>        -0.4725
     11 C8          5.3075   -2.1037   -4.0610 C.3       1 <0>        -0.0362
     12 C9          5.4707   -0.6376   -3.6550 C.3       1 <0>        -0.1161
     13 C10         4.8738   -0.4246   -2.2625 C.3       1 <0>        -0.1234
     14 C11         5.6004   -1.3169   -1.2542 C.3       1 <0>        -0.1202
     15 C12         5.4371   -2.7830   -1.6602 C.3       1 <0>        -0.1311
     16 C13         6.0341   -2.9960   -3.0527 C.3       1 <0>        -0.1160
     17 C14         5.9045   -2.3167   -5.4536 C.3       1 <0>        -0.0689
     18 C15         5.7413   -3.7828   -5.8596 C.3       1 <0>        -0.1291
     19 C16         6.3382   -3.9958   -7.2522 C.3       1 <0>        -0.1181
     20 C17         5.6117   -3.1034   -8.2605 C.3       1 <0>        -0.1200
     21 C18         5.7749   -1.6373   -7.8544 C.3       1 <0>        -0.1180
     22 C19         5.1779   -1.4243   -6.4619 C.3       1 <0>        -0.1282
     23 H1         -0.2565    1.3327   -1.4461 H         1 <0>         0.0823
     24 H2          1.1279    1.4112   -2.5621 H         1 <0>         0.0802
     25 H3         -0.5332    1.4707   -3.1990 H         1 <0>         0.1078
     26 H4         -0.9159   -0.8513   -2.4177 H         1 <0>         0.1329
     27 H5          0.4686   -0.7728   -3.5337 H         1 <0>         0.1281
     28 H6          0.2485    0.3040   -0.0871 H         1 <0>         0.1341
     29 H7         -0.5430   -1.2903   -0.0734 H         1 <0>         0.1310
     30 H8          2.3170   -0.6908    0.8074 H         1 <0>         0.0819
     31 H9          0.9456   -1.0697    1.8770 H         1 <0>         0.1075
     32 H10         1.5759   -2.3087    0.7653 H         1 <0>         0.0803
     33 H11         1.6213   -2.9535   -0.8802 H         1 <0>         0.1447
     34 H12         0.0514   -2.9383   -1.7189 H         1 <0>         0.1500
     35 H13         1.7504   -3.8914   -3.2050 H         1 <0>         0.1138
     36 H14         1.2403   -2.3079   -3.8379 H         1 <0>         0.0925
     37 H15         6.5299   -0.3806   -3.6395 H         1 <0>         0.0889
     38 H16         4.9531   -0.0018   -4.3733 H         1 <0>         0.0739
     39 H17         4.9901    0.6199   -1.9732 H         1 <0>         0.0695
     40 H18         3.8146   -0.6815   -2.2780 H         1 <0>         0.0584
     41 H19         6.6595   -1.0600   -1.2386 H         1 <0>         0.0690
     42 H20         5.1751   -1.1652   -0.2621 H         1 <0>         0.0622
     43 H21         5.9548   -3.4188   -0.9419 H         1 <0>         0.0693
     44 H22         4.3780   -3.0400   -1.6757 H         1 <0>         0.0763
     45 H23         5.9178   -4.0405   -3.3420 H         1 <0>         0.0749
     46 H24         7.0933   -2.7391   -3.0372 H         1 <0>         0.0867
     47 H25         6.9636   -2.0597   -5.4381 H         1 <0>         0.0877
     48 H26         6.2589   -4.4185   -5.1413 H         1 <0>         0.0602
     49 H27         4.6821   -4.0397   -5.8752 H         1 <0>         0.0819
     50 H28         7.3974   -3.7388   -7.2366 H         1 <0>         0.0614
     51 H29         6.2219   -5.0403   -7.5414 H         1 <0>         0.0629
     52 H30         6.0369   -3.2552   -9.2525 H         1 <0>         0.0622
     53 H31         4.5525   -3.3604   -8.2760 H         1 <0>         0.0617
     54 H32         6.8340   -1.3804   -7.8389 H         1 <0>         0.0613
     55 H33         5.2573   -1.0016   -8.5728 H         1 <0>         0.0622
     56 H34         4.1188   -1.6813   -6.4774 H         1 <0>         0.0822
     57 H35         5.2942   -0.3798   -6.1726 H         1 <0>         0.0584
     58 H36         1.8911   -0.6561   -1.5842 H         1 <0>         0.4246
@<TRIPOS>BOND
     1    1    2 1
     2    1   23 1
     3    1   24 1
     4    1   25 1
     5    2    3 1
     6    2   26 1
     7    2   27 1
     8    3    4 1
     9    3    6 1
    10    3   58 1
    11    4    5 1
    12    4   28 1
    13    4   29 1
    14    5   30 1
    15    5   31 1
    16    5   32 1
    17    6    7 1
    18    6   33 1
    19    6   34 1
    20    7    8 1
    21    7   35 1
    22    7   36 1
    23    8    9 1
    24    9   10 2
    25    9   11 1
    26   11   16 1
    27   11   12 1
    28   11   17 1
    29   12   13 1
    30   12   37 1
    31   12   38 1
    32   13   14 1
    33   13   39 1
    34   13   40 1
    35   14   15 1
    36   14   41 1
    37   14   42 1
    38   15   16 1
    39   15   43 1
    40   15   44 1
    41   16   45 1
    42   16   46 1
    43   17   22 1
    44   17   18 1
    45   17   47 1
    46   18   19 1
    47   18   48 1
    48   18   49 1
    49   19   20 1
    50   19   50 1
    51   19   51 1
    52   20   21 1
    53   20   52 1
    54   20   53 1
    55   21   22 1
    56   21   54 1
    57   21   55 1
    58   22   56 1
    59   22   57 1
@<TRIPOS>MOLECULE
ZINC13776229
   58    61     0     0     0
SMALL
USER_CHARGES

@<TRIPOS>ATOM
      1 C1         -0.0187    1.5258    0.0104 C.3       1 <0>        -0.1585
      2 C2          0.0021   -0.0041    0.0020 C.3       1 <0>        -0.1208
      3 C3          0.7182   -0.4975   -1.2568 C.3       1 <0>        -0.1457
      4 C4          0.7390   -2.0273   -1.2652 C.3       1 <0>        -0.0053
      5 N1          1.4265   -2.5011   -2.4738 N.4       1 <0>        -0.3951
      6 C5          0.5944   -2.2526   -3.6811 C.3       1 <0>         0.0350
      7 H1          0.1580   -1.2538   -3.6829 H         1 <0>         0.1446
      8 C6         -0.4825   -3.3610   -3.6348 C.3       1 <0>        -0.1411
      9 C7          0.1606   -4.5033   -2.8211 C.3       1 <0>        -0.1345
     10 C8          1.5678   -3.9813   -2.4497 C.3       1 <0>         0.0355
     11 H2          1.9004   -4.3482   -1.4787 H         1 <0>         0.1478
     12 C9          2.5273   -4.3660   -3.5873 C.3       1 <0>        -0.1364
     13 C10         1.8857   -3.9890   -4.9257 C.3       1 <0>         0.0772
     14 C11         1.4876   -2.4964   -4.9081 C.3       1 <0>        -0.1644
     15 O1          0.7256   -4.7952   -5.1406 O.3       1 <0>        -0.3517
     16 C12         0.4422   -5.0506   -6.5177 C.3       1 <0>         0.1739
     17 C13         1.1464   -6.3108   -6.9503 C.ar      1 <0>        -0.1325
     18 C14         1.1927   -7.4018   -6.1025 C.ar      1 <0>        -0.0632
     19 C15         1.8378   -8.5581   -6.4983 C.ar      1 <0>        -0.1554
     20 C16         2.4379   -8.6236   -7.7443 C.ar      1 <0>         0.1125
     21 C17         2.3909   -7.5303   -8.5925 C.ar      1 <0>        -0.1516
     22 C18         1.7407   -6.3768   -8.1967 C.ar      1 <0>        -0.0774
     23 F1          3.0692   -9.7534   -8.1321 F         1 <0>        -0.1332
     24 C19        -1.0442   -5.2172   -6.7022 C.ar      1 <0>        -0.1061
     25 C20        -1.8003   -5.8156   -5.7116 C.ar      1 <0>        -0.0676
     26 C21        -3.1635   -5.9685   -5.8794 C.ar      1 <0>        -0.1545
     27 C22        -3.7719   -5.5220   -7.0403 C.ar      1 <0>         0.1122
     28 C23        -3.0136   -4.9228   -8.0318 C.ar      1 <0>        -0.1493
     29 C24        -1.6514   -4.7663   -7.8594 C.ar      1 <0>        -0.0758
     30 F2         -5.1044   -5.6714   -7.2057 F         1 <0>        -0.1330
     31 H3          1.0039    1.9031    0.0027 H         1 <0>         0.0588
     32 H4         -0.5459    1.8868   -0.8726 H         1 <0>         0.0585
     33 H5         -0.5289    1.8773    0.9072 H         1 <0>         0.0666
     34 H6          0.5293   -0.3651    0.8851 H         1 <0>         0.0727
     35 H7         -1.0205   -0.3814    0.0098 H         1 <0>         0.0724
     36 H8          0.1910   -0.1364   -2.1398 H         1 <0>         0.0831
     37 H9          1.7408   -0.1202   -1.2645 H         1 <0>         0.0840
     38 H10         1.2661   -2.3884   -0.3821 H         1 <0>         0.1267
     39 H11        -0.2836   -2.4046   -1.2575 H         1 <0>         0.1283
     40 H12        -1.3799   -2.9973   -3.1342 H         1 <0>         0.0832
     41 H13        -0.7207   -3.7008   -4.6427 H         1 <0>         0.1350
     42 H14        -0.4205   -4.7012   -1.9204 H         1 <0>         0.0872
     43 H15         0.2387   -5.4047   -3.4290 H         1 <0>         0.1315
     44 H16         3.4679   -3.8281   -3.4690 H         1 <0>         0.0994
     45 H17         2.7128   -5.4397   -3.5610 H         1 <0>         0.1205
     46 H18         2.5998   -4.1606   -5.7312 H         1 <0>         0.0948
     47 H19         0.9338   -2.2573   -5.8160 H         1 <0>         0.1134
     48 H20         2.3757   -1.8678   -4.8438 H         1 <0>         0.0980
     49 H21         0.7917   -4.2134   -7.1219 H         1 <0>         0.0867
     50 H22         0.7248   -7.3504   -5.1305 H         1 <0>         0.1333
     51 H23         1.8741   -9.4102   -5.8357 H         1 <0>         0.1386
     52 H24         2.8589   -7.5801   -9.5646 H         1 <0>         0.1403
     53 H25         1.7001   -5.5254   -8.8599 H         1 <0>         0.1329
     54 H26        -1.3255   -6.1640   -4.8063 H         1 <0>         0.1347
     55 H27        -3.7540   -6.4363   -5.1056 H         1 <0>         0.1389
     56 H28        -3.4871   -4.5745   -8.9378 H         1 <0>         0.1413
     57 H29        -1.0603   -4.2949   -8.6307 H         1 <0>         0.1342
     58 H30         2.3292   -2.0595   -2.5649 H         1 <0>         0.4195
@<TRIPOS>BOND
     1    1    2 1
     2    1   31 1
     3    1   32 1
     4    1   33 1
     5    2    3 1
     6    2   34 1
     7    2   35 1
     8    3    4 1
     9    3   36 1
    10    3   37 1
    11    4    5 1
    12    4   38 1
    13    4   39 1
    14    5   10 1
    15    5    6 1
    16    5   58 1
    17    6    7 1
    18    6   14 1
    19    6    8 1
    20    8    9 1
    21    8   40 1
    22    8   41 1
    23    9   10 1
    24    9   42 1
    25    9   43 1
    26   10   11 1
    27   10   12 1
    28   12   13 1
    29   12   44 1
    30   12   45 1
    31   13   14 1
    32   13   15 1
    33   13   46 1
    34   14   47 1
    35   14   48 1
    36   15   16 1
    37   16   17 1
    38   16   24 1
    39   16   49 1
    40   17   22 ar
    41   17   18 ar
    42   18   19 ar
    43   18   50 1
    44   19   20 ar
    45   19   51 1
    46   20   21 ar
    47   20   23 1
    48   21   22 ar
    49   21   52 1
    50   22   53 1
    51   24   29 ar
    52   24   25 ar
    53   25   26 ar
    54   25   54 1
    55   26   27 ar
    56   26   55 1
    57   27   28 ar
    58   27   30 1
    59   28   29 ar
    60   28   56 1
    61   29   57 1
@<TRIPOS>MOLECULE
ZINC11616188
   54    58     0     0     0
SMALL
USER_CHARGES
[(3R)-quinuclidin-3-yl] (1R)-1-phenyl-3,4-dihydro-1H-isoquinoline-2-carboxylate
@<TRIPOS>ATOM
      1 C1          6.0497    1.4844    2.8274 C.ar      1 <0>        -0.1142
      2 C2          6.2524    1.7300    1.4822 C.ar      1 <0>        -0.1136
      3 C3          5.4896    1.0708    0.5366 C.ar      1 <0>        -0.1050
      4 C4          4.5243    0.1654    0.9360 C.ar      1 <0>        -0.0583
      5 C5          4.3180   -0.0764    2.2813 C.ar      1 <0>        -0.0763
      6 C6          5.0838    0.5797    3.2269 C.ar      1 <0>        -0.1193
      7 C7          3.6927   -0.5534   -0.0949 C.3       1 <0>         0.2460
      8 H1          3.9318   -0.1677   -1.0860 H         1 <0>         0.0987
      9 C8          2.2299   -0.3259    0.1928 C.ar      1 <0>        -0.0967
     10 C9          1.8114    0.9765    0.4296 C.ar      1 <0>        -0.0982
     11 C10         0.4835    1.2498    0.6853 C.ar      1 <0>        -0.1144
     12 C11        -0.4370    0.2183    0.7055 C.ar      1 <0>        -0.1080
     13 C12        -0.0217   -1.0763    0.4745 C.ar      1 <0>        -0.1193
     14 C13         1.3161   -1.3552    0.2215 C.ar      1 <0>        -0.0744
     15 C14         1.7002   -2.7951    0.0046 C.3       1 <0>        -0.0958
     16 C15         3.0432   -2.8972   -0.7167 C.3       1 <0>         0.1103
     17 N1          3.9882   -1.9893   -0.0456 N.am      1 <0>        -0.5843
     18 C16         5.0806   -2.4588    0.5890 C.2       1 <0>         0.6458
     19 O1          5.8045   -1.6958    1.1975 O.2       1 <0>        -0.5314
     20 O2          5.3697   -3.7731    0.5486 O.3       1 <0>        -0.3586
     21 C17         6.5618   -4.2078    1.2546 C.3       1 <0>         0.1017
     22 H2          7.2998   -3.4056    1.2536 H         1 <0>         0.1241
     23 C18         6.1999   -4.5703    2.6978 C.3       1 <0>        -0.0188
     24 C19         7.9704   -6.2214    2.7855 C.3       1 <0>        -0.0045
     25 C20         8.3830   -5.9051    1.3452 C.3       1 <0>        -0.1339
     26 C21         7.1448   -5.4472    0.5642 C.3       1 <0>        -0.0975
     27 C22         6.0982   -6.5678    0.6055 C.3       1 <0>        -0.1347
     28 C23         5.7495   -6.8654    2.0665 C.3       1 <0>        -0.0015
     29 H3          6.6461    1.9989    3.5662 H         1 <0>         0.1186
     30 H4          7.0070    2.4368    1.1701 H         1 <0>         0.1208
     31 H5          5.6480    1.2627   -0.5144 H         1 <0>         0.1171
     32 H6          3.5609   -0.7804    2.5936 H         1 <0>         0.1038
     33 H7          4.9256    0.3875    4.2778 H         1 <0>         0.1146
     34 H8          2.5308    1.7819    0.4136 H         1 <0>         0.1255
     35 H9          0.1643    2.2651    0.8686 H         1 <0>         0.1284
     36 H10        -1.4793    0.4265    0.8971 H         1 <0>         0.1272
     37 H11        -0.7423   -1.8806    0.4907 H         1 <0>         0.1244
     38 H12         1.7729   -3.2960    0.9700 H         1 <0>         0.0773
     39 H13         0.9329   -3.2843   -0.5954 H         1 <0>         0.0935
     40 H14         2.9252   -2.6017   -1.7592 H         1 <0>         0.0852
     41 H15         3.4143   -3.9207   -0.6635 H         1 <0>         0.0974
     42 H16         6.7657   -3.9400    3.3839 H         1 <0>         0.1413
     43 H17         5.1329   -4.4131    2.8556 H         1 <0>         0.1346
     44 H18         8.5235   -5.5798    3.4714 H         1 <0>         0.1310
     45 H19         8.1910   -7.2658    3.0060 H         1 <0>         0.1332
     46 H20         8.7984   -6.7989    0.8796 H         1 <0>         0.1115
     47 H21         9.1302   -5.1115    1.3432 H         1 <0>         0.1051
     48 H22         7.4037   -5.2139   -0.4686 H         1 <0>         0.1253
     49 H23         6.5045   -7.4643    0.1371 H         1 <0>         0.1040
     50 H24         5.2011   -6.2521    0.0729 H         1 <0>         0.1062
     51 H25         5.9883   -7.9045    2.2931 H         1 <0>         0.1310
     52 H26         4.6856   -6.6929    2.2293 H         1 <0>         0.1277
     53 N2          6.5225   -5.9874    2.9708 N.4       1 <0>        -0.3889
     54 H27         6.2712   -6.2052    3.9422 H         1 <0>         0.4361
@<TRIPOS>BOND
     1    1    6 ar
     2    1    2 ar
     3    1   29 1
     4    2    3 ar
     5    2   30 1
     6    3    4 ar
     7    3   31 1
     8    4    5 ar
     9    4    7 1
    10    5    6 ar
    11    5   32 1
    12    6   33 1
    13    7    8 1
    14    7   17 1
    15    7    9 1
    16    9   14 ar
    17    9   10 ar
    18   10   11 ar
    19   10   34 1
    20   11   12 ar
    21   11   35 1
    22   12   13 ar
    23   12   36 1
    24   13   14 ar
    25   13   37 1
    26   14   15 1
    27   15   16 1
    28   15   38 1
    29   15   39 1
    30   16   17 1
    31   16   40 1
    32   16   41 1
    33   17   18 am
    34   18   19 2
    35   18   20 1
    36   20   21 1
    37   21   22 1
    38   21   26 1
    39   21   23 1
    40   23   42 1
    41   23   43 1
    42   23   53 1
    43   24   25 1
    44   24   44 1
    45   24   45 1
    46   24   53 1
    47   25   26 1
    48   25   46 1
    49   25   47 1
    50   26   27 1
    51   26   48 1
    52   27   28 1
    53   27   49 1
    54   27   50 1
    55   28   51 1
    56   28   52 1
    57   28   53 1
    58   53   54 1
@<TRIPOS>MOLECULE
ZINC00968360
   49    52     0     0     0
SMALL
USER_CHARGES

@<TRIPOS>ATOM
      1 C1          3.3904   -1.0686    1.3596 C.3       1 <0>        -0.0414
      2 N1          2.2270   -1.8016    0.8426 N.4       1 <0>        -0.3966
      3 C2          1.0087   -0.9500    0.8889 C.3       1 <0>         0.0345
      4 H1          1.1973    0.0598    0.5245 H         1 <0>         0.1466
      5 C3          0.5905   -0.9658    2.3773 C.3       1 <0>        -0.1338
      6 C4          1.1707   -2.2813    2.9369 C.3       1 <0>        -0.1396
      7 C5          1.8867   -2.9409    1.7358 C.3       1 <0>         0.0374
      8 H2          2.7689   -3.5040    2.0404 H         1 <0>         0.1457
      9 C6          0.8579   -3.8095    0.9944 C.3       1 <0>        -0.1626
     10 C7         -0.4211   -2.9937    0.7855 C.3       1 <0>         0.0760
     11 C8         -0.0791   -1.6663    0.0728 C.3       1 <0>        -0.1379
     12 O1         -1.0224   -2.7199    2.0525 O.3       1 <0>        -0.3507
     13 C9         -2.0131   -3.6726    2.4437 C.3       1 <0>         0.1708
     14 C10        -2.1179   -3.6999    3.9468 C.ar      1 <0>        -0.0904
     15 C11        -2.0585   -2.5205    4.6654 C.ar      1 <0>        -0.0943
     16 C12        -2.1546   -2.5456    6.0442 C.ar      1 <0>        -0.1204
     17 C13        -2.3105   -3.7501    6.7043 C.ar      1 <0>        -0.1092
     18 C14        -2.3708   -4.9294    5.9857 C.ar      1 <0>        -0.1151
     19 C15        -2.2790   -4.9039    4.6066 C.ar      1 <0>        -0.1074
     20 C16        -3.3444   -3.2836    1.8544 C.ar      1 <0>        -0.1188
     21 C17        -3.6951   -1.9499    1.7593 C.ar      1 <0>        -0.0957
     22 C18        -4.9163   -1.5931    1.2187 C.ar      1 <0>        -0.1207
     23 C19        -5.7867   -2.5701    0.7728 C.ar      1 <0>        -0.1099
     24 C20        -5.4356   -3.9038    0.8670 C.ar      1 <0>        -0.1159
     25 C21        -4.2126   -4.2604    1.4036 C.ar      1 <0>        -0.1088
     26 H3          4.2470   -1.7403    1.4169 H         1 <0>         0.1198
     27 H4          3.6232   -0.2391    0.6920 H         1 <0>         0.1202
     28 H5          3.1643   -0.6826    2.3536 H         1 <0>         0.1206
     29 H6          1.0175   -0.1101    2.9003 H         1 <0>         0.0864
     30 H7         -0.4958   -0.9622    2.4661 H         1 <0>         0.1317
     31 H8          1.8830   -2.0725    3.7351 H         1 <0>         0.0829
     32 H9          0.3696   -2.9246    3.3009 H         1 <0>         0.1348
     33 H10         1.2621   -4.1087    0.0273 H         1 <0>         0.0958
     34 H11         0.6329   -4.6956    1.5879 H         1 <0>         0.1134
     35 H12        -1.1176   -3.5627    0.1698 H         1 <0>         0.0934
     36 H13        -0.9701   -1.0404    0.0234 H         1 <0>         0.1187
     37 H14         0.2889   -1.8607   -0.9346 H         1 <0>         0.0996
     38 H15        -1.7300   -4.6608    2.0812 H         1 <0>         0.0802
     39 H16        -1.9366   -1.5795    4.1496 H         1 <0>         0.1222
     40 H17        -2.1075   -1.6242    6.6056 H         1 <0>         0.1245
     41 H18        -2.3849   -3.7697    7.7816 H         1 <0>         0.1256
     42 H19        -2.4923   -5.8705    6.5015 H         1 <0>         0.1269
     43 H20        -2.3299   -5.8249    4.0449 H         1 <0>         0.1218
     44 H21        -3.0151   -1.1866    2.1077 H         1 <0>         0.1218
     45 H22        -5.1906   -0.5511    1.1451 H         1 <0>         0.1241
     46 H23        -6.7411   -2.2914    0.3510 H         1 <0>         0.1253
     47 H24        -6.1158   -4.6671    0.5189 H         1 <0>         0.1260
     48 H25        -3.9368   -5.3022    1.4738 H         1 <0>         0.1208
     49 H26         2.4007   -2.1262   -0.0968 H         1 <0>         0.4215
@<TRIPOS>BOND
     1    1    2 1
     2    1   26 1
     3    1   27 1
     4    1   28 1
     5    2    7 1
     6    2    3 1
     7    2   49 1
     8    3    4 1
     9    3   11 1
    10    3    5 1
    11    5    6 1
    12    5   29 1
    13    5   30 1
    14    6    7 1
    15    6   31 1
    16    6   32 1
    17    7    8 1
    18    7    9 1
    19    9   10 1
    20    9   33 1
    21    9   34 1
    22   10   11 1
    23   10   12 1
    24   10   35 1
    25   11   36 1
    26   11   37 1
    27   12   13 1
    28   13   14 1
    29   13   20 1
    30   13   38 1
    31   14   19 ar
    32   14   15 ar
    33   15   16 ar
    34   15   39 1
    35   16   17 ar
    36   16   40 1
    37   17   18 ar
    38   17   41 1
    39   18   19 ar
    40   18   42 1
    41   19   43 1
    42   20   25 ar
    43   20   21 ar
    44   21   22 ar
    45   21   44 1
    46   22   23 ar
    47   22   45 1
    48   23   24 ar
    49   23   46 1
    50   24   25 ar
    51   24   47 1
    52   25   48 1
@<TRIPOS>MOLECULE
ZINC01530751
   58    59     0     0     0
SMALL
USER_CHARGES

@<TRIPOS>ATOM
      1 C1          0.2991    1.0752   -0.2917 C.3       1 <0>        -0.1878
      2 C2          0.2487   -0.4286   -0.0143 C.3       1 <0>        -0.0180
      3 N1          0.7545   -0.6942    1.3391 N.4       1 <0>        -0.3873
      4 C3         -0.1471   -0.0863    2.3268 C.3       1 <0>        -0.0176
      5 C4         -1.5739   -0.5857    2.0902 C.3       1 <0>        -0.1896
      6 C5          0.8186   -2.1448    1.5620 C.3       1 <0>         0.1283
      7 C6          1.4440   -2.4134    2.8672 C.1       1 <0>        -0.2437
      8 C7          1.9427   -2.6277    3.9081 C.1       1 <0>        -0.0537
      9 C8          2.5681   -2.8964    5.2133 C.3       1 <0>         0.1556
     10 O1          2.6305   -4.3075    5.4302 O.3       1 <0>        -0.3355
     11 C9          3.1776   -4.7232    6.5833 C.2       1 <0>         0.4488
     12 O2          3.5898   -3.9158    7.3820 O.2       1 <0>        -0.4789
     13 C10         3.2776   -6.1970    6.8816 C.3       1 <0>         0.2093
     14 C11         4.5302   -6.7526    6.2545 C.ar      1 <0>        -0.0984
     15 C12         5.7129   -6.7686    6.9701 C.ar      1 <0>        -0.0971
     16 C13         6.8619   -7.2782    6.3949 C.ar      1 <0>        -0.1209
     17 C14         6.8282   -7.7722    5.1043 C.ar      1 <0>        -0.1021
     18 C15         5.6454   -7.7571    4.3890 C.ar      1 <0>        -0.1258
     19 C16         4.4953   -7.2514    4.9658 C.ar      1 <0>        -0.0793
     20 C17         3.3284   -6.4085    8.3961 C.3       1 <0>        -0.1010
     21 C18         3.4299   -7.9047    8.6989 C.3       1 <0>        -0.1097
     22 C19         3.4807   -8.1162   10.2134 C.3       1 <0>        -0.1205
     23 C20         2.2089   -7.5522   10.8501 C.3       1 <0>        -0.1228
     24 C21         2.1074   -6.0559   10.5472 C.3       1 <0>        -0.1149
     25 C22         2.0566   -5.8444    9.0327 C.3       1 <0>        -0.1247
     26 O3          2.1371   -6.8701    6.3446 O.3       1 <0>        -0.5261
     27 H1          1.3286    1.4247   -0.2135 H         1 <0>         0.0810
     28 H2         -0.0762    1.2722   -1.2959 H         1 <0>         0.1084
     29 H3         -0.3191    1.5999    0.4367 H         1 <0>         0.0808
     30 H4         -0.7808   -0.7782   -0.0925 H         1 <0>         0.1359
     31 H5          0.8669   -0.9534   -0.7427 H         1 <0>         0.1340
     32 H6          0.1734   -0.3644    3.3308 H         1 <0>         0.1267
     33 H7         -0.1201    0.9985    2.2242 H         1 <0>         0.1343
     34 H8         -1.5833   -1.6756    2.0977 H         1 <0>         0.0801
     35 H9         -2.2254   -0.2113    2.8798 H         1 <0>         0.1065
     36 H10        -1.9293   -0.2258    1.1247 H         1 <0>         0.0853
     37 H11        -0.1895   -2.5591    1.5500 H         1 <0>         0.1522
     38 H12         1.4112   -2.6078    0.7730 H         1 <0>         0.1531
     39 H13         3.5762   -2.4820    5.2254 H         1 <0>         0.1078
     40 H14         1.9755   -2.4334    6.0023 H         1 <0>         0.1076
     41 H15         5.7392   -6.3826    7.9784 H         1 <0>         0.1298
     42 H16         7.7860   -7.2900    6.9537 H         1 <0>         0.1301
     43 H17         7.7261   -8.1698    4.6546 H         1 <0>         0.1278
     44 H18         5.6191   -8.1428    3.3806 H         1 <0>         0.1272
     45 H19         3.5704   -7.2430    4.4083 H         1 <0>         0.1315
     46 H20         4.1982   -5.8950    8.8056 H         1 <0>         0.0970
     47 H21         2.5600   -8.4182    8.2894 H         1 <0>         0.0730
     48 H22         4.3359   -8.3066    8.2454 H         1 <0>         0.0711
     49 H23         3.5530   -9.1822   10.4292 H         1 <0>         0.0680
     50 H24         4.3506   -7.6028   10.6230 H         1 <0>         0.0632
     51 H25         1.3390   -8.0656   10.4405 H         1 <0>         0.0633
     52 H26         2.2451   -7.7028   11.9290 H         1 <0>         0.0655
     53 H27         1.2014   -5.6540   11.0007 H         1 <0>         0.0657
     54 H28         2.9773   -5.5424   10.9568 H         1 <0>         0.0657
     55 H29         1.9843   -4.7784    8.8169 H         1 <0>         0.0646
     56 H30         1.1867   -6.3579    8.6231 H         1 <0>         0.0644
     57 H31         1.2937   -6.5628    6.7041 H         1 <0>         0.3842
     58 H32         1.6771   -0.2977    1.4371 H         1 <0>         0.4275
@<TRIPOS>BOND
     1    1    2 1
     2    1   27 1
     3    1   28 1
     4    1   29 1
     5    2    3 1
     6    2   30 1
     7    2   31 1
     8    3    4 1
     9    3    6 1
    10    3   58 1
    11    4    5 1
    12    4   32 1
    13    4   33 1
    14    5   34 1
    15    5   35 1
    16    5   36 1
    17    6    7 1
    18    6   37 1
    19    6   38 1
    20    7    8 3
    21    8    9 1
    22    9   10 1
    23    9   39 1
    24    9   40 1
    25   10   11 1
    26   11   12 2
    27   11   13 1
    28   13   14 1
    29   13   20 1
    30   13   26 1
    31   14   19 ar
    32   14   15 ar
    33   15   16 ar
    34   15   41 1
    35   16   17 ar
    36   16   42 1
    37   17   18 ar
    38   17   43 1
    39   18   19 ar
    40   18   44 1
    41   19   45 1
    42   20   25 1
    43   20   21 1
    44   20   46 1
    45   21   22 1
    46   21   47 1
    47   21   48 1
    48   22   23 1
    49   22   49 1
    50   22   50 1
    51   23   24 1
    52   23   51 1
    53   23   52 1
    54   24   25 1
    55   24   53 1
    56   24   54 1
    57   25   55 1
    58   25   56 1
    59   26   57 1
@<TRIPOS>MOLECULE
ZINC01530751
   57    58     0     0     0
SMALL
USER_CHARGES

@<TRIPOS>ATOM
      1 C1         -1.3393   -0.9465    0.0937 C.3       1 <0>        -0.1938
      2 C2         -0.0615   -0.1096    0.0057 C.3       1 <0>         0.0454
      3 N1          0.7423   -0.5619   -1.1377 N.3       1 <0>        -0.5361
      4 C3          1.0055   -2.0050   -1.0581 C.3       1 <0>         0.0450
      5 C4          1.8971   -2.2949    0.1510 C.3       1 <0>        -0.1498
      6 C5          0.0922   -0.2147   -2.4084 C.3       1 <0>         0.1567
      7 C6          0.2750    1.2211   -2.6767 C.1       1 <0>        -0.1196
      8 C7          0.4208    2.3662   -2.8907 C.1       1 <0>        -0.1918
      9 C8          0.6035    3.8019   -3.1591 C.3       1 <0>         0.1841
     10 O1         -0.0288    4.1398   -4.3952 O.3       1 <0>        -0.3348
     11 C9          0.0461    5.4212   -4.7878 C.2       1 <0>         0.4444
     12 O2          0.6293    6.2292   -4.1046 O.2       1 <0>        -0.4887
     13 C10        -0.5971    5.8519   -6.0808 C.3       1 <0>         0.2057
     14 C11        -2.0520    6.1618   -5.8393 C.ar      1 <0>        -0.0924
     15 C12        -2.4377    7.4438   -5.4950 C.ar      1 <0>        -0.0985
     16 C13        -3.7722    7.7281   -5.2735 C.ar      1 <0>        -0.1236
     17 C14        -4.7211    6.7304   -5.3966 C.ar      1 <0>        -0.1058
     18 C15        -4.3355    5.4486   -5.7417 C.ar      1 <0>        -0.1251
     19 C16        -3.0014    5.1653   -5.9675 C.ar      1 <0>        -0.0771
     20 C17         0.1094    7.1015   -6.6103 C.3       1 <0>        -0.0996
     21 C18        -0.5436    7.5388   -7.9230 C.3       1 <0>        -0.1098
     22 C19         0.1629    8.7884   -8.4526 C.3       1 <0>        -0.1192
     23 C20         1.6400    8.4738   -8.6978 C.3       1 <0>        -0.1218
     24 C21         2.2930    8.0364   -7.3851 C.3       1 <0>        -0.1141
     25 C22         1.5865    6.7869   -6.8555 C.3       1 <0>        -0.1261
     26 O3         -0.4873    4.7996   -7.0412 O.3       1 <0>        -0.5275
     27 H1         -1.8650   -0.9086   -0.8604 H         1 <0>         0.0562
     28 H2         -1.0816   -1.9799    0.3257 H         1 <0>         0.0612
     29 H3         -1.9818   -0.5474    0.8786 H         1 <0>         0.0646
     30 H4         -0.3232    0.9402   -0.1267 H         1 <0>         0.0755
     31 H5          0.5140   -0.2276    0.9238 H         1 <0>         0.0815
     32 H6          0.0625   -2.5410   -0.9510 H         1 <0>         0.0441
     33 H7          1.5087   -2.3332   -1.9676 H         1 <0>         0.0758
     34 H8          1.3939   -1.9667    1.0605 H         1 <0>         0.0556
     35 H9          2.0924   -3.3656    0.2100 H         1 <0>         0.0609
     36 H10         2.8401   -1.7589    0.0439 H         1 <0>         0.0634
     37 H11         0.5392   -0.7949   -3.2156 H         1 <0>         0.1002
     38 H12        -0.9724   -0.4399   -2.3454 H         1 <0>         0.0714
     39 H13         0.1566    4.3822   -2.3518 H         1 <0>         0.0936
     40 H14         1.6681    4.0271   -3.2221 H         1 <0>         0.0926
     41 H15        -1.6964    8.2233   -5.3988 H         1 <0>         0.1285
     42 H16        -4.0735    8.7296   -5.0039 H         1 <0>         0.1274
     43 H17        -5.7637    6.9523   -5.2228 H         1 <0>         0.1253
     44 H18        -5.0768    4.6690   -5.8376 H         1 <0>         0.1263
     45 H19        -2.7006    4.1647   -6.2407 H         1 <0>         0.1330
     46 H20         0.0256    7.9042   -5.8777 H         1 <0>         0.0957
     47 H21        -0.4599    6.7361   -8.6556 H         1 <0>         0.0723
     48 H22        -1.5959    7.7630   -7.7484 H         1 <0>         0.0703
     49 H23        -0.3024    9.1000   -9.3878 H         1 <0>         0.0653
     50 H24         0.0791    9.5911   -7.7200 H         1 <0>         0.0621
     51 H25         1.7237    7.6710   -9.4304 H         1 <0>         0.0626
     52 H26         2.1433    9.3640   -9.0751 H         1 <0>         0.0629
     53 H27         3.3453    7.8123   -7.5598 H         1 <0>         0.0646
     54 H28         2.2092    8.8391   -6.6525 H         1 <0>         0.0648
     55 H29         2.0517    6.4753   -5.9204 H         1 <0>         0.0680
     56 H30         1.6703    5.9842   -7.5882 H         1 <0>         0.0641
     57 H31         0.4235    4.5473   -7.2458 H         1 <0>         0.3843
@<TRIPOS>BOND
     1    1    2 1
     2    1   27 1
     3    1   28 1
     4    1   29 1
     5    2    3 1
     6    2   30 1
     7    2   31 1
     8    3    4 1
     9    3    6 1
    10    4    5 1
    11    4   32 1
    12    4   33 1
    13    5   34 1
    14    5   35 1
    15    5   36 1
    16    6    7 1
    17    6   37 1
    18    6   38 1
    19    7    8 3
    20    8    9 1
    21    9   10 1
    22    9   39 1
    23    9   40 1
    24   10   11 1
    25   11   12 2
    26   11   13 1
    27   13   14 1
    28   13   20 1
    29   13   26 1
    30   14   19 ar
    31   14   15 ar
    32   15   16 ar
    33   15   41 1
    34   16   17 ar
    35   16   42 1
    36   17   18 ar
    37   17   43 1
    38   18   19 ar
    39   18   44 1
    40   19   45 1
    41   20   25 1
    42   20   21 1
    43   20   46 1
    44   21   22 1
    45   21   47 1
    46   21   48 1
    47   22   23 1
    48   22   49 1
    49   22   50 1
    50   23   24 1
    51   23   51 1
    52   23   52 1
    53   24   25 1
    54   24   53 1
    55   24   54 1
    56   25   55 1
    57   25   56 1
    58   26   57 1
@<TRIPOS>MOLECULE
ZINC01530752
   58    59     0     0     0
SMALL
USER_CHARGES

@<TRIPOS>ATOM
      1 C1          0.2991    1.0752   -0.2917 C.3       1 <0>        -0.1878
      2 C2          0.2487   -0.4286   -0.0143 C.3       1 <0>        -0.0180
      3 N1          0.7545   -0.6942    1.3391 N.4       1 <0>        -0.3872
      4 C3         -0.1471   -0.0863    2.3268 C.3       1 <0>        -0.0177
      5 C4         -1.5739   -0.5857    2.0902 C.3       1 <0>        -0.1897
      6 C5          0.8186   -2.1448    1.5620 C.3       1 <0>         0.1283
      7 C6          1.4440   -2.4134    2.8672 C.1       1 <0>        -0.2437
      8 C7          1.9427   -2.6277    3.9081 C.1       1 <0>        -0.0537
      9 C8          2.5681   -2.8964    5.2133 C.3       1 <0>         0.1556
     10 O1          2.6305   -4.3075    5.4302 O.3       1 <0>        -0.3355
     11 C9          3.1776   -4.7232    6.5833 C.2       1 <0>         0.4488
     12 O2          3.5898   -3.9158    7.3820 O.2       1 <0>        -0.4789
     13 C10         3.2776   -6.1970    6.8816 C.3       1 <0>         0.2092
     14 C11         1.9845   -6.6752    7.4902 C.ar      1 <0>        -0.0978
     15 C12         1.8111   -6.6395    8.8612 C.ar      1 <0>        -0.0973
     16 C13         0.6250   -7.0782    9.4194 C.ar      1 <0>        -0.1208
     17 C14        -0.3878   -7.5520    8.6067 C.ar      1 <0>        -0.1023
     18 C15        -0.2147   -7.5869    7.2357 C.ar      1 <0>        -0.1256
     19 C16         0.9697   -7.1442    6.6771 C.ar      1 <0>        -0.0796
     20 C17         4.4248   -6.4418    7.8638 C.3       1 <0>        -0.1009
     21 C18         4.5263   -7.9381    8.1667 C.3       1 <0>        -0.1096
     22 C19         5.6736   -8.1829    9.1490 C.3       1 <0>        -0.1204
     23 C20         6.9864   -7.6974    8.5311 C.3       1 <0>        -0.1229
     24 C21         6.8848   -6.2011    8.2282 C.3       1 <0>        -0.1149
     25 C22         5.7376   -5.9563    7.2459 C.3       1 <0>        -0.1248
     26 O3          3.5270   -6.9124    5.6700 O.3       1 <0>        -0.5262
     27 H1          1.3286    1.4247   -0.2135 H         1 <0>         0.0810
     28 H2         -0.0762    1.2722   -1.2959 H         1 <0>         0.1083
     29 H3         -0.3191    1.5999    0.4367 H         1 <0>         0.0808
     30 H4         -0.7808   -0.7782   -0.0925 H         1 <0>         0.1359
     31 H5          0.8669   -0.9534   -0.7427 H         1 <0>         0.1340
     32 H6          0.1734   -0.3644    3.3308 H         1 <0>         0.1267
     33 H7         -0.1201    0.9985    2.2242 H         1 <0>         0.1344
     34 H8         -1.5833   -1.6756    2.0977 H         1 <0>         0.0801
     35 H9         -2.2254   -0.2113    2.8798 H         1 <0>         0.1066
     36 H10        -1.9293   -0.2258    1.1247 H         1 <0>         0.0853
     37 H11        -0.1895   -2.5591    1.5500 H         1 <0>         0.1521
     38 H12         1.4112   -2.6078    0.7730 H         1 <0>         0.1532
     39 H13         3.5762   -2.4820    5.2254 H         1 <0>         0.1081
     40 H14         1.9755   -2.4334    6.0023 H         1 <0>         0.1074
     41 H15         2.6024   -6.2693    9.4961 H         1 <0>         0.1297
     42 H16         0.4898   -7.0510   10.4906 H         1 <0>         0.1300
     43 H17        -1.3142   -7.8954    9.0429 H         1 <0>         0.1277
     44 H18        -1.0059   -7.9574    6.6007 H         1 <0>         0.1271
     45 H19         1.1036   -7.1679    5.6057 H         1 <0>         0.1315
     46 H20         4.2345   -5.8961    8.7880 H         1 <0>         0.0969
     47 H21         3.5911   -8.2840    8.6069 H         1 <0>         0.0710
     48 H22         4.7166   -8.4838    7.2425 H         1 <0>         0.0730
     49 H23         5.4833   -7.6372   10.0731 H         1 <0>         0.0631
     50 H24         5.7459   -9.2489    9.3647 H         1 <0>         0.0680
     51 H25         7.8037   -7.8718    9.2308 H         1 <0>         0.0655
     52 H26         7.1766   -8.2431    7.6069 H         1 <0>         0.0633
     53 H27         6.6946   -5.6554    9.1524 H         1 <0>         0.0657
     54 H28         7.8201   -5.8552    7.7880 H         1 <0>         0.0658
     55 H29         5.9279   -6.5020    6.3218 H         1 <0>         0.0644
     56 H30         5.6653   -4.8903    7.0302 H         1 <0>         0.0647
     57 H31         4.3451   -6.6556    5.2229 H         1 <0>         0.3845
     58 H32         1.6771   -0.2977    1.4371 H         1 <0>         0.4274
@<TRIPOS>BOND
     1    1    2 1
     2    1   27 1
     3    1   28 1
     4    1   29 1
     5    2    3 1
     6    2   30 1
     7    2   31 1
     8    3    4 1
     9    3    6 1
    10    3   58 1
    11    4    5 1
    12    4   32 1
    13    4   33 1
    14    5   34 1
    15    5   35 1
    16    5   36 1
    17    6    7 1
    18    6   37 1
    19    6   38 1
    20    7    8 3
    21    8    9 1
    22    9   10 1
    23    9   39 1
    24    9   40 1
    25   10   11 1
    26   11   12 2
    27   11   13 1
    28   13   14 1
    29   13   20 1
    30   13   26 1
    31   14   19 ar
    32   14   15 ar
    33   15   16 ar
    34   15   41 1
    35   16   17 ar
    36   16   42 1
    37   17   18 ar
    38   17   43 1
    39   18   19 ar
    40   18   44 1
    41   19   45 1
    42   20   25 1
    43   20   21 1
    44   20   46 1
    45   21   22 1
    46   21   47 1
    47   21   48 1
    48   22   23 1
    49   22   49 1
    50   22   50 1
    51   23   24 1
    52   23   51 1
    53   23   52 1
    54   24   25 1
    55   24   53 1
    56   24   54 1
    57   25   55 1
    58   25   56 1
    59   26   57 1
@<TRIPOS>MOLECULE
ZINC01530752
   57    58     0     0     0
SMALL
USER_CHARGES

@<TRIPOS>ATOM
      1 C1         -1.3393   -0.9465    0.0937 C.3       1 <0>        -0.1940
      2 C2         -0.0615   -0.1096    0.0057 C.3       1 <0>         0.0454
      3 N1          0.7423   -0.5619   -1.1377 N.3       1 <0>        -0.5360
      4 C3          1.0055   -2.0050   -1.0581 C.3       1 <0>         0.0448
      5 C4          1.8971   -2.2949    0.1510 C.3       1 <0>        -0.1497
      6 C5          0.0922   -0.2147   -2.4084 C.3       1 <0>         0.1566
      7 C6          0.2750    1.2211   -2.6767 C.1       1 <0>        -0.1195
      8 C7          0.4208    2.3662   -2.8907 C.1       1 <0>        -0.1918
      9 C8          0.6035    3.8019   -3.1591 C.3       1 <0>         0.1841
     10 O1         -0.0288    4.1398   -4.3952 O.3       1 <0>        -0.3348
     11 C9          0.0461    5.4212   -4.7878 C.2       1 <0>         0.4444
     12 O2          0.6293    6.2292   -4.1046 O.2       1 <0>        -0.4887
     13 C10        -0.5971    5.8519   -6.0808 C.3       1 <0>         0.2057
     14 C11         0.3520    5.5971   -7.2233 C.ar      1 <0>        -0.0920
     15 C12         1.2505    6.5752   -7.6067 C.ar      1 <0>        -0.0986
     16 C13         2.1211    6.3415   -8.6547 C.ar      1 <0>        -0.1235
     17 C14         2.0935    5.1295   -9.3191 C.ar      1 <0>        -0.1061
     18 C15         1.1956    4.1511   -8.9351 C.ar      1 <0>        -0.1253
     19 C16         0.3279    4.3833   -7.8843 C.ar      1 <0>        -0.0776
     20 C17        -0.9260    7.3447   -6.0142 C.3       1 <0>        -0.0995
     21 C18        -1.5790    7.7820   -7.3269 C.3       1 <0>        -0.1096
     22 C19        -1.9079    9.2748   -7.2604 C.3       1 <0>        -0.1192
     23 C20        -2.8715    9.5335   -6.1004 C.3       1 <0>        -0.1218
     24 C21        -2.2185    9.0961   -4.7877 C.3       1 <0>        -0.1141
     25 C22        -1.8896    7.6034   -4.8543 C.3       1 <0>        -0.1262
     26 O3         -1.7997    5.1079   -6.2856 O.3       1 <0>        -0.5275
     27 H1         -1.8650   -0.9086   -0.8604 H         1 <0>         0.0562
     28 H2         -1.0816   -1.9799    0.3257 H         1 <0>         0.0612
     29 H3         -1.9818   -0.5474    0.8786 H         1 <0>         0.0647
     30 H4         -0.3232    0.9402   -0.1267 H         1 <0>         0.0756
     31 H5          0.5140   -0.2276    0.9238 H         1 <0>         0.0815
     32 H6          0.0625   -2.5410   -0.9510 H         1 <0>         0.0441
     33 H7          1.5087   -2.3332   -1.9676 H         1 <0>         0.0758
     34 H8          1.3939   -1.9667    1.0605 H         1 <0>         0.0557
     35 H9          2.0924   -3.3656    0.2100 H         1 <0>         0.0609
     36 H10         2.8401   -1.7589    0.0439 H         1 <0>         0.0634
     37 H11         0.5392   -0.7949   -3.2156 H         1 <0>         0.1003
     38 H12        -0.9724   -0.4399   -2.3454 H         1 <0>         0.0714
     39 H13         0.1566    4.3822   -2.3518 H         1 <0>         0.0939
     40 H14         1.6681    4.0271   -3.2221 H         1 <0>         0.0922
     41 H15         1.2721    7.5220   -7.0877 H         1 <0>         0.1286
     42 H16         2.8226    7.1058   -8.9547 H         1 <0>         0.1274
     43 H17         2.7732    4.9472  -10.1383 H         1 <0>         0.1253
     44 H18         1.1737    3.2044   -9.4543 H         1 <0>         0.1263
     45 H19        -0.3711    3.6175   -7.5819 H         1 <0>         0.1332
     46 H20        -0.0086    7.9123   -5.8580 H         1 <0>         0.0956
     47 H21        -0.8926    7.5977   -8.1533 H         1 <0>         0.0701
     48 H22        -2.4964    7.2145   -7.4831 H         1 <0>         0.0723
     49 H23        -0.9906    9.8424   -7.1042 H         1 <0>         0.0621
     50 H24        -2.3732    9.5864   -8.1956 H         1 <0>         0.0653
     51 H25        -3.1058   10.5969   -6.0530 H         1 <0>         0.0629
     52 H26        -3.7889    8.9659   -6.2566 H         1 <0>         0.0627
     53 H27        -1.3011    9.6637   -4.6315 H         1 <0>         0.0647
     54 H28        -2.9049    9.2804   -3.9613 H         1 <0>         0.0647
     55 H29        -2.8069    7.0358   -5.0105 H         1 <0>         0.0642
     56 H30        -1.4243    7.2918   -3.9191 H         1 <0>         0.0681
     57 H31        -2.4580    5.2241   -5.5868 H         1 <0>         0.3845
@<TRIPOS>BOND
     1    1    2 1
     2    1   27 1
     3    1   28 1
     4    1   29 1
     5    2    3 1
     6    2   30 1
     7    2   31 1
     8    3    4 1
     9    3    6 1
    10    4    5 1
    11    4   32 1
    12    4   33 1
    13    5   34 1
    14    5   35 1
    15    5   36 1
    16    6    7 1
    17    6   37 1
    18    6   38 1
    19    7    8 3
    20    8    9 1
    21    9   10 1
    22    9   39 1
    23    9   40 1
    24   10   11 1
    25   11   12 2
    26   11   13 1
    27   13   14 1
    28   13   20 1
    29   13   26 1
    30   14   19 ar
    31   14   15 ar
    32   15   16 ar
    33   15   41 1
    34   16   17 ar
    35   16   42 1
    36   17   18 ar
    37   17   43 1
    38   18   19 ar
    39   18   44 1
    40   19   45 1
    41   20   25 1
    42   20   21 1
    43   20   46 1
    44   21   22 1
    45   21   47 1
    46   21   48 1
    47   22   23 1
    48   22   49 1
    49   22   50 1
    50   23   24 1
    51   23   51 1
    52   23   52 1
    53   24   25 1
    54   24   53 1
    55   24   54 1
    56   25   55 1
    57   25   56 1
    58   26   57 1
@<TRIPOS>MOLECULE
ZINC02516022
   32    32     0     0     0
SMALL
USER_CHARGES

@<TRIPOS>ATOM
      1 C1          0.3388    1.5532   -0.3086 C.3       1 <0>        -0.1547
      2 C2          0.2600    0.0293   -0.1965 C.3       1 <0>         0.0410
      3 H1         -0.7802   -0.2950   -0.1665 H         1 <0>         0.0876
      4 C3          0.9967   -0.6357   -1.3804 C.3       1 <0>         0.0764
      5 H2          1.7493    0.0385   -1.7892 H         1 <0>         0.0826
      6 C4          1.6669   -1.8794   -0.7546 C.3       1 <0>        -0.1422
      7 C5          1.2558   -1.8186    0.7333 C.3       1 <0>         0.0485
      8 H3          0.3688   -2.4278    0.9070 H         1 <0>         0.0956
      9 O1          0.9626   -0.4252    0.9806 O.3       1 <0>        -0.3661
     10 C6          2.4072   -2.2900    1.6237 C.3       1 <0>        -0.0004
     11 N1          1.9433   -2.3862    3.0141 N.4       1 <0>        -0.2703
     12 C7          0.8951   -3.4108    3.1108 C.3       1 <0>        -0.0519
     13 C8          3.0698   -2.7548    3.8819 C.3       1 <0>        -0.0450
     14 C9          1.4009   -1.0892    3.4403 C.3       1 <0>        -0.0444
     15 O2          0.0676   -1.0216   -2.3952 O.3       1 <0>        -0.5551
     16 H4          1.3838    1.8628   -0.3250 H         1 <0>         0.0696
     17 H5         -0.1501    1.8756   -1.2279 H         1 <0>         0.0797
     18 H6         -0.1612    2.0067    0.5472 H         1 <0>         0.0718
     19 H7          1.2892   -2.7907   -1.2183 H         1 <0>         0.1053
     20 H8          2.7507   -1.8200   -0.8541 H         1 <0>         0.0963
     21 H9          2.7503   -3.2681    1.2866 H         1 <0>         0.1420
     22 H10         3.2288   -1.5762    1.5634 H         1 <0>         0.1379
     23 H11         1.2975   -4.3732    2.7946 H         1 <0>         0.1227
     24 H12         0.5508   -3.4823    4.1425 H         1 <0>         0.1247
     25 H13         0.0592   -3.1373    2.4669 H         1 <0>         0.1205
     26 H14         3.8476   -1.9945    3.8102 H         1 <0>         0.1217
     27 H15         2.7256   -2.8262    4.9136 H         1 <0>         0.1236
     28 H16         3.4723   -3.7172    3.5657 H         1 <0>         0.1213
     29 H17         0.4767   -0.8864    2.8992 H         1 <0>         0.1324
     30 H18         1.1972   -1.1146    4.5107 H         1 <0>         0.1162
     31 H19         2.1265   -0.3042    3.2270 H         1 <0>         0.1220
     32 H20        -0.4239   -0.2829   -2.7799 H         1 <0>         0.3910
@<TRIPOS>BOND
     1    1    2 1
     2    1   16 1
     3    1   17 1
     4    1   18 1
     5    2    3 1
     6    2    9 1
     7    2    4 1
     8    4    5 1
     9    4    6 1
    10    4   15 1
    11    6    7 1
    12    6   19 1
    13    6   20 1
    14    7    8 1
    15    7    9 1
    16    7   10 1
    17   10   11 1
    18   10   21 1
    19   10   22 1
    20   11   12 1
    21   11   13 1
    22   11   14 1
    23   12   23 1
    24   12   24 1
    25   12   25 1
    26   13   26 1
    27   13   27 1
    28   13   28 1
    29   14   29 1
    30   14   30 1
    31   14   31 1
    32   15   32 1
@<TRIPOS>MOLECULE
ZINC13603574
   46    48     0     0     0
SMALL
USER_CHARGES
[(3R)-quinuclidin-3-yl] (E,2R)-2-hydroxy-5-iodo-2-phenyl-pent-4-enoate
@<TRIPOS>ATOM
      1 C1         -5.1893    6.3355    1.0245 C.ar      1 <0>        -0.1001
      2 C2         -5.4435    4.9883    1.2013 C.ar      1 <0>        -0.1127
      3 C3         -4.4329    4.1434    1.6203 C.ar      1 <0>        -0.1019
      4 C4         -3.1680    4.6457    1.8626 C.ar      1 <0>        -0.1254
      5 C5         -2.9151    5.9938    1.6909 C.ar      1 <0>        -0.0921
      6 C6         -3.9243    6.8378    1.2664 C.ar      1 <0>        -0.1136
      7 C7         -2.0663    3.7247    2.3198 C.3       1 <0>         0.2118
      8 C8         -1.0818    4.5024    3.1955 C.3       1 <0>        -0.0873
      9 C9          0.0831    3.6152    3.5516 C.2       1 <0>        -0.0763
     10 C10         1.3070    4.0024    3.2861 C.2       1 <0>        -0.1862
     11 I1          2.9264    2.7689    3.7812 I         1 <0>        -0.0688
     12 C11        -1.3425    3.1724    1.1189 C.2       1 <0>         0.4377
     13 O1         -1.3460    3.7844    0.0772 O.2       1 <0>        -0.4709
     14 O2         -0.6938    2.0005    1.2066 O.3       1 <0>        -0.3276
     15 C12        -0.0187    1.5296    0.0105 C.3       1 <0>         0.0746
     16 H1         -0.5425    1.8927   -0.8738 H         1 <0>         0.1226
     17 C13         1.4239    2.0435   -0.0006 C.3       1 <0>        -0.0230
     18 C14         2.1675    0.0927   -1.2294 C.3       1 <0>        -0.0053
     19 C15         0.7461   -0.4763   -1.2535 C.3       1 <0>        -0.1347
     20 C16         0.0021   -0.0041    0.0020 C.3       1 <0>        -0.0950
     21 C17         0.7703   -0.4897    1.2377 C.3       1 <0>        -0.1331
     22 C18         2.1911    0.0794    1.1921 C.3       1 <0>        -0.0116
     23 O3         -2.6275    2.6486    3.0742 O.3       1 <0>        -0.5231
     24 H2         -5.9789    6.9956    0.6972 H         1 <0>         0.1308
     25 H3         -6.4318    4.5959    1.0124 H         1 <0>         0.1311
     26 H4         -4.6315    3.0909    1.7588 H         1 <0>         0.1218
     27 H5         -1.9280    6.3870    1.8844 H         1 <0>         0.1259
     28 H6         -3.7256    7.8903    1.1279 H         1 <0>         0.1312
     29 H7         -0.7210    5.3745    2.6501 H         1 <0>         0.1024
     30 H8         -1.5839    4.8263    4.1071 H         1 <0>         0.1240
     31 H9         -0.0905    2.6604    4.0255 H         1 <0>         0.1367
     32 H10         1.4805    4.9572    2.8122 H         1 <0>         0.1419
     33 H11         1.5856    2.6540   -0.8889 H         1 <0>         0.1432
     34 H12         1.6028    2.6441    0.8913 H         1 <0>         0.1291
     35 H13         2.8871   -0.7261   -1.2310 H         1 <0>         0.1354
     36 H14         2.3244    0.7169   -2.1090 H         1 <0>         0.1319
     37 H15         0.7888   -1.5654   -1.2647 H         1 <0>         0.1133
     38 H16         0.2240   -0.1221   -2.1423 H         1 <0>         0.1049
     39 H17        -1.0163   -0.3928    0.0027 H         1 <0>         0.1270
     40 H18         0.2668   -0.1432    2.1402 H         1 <0>         0.1095
     41 H19         0.8129   -1.5789    1.2364 H         1 <0>         0.1070
     42 H20         2.9103   -0.7393    1.1706 H         1 <0>         0.1344
     43 H21         2.3657    0.6938    2.0753 H         1 <0>         0.1246
     44 H22        -3.2622    2.1113    2.5807 H         1 <0>         0.3880
     45 N1          2.3753    0.9115   -0.0161 N.4       1 <0>        -0.3879
     46 H23         3.3331    1.2813   -0.0235 H         1 <0>         0.4357
@<TRIPOS>BOND
     1    1    6 ar
     2    1    2 ar
     3    1   24 1
     4    2    3 ar
     5    2   25 1
     6    3    4 ar
     7    3   26 1
     8    4    5 ar
     9    4    7 1
    10    5    6 ar
    11    5   27 1
    12    6   28 1
    13    7    8 1
    14    7   12 1
    15    7   23 1
    16    8    9 1
    17    8   29 1
    18    8   30 1
    19    9   10 2
    20    9   31 1
    21   10   11 1
    22   10   32 1
    23   12   13 2
    24   12   14 1
    25   14   15 1
    26   15   16 1
    27   15   20 1
    28   15   17 1
    29   17   33 1
    30   17   34 1
    31   17   45 1
    32   18   19 1
    33   18   35 1
    34   18   36 1
    35   18   45 1
    36   19   20 1
    37   19   37 1
    38   19   38 1
    39   20   21 1
    40   20   39 1
    41   21   22 1
    42   21   40 1
    43   21   41 1
    44   22   42 1
    45   22   43 1
    46   22   45 1
    47   23   44 1
    48   45   46 1
@<TRIPOS>MOLECULE
ZINC13739803
   36    37     0     0     0
SMALL
USER_CHARGES
3-(2-ethyltetrazol-5-yl)-1-propyl-5,6-dihydro-2H-pyridine
@<TRIPOS>ATOM
      1 C1          6.6901   -3.9205   -1.2751 C.3       1 <0>        -0.1555
      2 C2          5.8812   -2.6263   -1.3826 C.3       1 <0>        -0.1542
      3 C3          6.3966   -1.6159   -0.3558 C.3       1 <0>        -0.0034
      4 C4          6.2331    0.7000    0.3406 C.3       1 <0>        -0.0059
      5 C5          5.5819    2.0294   -0.0492 C.3       1 <0>        -0.1205
      6 C6          4.0856    1.8863   -0.0277 C.2       1 <0>        -0.0856
      7 C7          3.4843    0.7179   -0.0278 C.2       1 <0>        -0.0723
      8 C8          4.2284   -0.5865   -0.0357 C.3       1 <0>         0.0513
      9 C9          2.0057    0.6859   -0.0134 C.2       1 <0>         0.1817
     10 N1          1.2273   -0.4070   -0.0118 N.2       1 <0>        -0.2787
     11 N2          0.0021   -0.0041    0.0020 N.2       1 <0>        -0.0402
     12 N3         -0.0154    1.2830    0.0091 N.pl3     1 <0>        -0.1205
     13 N4          1.1945    1.7266   -0.0001 N.2       1 <0>        -0.2888
     14 C10        -1.2221    2.1137    0.0196 C.3       1 <0>         0.1175
     15 C11        -1.6347    2.3955    1.4657 C.3       1 <0>        -0.1733
     16 H1          6.3229   -4.6403   -2.0066 H         1 <0>         0.0775
     17 H2          7.7416   -3.7090   -1.4697 H         1 <0>         0.0669
     18 H3          6.5823   -4.3342   -0.2724 H         1 <0>         0.0674
     19 H4          4.8298   -2.8378   -1.1880 H         1 <0>         0.0879
     20 H5          5.9891   -2.2126   -2.3852 H         1 <0>         0.0862
     21 H6          7.4481   -1.4044   -0.5503 H         1 <0>         0.1336
     22 H7          6.2887   -2.0297    0.6469 H         1 <0>         0.1329
     23 H8          7.3030    0.7428    0.1368 H         1 <0>         0.1401
     24 H9          6.0668    0.5077    1.4005 H         1 <0>         0.1356
     25 H10         5.9048    2.3114   -1.0513 H         1 <0>         0.1148
     26 H11         5.8825    2.8018    0.6587 H         1 <0>         0.1329
     27 H12         3.4800    2.7804   -0.0111 H         1 <0>         0.1507
     28 H13         4.2135   -1.0166    0.9657 H         1 <0>         0.1471
     29 H14         3.7438   -1.2743   -0.7287 H         1 <0>         0.1461
     30 H15        -1.0193    3.0554   -0.4905 H         1 <0>         0.1229
     31 H16        -2.0287    1.5892   -0.4927 H         1 <0>         0.1267
     32 H17        -2.5325    3.0136    1.4735 H         1 <0>         0.1009
     33 H18        -1.8374    1.4538    1.9758 H         1 <0>         0.0728
     34 H19        -0.8281    2.9200    1.9780 H         1 <0>         0.0703
     35 N5          5.6176   -0.3627   -0.4793 N.4       1 <0>        -0.3951
     36 H20         5.6129   -0.0676   -1.4628 H         1 <0>         0.4303
@<TRIPOS>BOND
     1    1    2 1
     2    1   16 1
     3    1   17 1
     4    1   18 1
     5    2    3 1
     6    2   19 1
     7    2   20 1
     8    3   21 1
     9    3   22 1
    10    3   35 1
    11    4    5 1
    12    4   23 1
    13    4   24 1
    14    4   35 1
    15    5    6 1
    16    5   25 1
    17    5   26 1
    18    6    7 2
    19    6   27 1
    20    7    8 1
    21    7    9 1
    22    8   28 1
    23    8   29 1
    24    8   35 1
    25    9   13 2
    26    9   10 1
    27   10   11 2
    28   11   12 1
    29   12   13 1
    30   12   14 1
    31   14   15 1
    32   14   30 1
    33   14   31 1
    34   15   32 1
    35   15   33 1
    36   15   34 1
    37   35   36 1
@<TRIPOS>MOLECULE
ZINC02722237
   48    51     0     0     0
SMALL
USER_CHARGES

@<TRIPOS>ATOM
      1 C1         -0.0184    1.5028    0.0103 C.3       1 <0>        -0.0902
      2 C2          0.0021   -0.0041    0.0020 C.2       1 <0>         0.0848
      3 C3         -1.0762   -0.8076    0.0026 C.2       1 <0>        -0.2898
      4 C4         -0.6254   -2.1466   -0.0073 C.2       1 <0>         0.3280
      5 N1          0.6829   -2.1299   -0.0135 N.2       1 <0>        -0.3484
      6 O1          1.0997   -0.7765   -0.0131 O.3       1 <0>        -0.0662
      7 N2         -1.4321   -3.2847   -0.0099 N.am      1 <0>        -0.6227
      8 C5         -2.7740   -3.1595   -0.0028 C.2       1 <0>         0.5587
      9 O2         -3.2802   -2.0574    0.0060 O.2       1 <0>        -0.4953
     10 C6         -3.6455   -4.3889   -0.0057 C.3       1 <0>        -0.6614
     11 S1         -5.3904   -3.8932    0.0056 S.o2      1 <0>         2.5645
     12 O3         -5.7172   -3.2805    1.2453 O.2       1 <0>        -0.9234
     13 O4         -5.7291   -3.2663   -1.2239 O.2       1 <0>        -0.9104
     14 C7         -6.2914   -5.4075    0.0012 C.2       1 <0>        -0.7502
     15 C8         -7.0914   -5.8634    0.9779 C.2       1 <0>         0.2045
     16 N3         -7.6204   -7.0738    0.6209 N.pl3     1 <0>        -0.4640
     17 C9         -7.1620   -7.4355   -0.6261 C.ar      1 <0>         0.0927
     18 C10        -6.3144   -6.4046   -1.0717 C.ar      1 <0>        -0.0422
     19 C11        -5.7026   -6.4978   -2.3229 C.ar      1 <0>        -0.0898
     20 C12        -5.9335   -7.5900   -3.1113 C.ar      1 <0>        -0.1229
     21 C13        -6.7720   -8.6076   -2.6781 C.ar      1 <0>        -0.0987
     22 C14        -7.3787   -8.5403   -1.4427 C.ar      1 <0>        -0.1155
     23 C15        -8.5379   -7.8667    1.4430 C.3       1 <0>         0.1424
     24 C16        -7.7539   -8.8826    2.2331 C.ar      1 <0>        -0.0933
     25 C17        -7.5097  -10.1345    1.6993 C.ar      1 <0>        -0.1079
     26 C18        -6.7908  -11.0673    2.4228 C.ar      1 <0>        -0.0876
     27 C19        -6.3157  -10.7498    3.6814 C.ar      1 <0>        -0.1417
     28 C20        -6.5596   -9.4967    4.2169 C.ar      1 <0>         0.1016
     29 C21        -7.2748   -8.5609    3.4886 C.ar      1 <0>        -0.1361
     30 F1         -6.0961   -9.1854    5.4472 F         1 <0>        -0.1345
     31 H1          1.0042    1.8801    0.0026 H         1 <0>         0.0869
     32 H2         -0.5455    1.8639   -0.8728 H         1 <0>         0.0995
     33 H3         -0.5286    1.8543    0.9071 H         1 <0>         0.0994
     34 H4         -2.1071   -0.4855    0.0097 H         1 <0>         0.1852
     35 H5         -1.0273   -4.1661   -0.0170 H         1 <0>         0.4276
     36 H6         -3.4407   -4.9774   -0.9000 H         1 <0>         0.1710
     37 H7         -3.4322   -4.9876    0.8799 H         1 <0>         0.1723
     38 H8         -7.2882   -5.3509    1.9080 H         1 <0>         0.1926
     39 H9         -5.0495   -5.7095   -2.6669 H         1 <0>         0.1284
     40 H10        -5.4600   -7.6617   -4.0793 H         1 <0>         0.1305
     41 H11        -6.9452   -9.4641   -3.3127 H         1 <0>         0.1313
     42 H12        -8.0305   -9.3367   -1.1151 H         1 <0>         0.1228
     43 H13        -9.0735   -7.2088    2.1273 H         1 <0>         0.1118
     44 H14        -9.2519   -8.3798    0.7987 H         1 <0>         0.1081
     45 H15        -7.8811  -10.3837    0.7163 H         1 <0>         0.1307
     46 H16        -6.6006  -12.0448    2.0048 H         1 <0>         0.1384
     47 H17        -5.7546  -11.4791    4.2469 H         1 <0>         0.1400
     48 H18        -7.4619   -7.5815    3.9036 H         1 <0>         0.1388
@<TRIPOS>BOND
     1    1    2 1
     2    1   31 1
     3    1   32 1
     4    1   33 1
     5    2    6 1
     6    2    3 2
     7    3    4 1
     8    3   34 1
     9    4    5 2
    10    4    7 1
    11    5    6 1
    12    7    8 am
    13    7   35 1
    14    8    9 2
    15    8   10 1
    16   10   11 1
    17   10   36 1
    18   10   37 1
    19   11   12 2
    20   11   13 2
    21   11   14 1
    22   14   18 1
    23   14   15 2
    24   15   16 1
    25   15   38 1
    26   16   17 1
    27   16   23 1
    28   17   22 ar
    29   17   18 ar
    30   18   19 ar
    31   19   20 ar
    32   19   39 1
    33   20   21 ar
    34   20   40 1
    35   21   22 ar
    36   21   41 1
    37   22   42 1
    38   23   24 1
    39   23   43 1
    40   23   44 1
    41   24   29 ar
    42   24   25 ar
    43   25   26 ar
    44   25   45 1
    45   26   27 ar
    46   26   46 1
    47   27   28 ar
    48   27   47 1
    49   28   29 ar
    50   28   30 1
    51   29   48 1
@<TRIPOS>MOLECULE
ZINC13739810
   34    35     0     0     0
SMALL
USER_CHARGES
1-methyl-3-(2-propyltriazol-4-yl)-5,6-dihydro-2H-pyridine
@<TRIPOS>ATOM
      1 C1          2.1885   -3.7636   -1.4816 C.3       1 <0>        -0.1521
      2 C2          1.7612   -2.2946   -1.4697 C.3       1 <0>        -0.1389
      3 C3          1.6319   -1.8128   -0.0233 C.3       1 <0>         0.1314
      4 N1          1.2228   -0.4061   -0.0118 N.pl3     1 <0>        -0.1344
      5 N2          0.0021   -0.0041    0.0020 N.2       1 <0>        -0.2716
      6 C4         -0.0157    1.3079    0.0092 C.2       1 <0>        -0.0160
      7 C5          1.3345    1.7091   -0.0015 C.2       1 <0>         0.0121
      8 N3          2.0376    0.5885   -0.0142 N.2       1 <0>        -0.2649
      9 C6          1.8568    3.0931    0.0009 C.2       1 <0>        -0.0740
     10 C7          3.1587    3.2712   -0.0057 C.2       1 <0>        -0.1069
     11 C8          3.7916    4.6348   -0.0023 C.3       1 <0>        -0.1207
     12 C9          2.7513    5.6892   -0.3891 C.3       1 <0>        -0.0047
     13 C10         0.8744    4.2288    0.0170 C.3       1 <0>         0.0490
     14 C11         0.6276    6.6178    0.3199 C.3       1 <0>        -0.0409
     15 H1          3.1492   -3.8667   -0.9771 H         1 <0>         0.0632
     16 H2          1.4402   -4.3639   -0.9642 H         1 <0>         0.0643
     17 H3          2.2806   -4.1068   -2.5121 H         1 <0>         0.0701
     18 H4          0.8005   -2.1915   -1.9742 H         1 <0>         0.0755
     19 H5          2.5095   -1.6942   -1.9871 H         1 <0>         0.0734
     20 H6          2.5926   -1.9158    0.4813 H         1 <0>         0.1142
     21 H7          0.8836   -2.4131    0.4941 H         1 <0>         0.1165
     22 H8         -0.8857    1.9479    0.0170 H         1 <0>         0.1993
     23 H9          3.8002    2.4025   -0.0180 H         1 <0>         0.1460
     24 H10         4.6140    4.6574   -0.7172 H         1 <0>         0.1282
     25 H11         4.1727    4.8505    0.9959 H         1 <0>         0.1097
     26 H12         2.5058    5.5906   -1.4465 H         1 <0>         0.1343
     27 H13         3.1474    6.6863   -0.1966 H         1 <0>         0.1381
     28 H14         0.4511    4.3541   -0.9796 H         1 <0>         0.1448
     29 H15         0.0734    4.0033    0.7210 H         1 <0>         0.1416
     30 H16        -0.2323    6.4551    0.9697 H         1 <0>         0.1251
     31 H17         1.1473    7.5258    0.6255 H         1 <0>         0.1259
     32 H18         0.2894    6.7221   -0.7110 H         1 <0>         0.1248
     33 N4          1.5517    5.4676    0.4434 N.4       1 <0>        -0.3952
     34 H19         1.8378    5.3727    1.4250 H         1 <0>         0.4330
@<TRIPOS>BOND
     1    1    2 1
     2    1   15 1
     3    1   16 1
     4    1   17 1
     5    2    3 1
     6    2   18 1
     7    2   19 1
     8    3    4 1
     9    3   20 1
    10    3   21 1
    11    4    8 1
    12    4    5 1
    13    5    6 2
    14    6    7 1
    15    6   22 1
    16    7    8 2
    17    7    9 1
    18    9   13 1
    19    9   10 2
    20   10   11 1
    21   10   23 1
    22   11   12 1
    23   11   24 1
    24   11   25 1
    25   12   26 1
    26   12   27 1
    27   12   33 1
    28   13   28 1
    29   13   29 1
    30   13   33 1
    31   14   30 1
    32   14   31 1
    33   14   32 1
    34   14   33 1
    35   33   34 1
@<TRIPOS>MOLECULE
ZINC13456708
   40    41     0     0     0
SMALL
USER_CHARGES
1-methyl-3-(4-pentylsulfanyl-1,2,5-thiadiazol-3-yl)-5,6-dihydro-2H-pyridine
@<TRIPOS>ATOM
      1 C1          0.5738    2.0021   -4.9239 C.3       1 <0>        -0.1565
      2 C2         -0.2128    2.3968   -3.6723 C.3       1 <0>        -0.1239
      3 C3          0.4230    1.7438   -2.4434 C.3       1 <0>        -0.1154
      4 C4         -0.3636    2.1384   -1.1918 C.3       1 <0>        -0.1056
      5 C5          0.2722    1.4854    0.0371 C.3       1 <0>        -0.1072
      6 S1         -0.6604    1.9533    1.5210 S.3       1 <0>        -0.0033
      7 C6          0.1847    1.1334    2.8318 C.2       1 <0>         0.0620
      8 C7         -0.2116    1.2274    4.1655 C.2       1 <0>         0.0729
      9 N1          0.5086    0.5639    5.0464 N.2       1 <0>        -0.4587
     10 S2          1.6393   -0.1471    4.2117 S.3       1 <0>         0.5404
     11 N2          1.2442    0.3726    2.6367 N.2       1 <0>        -0.4549
     12 C8         -1.3820    2.0324    4.5706 C.2       1 <0>        -0.0914
     13 C9         -2.5658    1.6962    4.1057 C.2       1 <0>        -0.0867
     14 C10        -3.8188    2.4497    4.4551 C.3       1 <0>        -0.1196
     15 C11        -3.5659    3.3360    5.6772 C.3       1 <0>        -0.0052
     16 C12        -1.1644    3.2002    5.4893 C.3       1 <0>         0.0533
     17 C13        -2.1869    5.1775    6.4405 C.3       1 <0>        -0.0408
     18 H1          0.1208    2.4674   -5.7994 H         1 <0>         0.0577
     19 H2          1.6056    2.3396   -4.8260 H         1 <0>         0.0552
     20 H3          0.5553    0.9183   -5.0379 H         1 <0>         0.0555
     21 H4         -1.2446    2.0593   -3.7702 H         1 <0>         0.0633
     22 H5         -0.1943    3.4806   -3.5583 H         1 <0>         0.0629
     23 H6          1.4548    2.0813   -2.3455 H         1 <0>         0.0675
     24 H7          0.4045    0.6599   -2.5574 H         1 <0>         0.0679
     25 H8         -1.3954    1.8009   -1.2897 H         1 <0>         0.0758
     26 H9         -0.3451    3.2223   -1.0778 H         1 <0>         0.0749
     27 H10         0.2537    0.4015   -0.0769 H         1 <0>         0.0986
     28 H11         1.3040    1.8229    0.1350 H         1 <0>         0.0978
     29 H12        -2.6412    0.8416    3.4496 H         1 <0>         0.1451
     30 H13        -4.6191    1.7441    4.6782 H         1 <0>         0.1318
     31 H14        -4.1108    3.0726    3.6096 H         1 <0>         0.1154
     32 H15        -3.4583    2.7132    6.5652 H         1 <0>         0.1346
     33 H16        -4.3996    4.0251    5.8122 H         1 <0>         0.1400
     34 H17        -1.0195    2.8369    6.5068 H         1 <0>         0.1452
     35 H18        -0.2759    3.7471    5.1738 H         1 <0>         0.1380
     36 H19        -1.2904    5.7572    6.2205 H         1 <0>         0.1243
     37 H20        -3.0606    5.8275    6.3933 H         1 <0>         0.1270
     38 H21        -2.1063    4.7490    7.4395 H         1 <0>         0.1244
     39 N3         -2.3285    4.1039    5.4308 N.4       1 <0>        -0.3956
     40 H22        -2.3775    4.5278    4.4970 H         1 <0>         0.4333
@<TRIPOS>BOND
     1    1    2 1
     2    1   18 1
     3    1   19 1
     4    1   20 1
     5    2    3 1
     6    2   21 1
     7    2   22 1
     8    3    4 1
     9    3   23 1
    10    3   24 1
    11    4    5 1
    12    4   25 1
    13    4   26 1
    14    5    6 1
    15    5   27 1
    16    5   28 1
    17    6    7 1
    18    7   11 2
    19    7    8 1
    20    8    9 2
    21    8   12 1
    22    9   10 1
    23   10   11 1
    24   12   16 1
    25   12   13 2
    26   13   14 1
    27   13   29 1
    28   14   15 1
    29   14   30 1
    30   14   31 1
    31   15   32 1
    32   15   33 1
    33   15   39 1
    34   16   34 1
    35   16   35 1
    36   16   39 1
    37   17   36 1
    38   17   37 1
    39   17   38 1
    40   17   39 1
    41   39   40 1
@<TRIPOS>MOLECULE
ZINC00006302
   30    31     0     0     0
SMALL
USER_CHARGES
3-(2-ethyltetrazol-5-yl)-1-methyl-5,6-dihydro-2H-pyridine
@<TRIPOS>ATOM
      1 C1          7.4515    1.5362   -2.8418 C.3       1 <0>        -0.1735
      2 C2          6.3255    2.3478   -3.4854 C.3       1 <0>         0.1174
      3 N1          5.1965    2.4389   -2.5562 N.pl3     1 <0>        -0.1203
      4 N2          4.2211    1.5997   -2.4843 N.2       1 <0>        -0.2889
      5 C3          3.4012    2.0145   -1.5372 C.2       1 <0>         0.1812
      6 N3          3.9334    3.1390   -1.0347 N.2       1 <0>        -0.2789
      7 N4          5.0267    3.3665   -1.6801 N.2       1 <0>        -0.0400
      8 C4          2.1441    1.3634   -1.1089 C.2       1 <0>        -0.0731
      9 C5          1.7723    0.2589   -1.7162 C.2       1 <0>        -0.0856
     10 C6          0.5094   -0.4761   -1.3629 C.3       1 <0>        -0.1210
     11 C7          0.0021   -0.0041    0.0020 C.3       1 <0>        -0.0063
     12 C8          1.3525    1.9951   -0.0001 C.3       1 <0>         0.0530
     13 C9         -0.7695    1.9779    1.1647 C.3       1 <0>        -0.0403
     14 H1          8.2915    1.4684   -3.5331 H         1 <0>         0.1010
     15 H2          7.7749    2.0277   -1.9242 H         1 <0>         0.0728
     16 H3          7.0904    0.5344   -2.6095 H         1 <0>         0.0703
     17 H4          6.0021    1.8563   -4.4030 H         1 <0>         0.1230
     18 H5          6.6866    3.3496   -3.7177 H         1 <0>         0.1269
     19 H6          2.3995   -0.1368   -2.5013 H         1 <0>         0.1505
     20 H7          0.7115   -1.5465   -1.3243 H         1 <0>         0.1326
     21 H8         -0.2490   -0.2773   -2.1202 H         1 <0>         0.1150
     22 H9          0.6684   -0.3655    0.7853 H         1 <0>         0.1353
     23 H10        -1.0048   -0.3848    0.1733 H         1 <0>         0.1404
     24 H11         1.3229    3.0747   -0.1477 H         1 <0>         0.1467
     25 H12         1.8305    1.7767    0.9548 H         1 <0>         0.1469
     26 H13        -0.3015    1.6297    2.0854 H         1 <0>         0.1252
     27 H14        -0.7685    3.0678    1.1462 H         1 <0>         0.1259
     28 H15        -1.7962    1.6147    1.1190 H         1 <0>         0.1265
     29 N5         -0.0266    1.4725   -0.0122 N.4       1 <0>        -0.3958
     30 H16        -0.4984    1.7904   -0.8669 H         1 <0>         0.4329
@<TRIPOS>BOND
     1    1    2 1
     2    1   14 1
     3    1   15 1
     4    1   16 1
     5    2    3 1
     6    2   17 1
     7    2   18 1
     8    3    7 1
     9    3    4 1
    10    4    5 2
    11    5    6 1
    12    5    8 1
    13    6    7 2
    14    8   12 1
    15    8    9 2
    16    9   10 1
    17    9   19 1
    18   10   11 1
    19   10   20 1
    20   10   21 1
    21   11   22 1
    22   11   23 1
    23   11   29 1
    24   12   24 1
    25   12   25 1
    26   12   29 1
    27   13   26 1
    28   13   27 1
    29   13   28 1
    30   13   29 1
    31   29   30 1
@<TRIPOS>MOLECULE
ZINC13739804
   36    37     0     0     0
SMALL
USER_CHARGES
3-(2-ethyltetrazol-5-yl)-1-isopropyl-5,6-dihydro-2H-pyridine
@<TRIPOS>ATOM
      1 C1          7.4515    1.5362   -2.8418 C.3       1 <0>        -0.1734
      2 C2          6.3255    2.3478   -3.4854 C.3       1 <0>         0.1176
      3 N1          5.1965    2.4389   -2.5562 N.pl3     1 <0>        -0.1206
      4 N2          4.2211    1.5997   -2.4843 N.2       1 <0>        -0.2889
      5 C3          3.4012    2.0145   -1.5372 C.2       1 <0>         0.1822
      6 N3          3.9334    3.1390   -1.0347 N.2       1 <0>        -0.2788
      7 N4          5.0267    3.3665   -1.6801 N.2       1 <0>        -0.0403
      8 C4          2.1441    1.3634   -1.1089 C.2       1 <0>        -0.0717
      9 C5          1.7723    0.2589   -1.7162 C.2       1 <0>        -0.0858
     10 C6          0.5094   -0.4761   -1.3629 C.3       1 <0>        -0.1194
     11 C7          0.0021   -0.0041    0.0020 C.3       1 <0>        -0.0101
     12 C8          1.3525    1.9951   -0.0001 C.3       1 <0>         0.0504
     13 C9         -0.7695    1.9779    1.1647 C.3       1 <0>         0.0300
     14 C10        -0.6635    3.5036    1.2087 C.3       1 <0>        -0.1884
     15 C11        -2.2391    1.5723    1.0360 C.3       1 <0>        -0.1841
     16 H1          7.7749    2.0277   -1.9242 H         1 <0>         0.0727
     17 H2          7.0904    0.5344   -2.6095 H         1 <0>         0.0703
     18 H3          8.2915    1.4684   -3.5331 H         1 <0>         0.1009
     19 H4          6.0021    1.8563   -4.4030 H         1 <0>         0.1228
     20 H5          6.6866    3.3496   -3.7177 H         1 <0>         0.1267
     21 H6          2.3995   -0.1368   -2.5013 H         1 <0>         0.1507
     22 H7          0.7115   -1.5465   -1.3243 H         1 <0>         0.1327
     23 H8         -0.2490   -0.2773   -2.1202 H         1 <0>         0.1144
     24 H9          0.6684   -0.3655    0.7853 H         1 <0>         0.1355
     25 H10        -1.0048   -0.3848    0.1733 H         1 <0>         0.1410
     26 H11         1.3229    3.0747   -0.1477 H         1 <0>         0.1476
     27 H12         1.8305    1.7767    0.9548 H         1 <0>         0.1462
     28 H13        -0.3557    1.5583    2.0816 H         1 <0>         0.1401
     29 H14        -1.2212    3.8820    2.0654 H         1 <0>         0.1071
     30 H15         0.3835    3.7926    1.3003 H         1 <0>         0.0851
     31 H16        -1.0773    3.9232    0.2917 H         1 <0>         0.0815
     32 H17        -2.3146    0.4853    1.0047 H         1 <0>         0.0815
     33 H18        -2.7968    1.9507    1.8927 H         1 <0>         0.1078
     34 H19        -2.6529    1.9918    0.1190 H         1 <0>         0.0818
     35 N5         -0.0266    1.4725   -0.0122 N.4       1 <0>        -0.3927
     36 H20        -0.4984    1.7904   -0.8669 H         1 <0>         0.4279
@<TRIPOS>BOND
     1    1    2 1
     2    1   16 1
     3    1   17 1
     4    1   18 1
     5    2    3 1
     6    2   19 1
     7    2   20 1
     8    3    7 1
     9    3    4 1
    10    4    5 2
    11    5    6 1
    12    5    8 1
    13    6    7 2
    14    8   12 1
    15    8    9 2
    16    9   10 1
    17    9   21 1
    18   10   11 1
    19   10   22 1
    20   10   23 1
    21   11   24 1
    22   11   25 1
    23   11   35 1
    24   12   26 1
    25   12   27 1
    26   12   35 1
    27   13   14 1
    28   13   15 1
    29   13   28 1
    30   13   35 1
    31   14   29 1
    32   14   30 1
    33   14   31 1
    34   15   32 1
    35   15   33 1
    36   15   34 1
    37   35   36 1
@<TRIPOS>MOLECULE
ZINC64469004
   48    51     0     0     0
SMALL
USER_CHARGES

@<TRIPOS>ATOM
      1 C1         -0.0184    1.5028    0.0103 C.3       1 <0>        -0.0902
      2 C2          0.0021   -0.0041    0.0020 C.2       1 <0>         0.0849
      3 C3         -1.0762   -0.8076    0.0026 C.2       1 <0>        -0.2899
      4 C4         -0.6254   -2.1466   -0.0073 C.2       1 <0>         0.3281
      5 N1          0.6829   -2.1299   -0.0135 N.2       1 <0>        -0.3484
      6 O1          1.0997   -0.7765   -0.0131 O.3       1 <0>        -0.0662
      7 N2         -1.4321   -3.2847   -0.0099 N.am      1 <0>        -0.6227
      8 C5         -2.7740   -3.1595   -0.0028 C.2       1 <0>         0.5588
      9 O2         -3.2802   -2.0574    0.0060 O.2       1 <0>        -0.4951
     10 C6         -3.6455   -4.3889   -0.0057 C.3       1 <0>        -0.6615
     11 S1         -5.3904   -3.8932    0.0056 S.o2      1 <0>         2.5638
     12 O3         -5.7172   -3.2805    1.2453 O.2       1 <0>        -0.9223
     13 O4         -5.7291   -3.2663   -1.2239 O.2       1 <0>        -0.9099
     14 C7         -6.2914   -5.4075    0.0012 C.2       1 <0>        -0.7496
     15 C8         -7.0914   -5.8634    0.9779 C.2       1 <0>         0.2063
     16 N3         -7.6204   -7.0738    0.6209 N.pl3     1 <0>        -0.4656
     17 C9         -7.1620   -7.4355   -0.6261 C.ar      1 <0>         0.0918
     18 C10        -6.3144   -6.4046   -1.0717 C.ar      1 <0>        -0.0414
     19 C11        -5.7026   -6.4978   -2.3229 C.ar      1 <0>        -0.0894
     20 C12        -5.9335   -7.5900   -3.1113 C.ar      1 <0>        -0.1223
     21 C13        -6.7720   -8.6076   -2.6781 C.ar      1 <0>        -0.0972
     22 C14        -7.3787   -8.5403   -1.4427 C.ar      1 <0>        -0.1156
     23 C15        -8.5379   -7.8667    1.4430 C.3       1 <0>         0.1453
     24 C16        -7.7539   -8.8826    2.2331 C.ar      1 <0>        -0.1514
     25 C17        -7.5975  -10.1664    1.7456 C.ar      1 <0>        -0.0401
     26 C18        -6.8781  -11.0989    2.4707 C.ar      1 <0>        -0.1046
     27 C19        -6.3145  -10.7475    3.6843 C.ar      1 <0>        -0.0486
     28 C20        -6.4701   -9.4645    4.1729 C.ar      1 <0>        -0.1458
     29 C21        -7.1855   -8.5286    3.4448 C.ar      1 <0>         0.1349
     30 F1         -7.3333   -7.2724    3.9192 F         1 <0>        -0.1264
     31 Br1        -6.6651  -12.8553    1.8031 Br        1 <0>        -0.0290
     32 H1          1.0042    1.8801    0.0026 H         1 <0>         0.0869
     33 H2         -0.5455    1.8639   -0.8728 H         1 <0>         0.0995
     34 H3         -0.5286    1.8543    0.9071 H         1 <0>         0.0994
     35 H4         -2.1071   -0.4855    0.0097 H         1 <0>         0.1852
     36 H5         -1.0273   -4.1661   -0.0170 H         1 <0>         0.4276
     37 H6         -3.4407   -4.9774   -0.9000 H         1 <0>         0.1711
     38 H7         -3.4322   -4.9876    0.8799 H         1 <0>         0.1722
     39 H8         -7.2882   -5.3509    1.9080 H         1 <0>         0.1927
     40 H9         -5.0495   -5.7095   -2.6669 H         1 <0>         0.1287
     41 H10        -5.4600   -7.6617   -4.0793 H         1 <0>         0.1309
     42 H11        -6.9452   -9.4641   -3.3127 H         1 <0>         0.1318
     43 H12        -8.0305   -9.3367   -1.1151 H         1 <0>         0.1218
     44 H13        -9.0735   -7.2088    2.1273 H         1 <0>         0.1149
     45 H14        -9.2519   -8.3798    0.7987 H         1 <0>         0.1121
     46 H15        -8.0375  -10.4416    0.7985 H         1 <0>         0.1442
     47 H16        -5.7531  -11.4762    4.2501 H         1 <0>         0.1486
     48 H17        -6.0307   -9.1904    5.1206 H         1 <0>         0.1517
@<TRIPOS>BOND
     1    1    2 1
     2    1   32 1
     3    1   33 1
     4    1   34 1
     5    2    6 1
     6    2    3 2
     7    3    4 1
     8    3   35 1
     9    4    5 2
    10    4    7 1
    11    5    6 1
    12    7    8 am
    13    7   36 1
    14    8    9 2
    15    8   10 1
    16   10   11 1
    17   10   37 1
    18   10   38 1
    19   11   12 2
    20   11   13 2
    21   11   14 1
    22   14   18 1
    23   14   15 2
    24   15   16 1
    25   15   39 1
    26   16   17 1
    27   16   23 1
    28   17   22 ar
    29   17   18 ar
    30   18   19 ar
    31   19   20 ar
    32   19   40 1
    33   20   21 ar
    34   20   41 1
    35   21   22 ar
    36   21   42 1
    37   22   43 1
    38   23   24 1
    39   23   44 1
    40   23   45 1
    41   24   29 ar
    42   24   25 ar
    43   25   26 ar
    44   25   46 1
    45   26   27 ar
    46   26   31 1
    47   27   28 ar
    48   27   47 1
    49   28   29 ar
    50   28   48 1
    51   29   30 1
@<TRIPOS>MOLECULE
ZINC03830579
   52    55     0     0     0
SMALL
USER_CHARGES

@<TRIPOS>ATOM
      1 C1         -1.6129    0.1752    0.6734 C.3       1 <0>        -0.0486
      2 N1         -1.4850   -1.2489    0.3364 N.4       1 <0>        -0.2577
      3 C2         -2.7823   -1.7295   -0.1450 C.3       1 <0>        -0.0058
      4 C3         -2.6880   -3.2118   -0.5138 C.3       1 <0>        -0.1364
      5 C4         -1.2560   -3.6967   -0.2522 C.3       1 <0>        -0.0966
      6 C5         -0.9301   -3.4664    1.2293 C.3       1 <0>        -0.1359
      7 C6         -1.0807   -1.9760    1.5421 C.3       1 <0>        -0.0081
      8 C7         -0.2963   -2.8479   -1.0965 C.3       1 <0>         0.0718
      9 H1          0.7308   -3.1591   -0.9057 H         1 <0>         0.1198
     10 C8         -0.4727   -1.3877   -0.7132 C.3       1 <0>        -0.0239
     11 O1         -0.5988   -3.0188   -2.4826 O.3       1 <0>        -0.3229
     12 C9          0.4201   -2.8984   -3.3481 C.2       1 <0>         0.4460
     13 O2          1.5321   -2.6560   -2.9422 O.2       1 <0>        -0.4725
     14 C10         0.1772   -3.0656   -4.8259 C.3       1 <0>         0.2527
     15 C11        -0.2845   -1.7556   -5.4105 C.ar      1 <0>        -0.0867
     16 C12         0.2952   -0.5712   -4.9958 C.ar      1 <0>        -0.1218
     17 C13        -0.1282    0.6305   -5.5320 C.ar      1 <0>        -0.1169
     18 C14        -1.1311    0.6478   -6.4832 C.ar      1 <0>        -0.1047
     19 C15        -1.7102   -0.5367   -6.8986 C.ar      1 <0>        -0.1152
     20 C16        -1.2838   -1.7388   -6.3655 C.ar      1 <0>        -0.0752
     21 C17         1.4553   -3.4938   -5.4998 C.ar      1 <0>        -0.1299
     22 C18         1.5419   -4.7416   -6.0883 C.ar      1 <0>        -0.0998
     23 C19         2.7143   -5.1344   -6.7064 C.ar      1 <0>        -0.1183
     24 C20         3.7999   -4.2791   -6.7365 C.ar      1 <0>        -0.0999
     25 C21         3.7130   -3.0309   -6.1489 C.ar      1 <0>        -0.1201
     26 C22         2.5392   -2.6365   -5.5345 C.ar      1 <0>        -0.0776
     27 O3         -0.8274   -4.0604   -5.0340 O.3       1 <0>        -0.5226
     28 H2         -0.6545    0.5513    1.0314 H         1 <0>         0.1232
     29 H3         -1.9136    0.7329   -0.2135 H         1 <0>         0.1227
     30 H4         -2.3653    0.2981    1.4523 H         1 <0>         0.1263
     31 H5         -3.5296   -1.5983    0.6375 H         1 <0>         0.1308
     32 H6         -3.0769   -1.1562   -1.0239 H         1 <0>         0.1285
     33 H7         -3.3852   -3.7852    0.0972 H         1 <0>         0.1046
     34 H8         -2.9309   -3.3420   -1.5683 H         1 <0>         0.1097
     35 H9         -1.1645   -4.7545   -0.4991 H         1 <0>         0.1265
     36 H10        -1.6189   -4.0411    1.8484 H         1 <0>         0.1120
     37 H11         0.0941   -3.7803    1.4310 H         1 <0>         0.1039
     38 H12        -0.1287   -1.5833    1.8991 H         1 <0>         0.1299
     39 H13        -1.8376   -1.8434    2.3152 H         1 <0>         0.1334
     40 H14        -0.7793   -0.8160   -1.5892 H         1 <0>         0.1361
     41 H15         0.4807   -1.0049   -0.3491 H         1 <0>         0.1384
     42 H16         1.0788   -0.5846   -4.2526 H         1 <0>         0.1207
     43 H17         0.3242    1.5559   -5.2075 H         1 <0>         0.1284
     44 H18        -1.4624    1.5867   -6.9016 H         1 <0>         0.1296
     45 H19        -2.4940   -0.5232   -7.6415 H         1 <0>         0.1319
     46 H20        -1.7336   -2.6645   -6.6927 H         1 <0>         0.1376
     47 H21         0.6938   -5.4098   -6.0648 H         1 <0>         0.1295
     48 H22         2.7823   -6.1095   -7.1656 H         1 <0>         0.1309
     49 H23         4.7161   -4.5862   -7.2189 H         1 <0>         0.1294
     50 H24         4.5612   -2.3628   -6.1721 H         1 <0>         0.1287
     51 H25         2.4700   -1.6599   -5.0786 H         1 <0>         0.1238
     52 H26        -0.5973   -4.9313   -4.6823 H         1 <0>         0.3901
@<TRIPOS>BOND
     1    1    2 1
     2    1   28 1
     3    1   29 1
     4    1   30 1
     5    2    7 1
     6    2   10 1
     7    2    3 1
     8    3    4 1
     9    3   31 1
    10    3   32 1
    11    4    5 1
    12    4   33 1
    13    4   34 1
    14    5    6 1
    15    5    8 1
    16    5   35 1
    17    6    7 1
    18    6   36 1
    19    6   37 1
    20    7   38 1
    21    7   39 1
    22    8    9 1
    23    8   10 1
    24    8   11 1
    25   10   40 1
    26   10   41 1
    27   11   12 1
    28   12   13 2
    29   12   14 1
    30   14   15 1
    31   14   21 1
    32   14   27 1
    33   15   20 ar
    34   15   16 ar
    35   16   17 ar
    36   16   42 1
    37   17   18 ar
    38   17   43 1
    39   18   19 ar
    40   18   44 1
    41   19   20 ar
    42   19   45 1
    43   20   46 1
    44   21   26 ar
    45   21   22 ar
    46   22   23 ar
    47   22   47 1
    48   23   24 ar
    49   23   48 1
    50   24   25 ar
    51   24   49 1
    52   25   26 ar
    53   25   50 1
    54   26   51 1
    55   27   52 1
@<TRIPOS>MOLECULE
ZINC03079342
   25    24     0     0     0
SMALL
USER_CHARGES

@<TRIPOS>ATOM
      1 C1          0.5385    1.3265   -0.0156 C.3       1 <0>        -0.0552
      2 N1          0.0207   -0.0467    0.0478 N.4       1 <0>        -0.2722
      3 C2          0.5070   -0.6974    1.2718 C.3       1 <0>        -0.0471
      4 C3         -1.4480   -0.0161    0.0600 C.3       1 <0>        -0.0454
      5 C4          0.4850   -0.7999   -1.1248 C.3       1 <0>        -0.0017
      6 C5          2.0115   -0.7313   -1.2033 C.3       1 <0>         0.0515
      7 O1          2.5777   -1.4543   -0.1084 O.3       1 <0>        -0.3772
      8 C6          3.9213   -1.4920   -0.0303 C.2       1 <0>         0.6511
      9 O2          4.5947   -0.9264   -0.8688 O.2       1 <0>        -0.5552
     10 N2          4.5193   -2.1570    0.9780 N.am      1 <0>        -0.8167
     11 H1          1.6283    1.3038   -0.0246 H         1 <0>         0.1211
     12 H2          0.1776    1.8093   -0.9238 H         1 <0>         0.1253
     13 H3          0.1939    1.8853    0.8545 H         1 <0>         0.1262
     14 H4          0.0211   -0.2500    2.1388 H         1 <0>         0.1189
     15 H5          0.2750   -1.7618    1.2342 H         1 <0>         0.1224
     16 H6          1.5859   -0.5633    1.3504 H         1 <0>         0.1286
     17 H7         -1.8089    0.4667   -0.8482 H         1 <0>         0.1227
     18 H8         -1.8322   -1.0351    0.1071 H         1 <0>         0.1229
     19 H9         -1.7926    0.5427    0.9301 H         1 <0>         0.1241
     20 H10         0.1722   -1.8402   -1.0357 H         1 <0>         0.1419
     21 H11         0.0550   -0.3672   -2.0281 H         1 <0>         0.1522
     22 H12         2.3472   -1.1718   -2.1420 H         1 <0>         0.1171
     23 H13         2.3314    0.3096   -1.1555 H         1 <0>         0.0971
     24 H14         3.9817   -2.6085    1.6473 H         1 <0>         0.4117
     25 H15         5.4873   -2.1841    1.0343 H         1 <0>         0.4360
@<TRIPOS>BOND
     1    1    2 1
     2    1   11 1
     3    1   12 1
     4    1   13 1
     5    2    3 1
     6    2    4 1
     7    2    5 1
     8    3   14 1
     9    3   15 1
    10    3   16 1
    11    4   17 1
    12    4   18 1
    13    4   19 1
    14    5    6 1
    15    5   20 1
    16    5   21 1
    17    6    7 1
    18    6   22 1
    19    6   23 1
    20    7    8 1
    21    8    9 2
    22    8   10 am
    23   10   24 1
    24   10   25 1
@<TRIPOS>MOLECULE
ZINC02529340
   32    34     0     0     0
SMALL
USER_CHARGES
3-(6-chloro-2-pyridyl)-8-methyl-8-azabicyclo[3.2.1]oct-3-ene
@<TRIPOS>ATOM
      1 C1         -2.0413    0.9992   -1.3406 C.3       1 <0>        -0.0327
      2 C2         -0.9145    3.1015   -0.7305 C.3       1 <0>         0.0376
      3 H1         -1.7002    3.6006   -1.2976 H         1 <0>         0.1594
      4 C3         -1.2614    3.0421    0.7693 C.3       1 <0>        -0.1441
      5 C4         -0.7277    1.6769    1.2516 C.3       1 <0>        -0.1365
      6 C5         -0.0127    1.0858    0.0080 C.3       1 <0>         0.0706
      7 H2          0.0021   -0.0041    0.0020 H         1 <0>         0.1688
      8 C6          1.3755    1.6954   -0.0020 C.2       1 <0>        -0.1840
      9 C7          1.5557    2.9318   -0.4229 C.2       1 <0>        -0.0310
     10 C8          0.4349    3.7961   -0.9273 C.3       1 <0>        -0.1058
     11 C9          2.9222    3.4933   -0.3971 C.ar      1 <0>         0.1513
     12 C10         3.9811    2.7156    0.0719 C.ar      1 <0>        -0.1534
     13 C11         5.2563    3.2532    0.0849 C.ar      1 <0>        -0.0538
     14 C12         5.4314    4.5554   -0.3609 C.ar      1 <0>        -0.1375
     15 C13         4.3356    5.2735   -0.8082 C.ar      1 <0>         0.1810
     16 N1          3.1317    4.7364   -0.8155 N.ar      1 <0>        -0.4671
     17 Cl1         4.5498    6.9029   -1.3675 Cl        1 <0>        -0.0089
     18 H3         -2.6481    1.1243   -0.4438 H         1 <0>         0.1181
     19 H4         -2.5565    1.4426   -2.1927 H         1 <0>         0.1258
     20 H5         -1.8810   -0.0630   -1.5255 H         1 <0>         0.1252
     21 H6         -0.7662    3.8522    1.3047 H         1 <0>         0.1103
     22 H7         -2.3406    3.1000    0.9107 H         1 <0>         0.1031
     23 H8         -1.5422    1.0256    1.5686 H         1 <0>         0.1028
     24 H9         -0.0177    1.8249    2.0652 H         1 <0>         0.1122
     25 H10         2.2203    1.1145    0.3375 H         1 <0>         0.1566
     26 H11         0.4358    4.7398   -0.3818 H         1 <0>         0.1293
     27 H12         0.5847    3.9953   -1.9884 H         1 <0>         0.1114
     28 H13         3.8088    1.7065    0.4160 H         1 <0>         0.1476
     29 H14         6.0960    2.6733    0.4385 H         1 <0>         0.1562
     30 H15         6.4136    5.0045   -0.3593 H         1 <0>         0.1561
     31 N2         -0.7166    1.6902   -1.1088 N.4       1 <0>        -0.3991
     32 H16        -0.1498    1.6284   -1.9627 H         1 <0>         0.4305
@<TRIPOS>BOND
     1    1   18 1
     2    1   19 1
     3    1   20 1
     4    1   31 1
     5    2    3 1
     6    2   10 1
     7    2    4 1
     8    2   31 1
     9    4    5 1
    10    4   21 1
    11    4   22 1
    12    5    6 1
    13    5   23 1
    14    5   24 1
    15    6    7 1
    16    6    8 1
    17    6   31 1
    18    8    9 2
    19    8   25 1
    20    9   10 1
    21    9   11 1
    22   10   26 1
    23   10   27 1
    24   11   16 ar
    25   11   12 ar
    26   12   13 ar
    27   12   28 1
    28   13   14 ar
    29   13   29 1
    30   14   15 ar
    31   14   30 1
    32   15   16 ar
    33   15   17 1
    34   31   32 1
@<TRIPOS>MOLECULE
ZINC02722303
   48    51     0     0     0
SMALL
USER_CHARGES

@<TRIPOS>ATOM
      1 C1         -0.0184    1.5028    0.0103 C.3       1 <0>        -0.0902
      2 C2          0.0021   -0.0041    0.0020 C.2       1 <0>         0.0847
      3 C3         -1.0762   -0.8076    0.0026 C.2       1 <0>        -0.2898
      4 C4         -0.6254   -2.1466   -0.0073 C.2       1 <0>         0.3282
      5 N1          0.6829   -2.1299   -0.0135 N.2       1 <0>        -0.3485
      6 O1          1.0997   -0.7765   -0.0131 O.3       1 <0>        -0.0663
      7 N2         -1.4321   -3.2847   -0.0099 N.am      1 <0>        -0.6226
      8 C5         -2.7740   -3.1595   -0.0028 C.2       1 <0>         0.5589
      9 O2         -3.2802   -2.0574    0.0060 O.2       1 <0>        -0.4951
     10 C6         -3.6455   -4.3889   -0.0057 C.3       1 <0>        -0.6617
     11 S1         -5.3904   -3.8932    0.0056 S.o2      1 <0>         2.5630
     12 O3         -5.7172   -3.2805    1.2453 O.2       1 <0>        -0.9228
     13 O4         -5.7291   -3.2663   -1.2239 O.2       1 <0>        -0.9102
     14 C7         -6.2914   -5.4075    0.0012 C.2       1 <0>        -0.7516
     15 C8         -7.0914   -5.8634    0.9779 C.2       1 <0>         0.2089
     16 N3         -7.6204   -7.0738    0.6209 N.pl3     1 <0>        -0.4611
     17 C9         -7.1620   -7.4355   -0.6261 C.ar      1 <0>         0.0929
     18 C10        -6.3144   -6.4046   -1.0717 C.ar      1 <0>        -0.0409
     19 C11        -5.7026   -6.4978   -2.3229 C.ar      1 <0>        -0.0896
     20 C12        -5.9335   -7.5900   -3.1113 C.ar      1 <0>        -0.1231
     21 C13        -6.7720   -8.6076   -2.6781 C.ar      1 <0>        -0.0991
     22 C14        -7.3787   -8.5403   -1.4427 C.ar      1 <0>        -0.1148
     23 C15        -8.5379   -7.8667    1.4430 C.3       1 <0>         0.1391
     24 C16        -7.7539   -8.8826    2.2331 C.ar      1 <0>        -0.1138
     25 C17        -7.5975  -10.1667    1.7455 C.ar      1 <0>        -0.0846
     26 C18        -6.8785  -11.0986    2.4701 C.ar      1 <0>        -0.1127
     27 C19        -6.3154  -10.7472    3.6830 C.ar      1 <0>        -0.0937
     28 C20        -6.4711   -9.4639    4.1715 C.ar      1 <0>        -0.1089
     29 C21        -7.1859   -8.5289    3.4438 C.ar      1 <0>        -0.0200
     30 Cl1        -7.3764   -6.9147    4.0537 Cl        1 <0>        -0.0607
     31 H1          1.0042    1.8801    0.0026 H         1 <0>         0.0869
     32 H2         -0.5455    1.8639   -0.8728 H         1 <0>         0.0995
     33 H3         -0.5286    1.8543    0.9071 H         1 <0>         0.0993
     34 H4         -2.1071   -0.4855    0.0097 H         1 <0>         0.1852
     35 H5         -1.0273   -4.1661   -0.0170 H         1 <0>         0.4276
     36 H6         -3.4407   -4.9774   -0.9000 H         1 <0>         0.1713
     37 H7         -3.4322   -4.9876    0.8799 H         1 <0>         0.1725
     38 H8         -7.2882   -5.3509    1.9080 H         1 <0>         0.1871
     39 H9         -5.0495   -5.7095   -2.6669 H         1 <0>         0.1283
     40 H10        -5.4600   -7.6617   -4.0793 H         1 <0>         0.1304
     41 H11        -6.9452   -9.4641   -3.3127 H         1 <0>         0.1310
     42 H12        -8.0305   -9.3367   -1.1151 H         1 <0>         0.1221
     43 H13        -9.0735   -7.2088    2.1273 H         1 <0>         0.1119
     44 H14        -9.2519   -8.3798    0.7987 H         1 <0>         0.1087
     45 H15        -8.0375  -10.4418    0.7984 H         1 <0>         0.1333
     46 H16        -6.7569  -12.1017    2.0889 H         1 <0>         0.1347
     47 H17        -5.7540  -11.4759    4.2489 H         1 <0>         0.1372
     48 H18        -6.0314   -9.1896    5.1191 H         1 <0>         0.1391
@<TRIPOS>BOND
     1    1    2 1
     2    1   31 1
     3    1   32 1
     4    1   33 1
     5    2    6 1
     6    2    3 2
     7    3    4 1
     8    3   34 1
     9    4    5 2
    10    4    7 1
    11    5    6 1
    12    7    8 am
    13    7   35 1
    14    8    9 2
    15    8   10 1
    16   10   11 1
    17   10   36 1
    18   10   37 1
    19   11   12 2
    20   11   13 2
    21   11   14 1
    22   14   18 1
    23   14   15 2
    24   15   16 1
    25   15   38 1
    26   16   17 1
    27   16   23 1
    28   17   22 ar
    29   17   18 ar
    30   18   19 ar
    31   19   20 ar
    32   19   39 1
    33   20   21 ar
    34   20   40 1
    35   21   22 ar
    36   21   41 1
    37   22   42 1
    38   23   24 1
    39   23   43 1
    40   23   44 1
    41   24   29 ar
    42   24   25 ar
    43   25   26 ar
    44   25   45 1
    45   26   27 ar
    46   26   46 1
    47   27   28 ar
    48   27   47 1
    49   28   29 ar
    50   28   48 1
    51   29   30 1
@<TRIPOS>MOLECULE
ZINC01851873
   31    32     0     0     0
SMALL
USER_CHARGES
1-[4-(1-methyl-1-azoniacycloprop-1-yl)but-2-ynyl]pyrrolidin-2-one
@<TRIPOS>ATOM
      1 C1         -1.3361    2.9013   -1.0538 C.3       1 <0>        -0.0206
      2 N1         -0.7232    1.5724   -1.1821 N.4       1 <0>        -0.3499
      3 C2         -1.4464    0.5764   -1.9838 C.3       1 <0>        -0.0045
      4 C3         -0.1562    1.2204   -2.4907 C.3       1 <0>         0.0008
      5 C4         -0.0127    1.0858    0.0080 C.3       1 <0>         0.1609
      6 C5         -0.7017    1.5605    1.2191 C.1       1 <0>        -0.2588
      7 C6         -1.2512    1.9391    2.1850 C.1       1 <0>        -0.0718
      8 C7         -1.9402    2.4139    3.3961 C.3       1 <0>         0.2178
      9 N2         -1.2316    1.9286    4.5829 N.am      1 <0>        -0.6243
     10 C8         -1.5211    0.6581    5.2584 C.3       1 <0>         0.0986
     11 C9         -0.2830    0.3707    6.1396 C.3       1 <0>        -0.1325
     12 C10         0.2687    1.7952    6.3789 C.3       1 <0>        -0.1566
     13 C11        -0.2368    2.5923    5.1966 C.2       1 <0>         0.5206
     14 O1          0.1928    3.6731    4.8527 O.2       1 <0>        -0.5256
     15 H1         -0.5964    3.6668   -1.2885 H         1 <0>         0.1207
     16 H2         -2.1751    2.9827   -1.7448 H         1 <0>         0.1234
     17 H3         -1.6915    3.0405   -0.0328 H         1 <0>         0.1217
     18 H4         -1.3989   -0.4636   -1.6610 H         1 <0>         0.1682
     19 H5         -2.3825    0.8850   -2.4492 H         1 <0>         0.1678
     20 H6         -0.2385    1.9552   -3.2916 H         1 <0>         0.1699
     21 H7          0.7459    0.6087   -2.5028 H         1 <0>         0.1705
     22 H8          0.0021   -0.0041    0.0020 H         1 <0>         0.1469
     23 H9          1.0099    1.4631    0.0003 H         1 <0>         0.1451
     24 H10        -1.9550    3.5037    3.4021 H         1 <0>         0.1221
     25 H11        -2.9628    2.0366    3.4038 H         1 <0>         0.1232
     26 H12        -2.4134    0.7545    5.8769 H         1 <0>         0.0839
     27 H13        -1.6536   -0.1373    4.5251 H         1 <0>         0.0805
     28 H14         0.4436   -0.2450    5.6094 H         1 <0>         0.0829
     29 H15        -0.5758   -0.0972    7.0795 H         1 <0>         0.0993
     30 H16         1.3585    1.7847    6.3940 H         1 <0>         0.1067
     31 H17        -0.1209    2.2059    7.3104 H         1 <0>         0.1132
@<TRIPOS>BOND
     1    1    2 1
     2    1   15 1
     3    1   16 1
     4    1   17 1
     5    2    4 1
     6    2    3 1
     7    2    5 1
     8    3    4 1
     9    3   18 1
    10    3   19 1
    11    4   20 1
    12    4   21 1
    13    5    6 1
    14    5   22 1
    15    5   23 1
    16    6    7 3
    17    7    8 1
    18    8    9 1
    19    8   24 1
    20    8   25 1
    21    9   13 am
    22    9   10 1
    23   10   11 1
    24   10   26 1
    25   10   27 1
    26   11   12 1
    27   11   28 1
    28   11   29 1
    29   12   13 1
    30   12   30 1
    31   12   31 1
    32   13   14 2
@<TRIPOS>MOLECULE
ZINC27980293
   48    51     0     0     0
SMALL
USER_CHARGES

@<TRIPOS>ATOM
      1 C1         -0.0167    1.3796    0.0096 C.ar      1 <0>        -0.1085
      2 C2          1.1667    2.0962    0.0022 C.ar      1 <0>        -0.1231
      3 C3          2.3784    1.4334   -0.0257 C.ar      1 <0>        -0.0838
      4 C4          2.4001    0.0432   -0.0387 C.ar      1 <0>        -0.0313
      5 C5          1.2065   -0.6757   -0.0092 C.ar      1 <0>        -0.0620
      6 C6          0.0021   -0.0041    0.0020 C.ar      1 <0>        -0.1162
      7 C7          1.2523   -2.1776    0.0464 C.3       1 <0>        -0.0862
      8 C8          1.5575   -2.7721   -1.3239 C.3       1 <0>        -0.1048
      9 C9          2.6881   -2.0046   -2.0076 C.3       1 <0>        -0.0851
     10 C10         3.8108   -1.7271   -1.0495 C.ar      1 <0>        -0.0235
     11 C11         3.6766   -0.7051   -0.1024 C.ar      1 <0>         0.0578
     12 N1          4.6799   -0.4327    0.7165 N.ar      1 <0>        -0.1835
     13 N2          5.7784   -1.0987    0.6851 N.ar      1 <0>        -0.3131
     14 C12         5.9811   -2.0975   -0.1622 C.ar      1 <0>         0.3494
     15 C13         4.9834   -2.4495   -1.0765 C.ar      1 <0>        -0.1783
     16 N3          7.1838   -2.7937   -0.1423 N.pl3     1 <0>        -0.7143
     17 C14         7.4068   -3.8975   -1.0793 C.3       1 <0>         0.1280
     18 C15         8.7991   -4.4886   -0.8490 C.3       1 <0>         0.0445
     19 N4          9.0227   -5.5955   -1.7886 N.3       1 <0>        -0.5331
     20 C16         8.1206   -6.7203   -1.5019 C.3       1 <0>         0.0110
     21 C17         8.3452   -7.8246   -2.5383 C.3       1 <0>         0.0629
     22 O1          9.7208   -8.2156   -2.5204 O.3       1 <0>        -0.3842
     23 C18        10.6274   -7.1445   -2.7963 C.3       1 <0>         0.0629
     24 C19        10.4259   -6.0334   -1.7625 C.3       1 <0>         0.0181
     25 H1         -0.9610    1.9034    0.0260 H         1 <0>         0.1248
     26 H2          1.1432    3.1759    0.0178 H         1 <0>         0.1265
     27 H3          3.3029    1.9915   -0.0376 H         1 <0>         0.1269
     28 H4         -0.9254   -0.5573    0.0046 H         1 <0>         0.1264
     29 H5          2.0261   -2.4855    0.7497 H         1 <0>         0.0689
     30 H6          0.2884   -2.5518    0.3914 H         1 <0>         0.0785
     31 H7          1.8522   -3.8148   -1.2052 H         1 <0>         0.0708
     32 H8          0.6628   -2.7213   -1.9444 H         1 <0>         0.0770
     33 H9          3.0675   -2.5949   -2.8417 H         1 <0>         0.0809
     34 H10         2.3001   -1.0593   -2.3871 H         1 <0>         0.0858
     35 H11         5.1269   -3.2580   -1.7781 H         1 <0>         0.1473
     36 H12         7.8756   -2.5487    0.4920 H         1 <0>         0.4099
     37 H13         6.6535   -4.6686   -0.9183 H         1 <0>         0.0657
     38 H14         7.3342   -3.5265   -2.1017 H         1 <0>         0.0765
     39 H15         9.5524   -3.7175   -1.0100 H         1 <0>         0.0872
     40 H16         8.8717   -4.8596    0.1734 H         1 <0>         0.0465
     41 H17         8.3288   -7.1090   -0.5051 H         1 <0>         0.0468
     42 H18         7.0865   -6.3794   -1.5517 H         1 <0>         0.0888
     43 H19         7.7195   -8.6836   -2.2963 H         1 <0>         0.1003
     44 H20         8.0856   -7.4520   -3.5292 H         1 <0>         0.0617
     45 H21        11.6522   -7.5117   -2.7409 H         1 <0>         0.1011
     46 H22        10.4342   -6.7521   -3.7947 H         1 <0>         0.0620
     47 H23        11.0746   -5.1909   -2.0025 H         1 <0>         0.0897
     48 H24        10.6709   -6.4110   -0.7698 H         1 <0>         0.0466
@<TRIPOS>BOND
     1    1    6 ar
     2    1    2 ar
     3    1   25 1
     4    2    3 ar
     5    2   26 1
     6    3    4 ar
     7    3   27 1
     8    4   11 1
     9    4    5 ar
    10    5    6 ar
    11    5    7 1
    12    6   28 1
    13    7    8 1
    14    7   29 1
    15    7   30 1
    16    8    9 1
    17    8   31 1
    18    8   32 1
    19    9   10 1
    20    9   33 1
    21    9   34 1
    22   10   15 ar
    23   10   11 ar
    24   11   12 ar
    25   12   13 ar
    26   13   14 ar
    27   14   15 ar
    28   14   16 1
    29   15   35 1
    30   16   17 1
    31   16   36 1
    32   17   18 1
    33   17   37 1
    34   17   38 1
    35   18   19 1
    36   18   39 1
    37   18   40 1
    38   19   24 1
    39   19   20 1
    40   20   21 1
    41   20   41 1
    42   20   42 1
    43   21   22 1
    44   21   43 1
    45   21   44 1
    46   22   23 1
    47   23   24 1
    48   23   45 1
    49   23   46 1
    50   24   47 1
    51   24   48 1
@<TRIPOS>MOLECULE
ZINC22454198
   63    66     0     0     0
SMALL
USER_CHARGES

@<TRIPOS>ATOM
      1 C1          3.7363   -2.4652    4.4496 C.3       1 <0>        -0.1796
      2 C2          2.9845   -1.9903    3.2045 C.3       1 <0>        -0.0557
      3 N1          1.9173   -2.9469    2.8822 N.4       1 <0>        -0.3766
      4 C3          0.9693   -3.0185    4.0021 C.3       1 <0>        -0.0205
      5 C4         -0.0535   -4.1245    3.7345 C.3       1 <0>        -0.1879
      6 C5          1.2126   -2.5048    1.6715 C.3       1 <0>        -0.0145
      7 C6          2.1525   -2.6063    0.4685 C.3       1 <0>         0.0555
      8 H1          1.6017   -2.3748   -0.4432 H         1 <0>         0.0958
      9 C7          2.7136   -4.0272    0.3784 C.3       1 <0>        -0.1243
     10 C8          3.6690   -4.1187   -0.8148 C.3       1 <0>        -0.1226
     11 C9          4.7828   -3.0814   -0.6474 C.3       1 <0>        -0.1192
     12 C10         4.1616   -1.6879   -0.5275 C.3       1 <0>         0.0474
     13 N2          3.2569   -1.6519    0.6286 N.3       1 <0>        -0.5201
     14 C11         2.7491   -0.2926    0.8574 C.3       1 <0>         0.0145
     15 C12         3.8621    0.5778    1.3816 C.2       1 <0>         0.5305
     16 O1          4.9649    0.1075    1.5643 O.2       1 <0>        -0.4785
     17 N3          3.6318    1.8789    1.6473 N.am      1 <0>        -0.5093
     18 C13         4.6781    2.7203    2.0213 C.ar      1 <0>         0.1608
     19 C14         5.4159    2.4454    3.1637 C.ar      1 <0>        -0.1021
     20 C15         6.4274    3.2993    3.5569 C.ar      1 <0>        -0.0762
     21 C16         6.7098    4.4353    2.8164 C.ar      1 <0>        -0.1135
     22 C17         5.9968    4.7149    1.6709 C.ar      1 <0>        -0.0462
     23 C18         4.9822    3.8500    1.2493 C.ar      1 <0>        -0.1376
     24 C19         4.2858    4.1039   -0.0175 C.2       1 <0>         0.5680
     25 O2          4.9500    4.5470   -0.9343 O.2       1 <0>        -0.5066
     26 N4          2.9995    3.8935   -0.2523 N.am      1 <0>        -0.6555
     27 C20         2.0490    3.4215    0.6482 C.ar      1 <0>         0.1169
     28 C21         2.3415    2.4057    1.5464 C.ar      1 <0>         0.3044
     29 N5          1.3913    1.9274    2.3381 N.ar      1 <0>        -0.4788
     30 C22         0.1668    2.4167    2.3331 C.ar      1 <0>         0.1077
     31 C23        -0.1775    3.4577    1.4943 C.ar      1 <0>        -0.1319
     32 C24         0.7704    3.9710    0.6406 C.ar      1 <0>        -0.0799
     33 H2          4.0753   -3.4903    4.3003 H         1 <0>         0.0751
     34 H3          4.5972   -1.8193    4.6226 H         1 <0>         0.1013
     35 H4          3.0720   -2.4242    5.3128 H         1 <0>         0.0723
     36 H5          2.5481   -1.0099    3.3955 H         1 <0>         0.1151
     37 H6          3.6772   -1.9225    2.3656 H         1 <0>         0.1891
     38 H7          1.5102   -3.2387    4.9225 H         1 <0>         0.1325
     39 H8          0.4537   -2.0635    4.1033 H         1 <0>         0.1266
     40 H9          0.4559   -5.0870    3.6880 H         1 <0>         0.0801
     41 H10        -0.7892   -4.1412    4.5386 H         1 <0>         0.1052
     42 H11        -0.5559   -3.9331    2.7863 H         1 <0>         0.0778
     43 H12         0.3413   -3.1386    1.5064 H         1 <0>         0.1413
     44 H13         0.8913   -1.4706    1.7954 H         1 <0>         0.1304
     45 H14         3.2530   -4.2644    1.2954 H         1 <0>         0.0670
     46 H15         1.8948   -4.7340    0.2440 H         1 <0>         0.0883
     47 H16         4.1043   -5.1171   -0.8571 H         1 <0>         0.0798
     48 H17         3.1213   -3.9198   -1.7360 H         1 <0>         0.0707
     49 H18         5.3547   -3.3036    0.2535 H         1 <0>         0.0770
     50 H19         5.4423   -3.1125   -1.5147 H         1 <0>         0.0810
     51 H20         4.9513   -0.9486   -0.3939 H         1 <0>         0.0973
     52 H21         3.6013   -1.4608   -1.4345 H         1 <0>         0.0471
     53 H22         2.3772    0.1190   -0.0809 H         1 <0>         0.0811
     54 H23         1.9393   -0.3251    1.5862 H         1 <0>         0.1188
     55 H24         5.1986    1.5625    3.7465 H         1 <0>         0.1332
     56 H25         7.0006    3.0806    4.4458 H         1 <0>         0.1409
     57 H26         7.4928    5.1057    3.1388 H         1 <0>         0.1431
     58 H27         6.2215    5.6028    1.0986 H         1 <0>         0.1441
     59 H28         2.6857    4.0898   -1.1489 H         1 <0>         0.4167
     60 H29        -0.5772    1.9971    2.9940 H         1 <0>         0.1727
     61 H30        -1.1778    3.8645    1.5105 H         1 <0>         0.1559
     62 H31         0.5230    4.7829   -0.0272 H         1 <0>         0.1552
     63 H32         2.3196   -3.8585    2.7233 H         1 <0>         0.4189
@<TRIPOS>BOND
     1    1    2 1
     2    1   33 1
     3    1   34 1
     4    1   35 1
     5    2    3 1
     6    2   36 1
     7    2   37 1
     8    3    4 1
     9    3    6 1
    10    3   63 1
    11    4    5 1
    12    4   38 1
    13    4   39 1
    14    5   40 1
    15    5   41 1
    16    5   42 1
    17    6    7 1
    18    6   43 1
    19    6   44 1
    20    7    8 1
    21    7   13 1
    22    7    9 1
    23    9   10 1
    24    9   45 1
    25    9   46 1
    26   10   11 1
    27   10   47 1
    28   10   48 1
    29   11   12 1
    30   11   49 1
    31   11   50 1
    32   12   13 1
    33   12   51 1
    34   12   52 1
    35   13   14 1
    36   14   15 1
    37   14   53 1
    38   14   54 1
    39   15   16 2
    40   15   17 am
    41   17   28 1
    42   17   18 1
    43   18   23 ar
    44   18   19 ar
    45   19   20 ar
    46   19   55 1
    47   20   21 ar
    48   20   56 1
    49   21   22 ar
    50   21   57 1
    51   22   23 ar
    52   22   58 1
    53   23   24 1
    54   24   25 2
    55   24   26 am
    56   26   27 1
    57   26   59 1
    58   27   32 ar
    59   27   28 ar
    60   28   29 ar
    61   29   30 ar
    62   30   31 ar
    63   30   60 1
    64   31   32 ar
    65   31   61 1
    66   32   62 1
@<TRIPOS>MOLECULE
ZINC22454203
   63    66     0     0     0
SMALL
USER_CHARGES

@<TRIPOS>ATOM
      1 C1          2.3844   -0.5288    2.8835 C.3       1 <0>        -0.1884
      2 C2          2.6615   -2.0249    2.7225 C.3       1 <0>        -0.0230
      3 N1          1.3938   -2.7384    2.5180 N.4       1 <0>        -0.3829
      4 C3          0.5122   -2.5105    3.6707 C.3       1 <0>        -0.0177
      5 C4          1.1417   -3.1234    4.9233 C.3       1 <0>        -0.1865
      6 C5          0.7434   -2.2414    1.2982 C.3       1 <0>        -0.0210
      7 C6          1.6030   -2.5930    0.0824 C.3       1 <0>         0.0658
      8 H1          2.5922   -2.1497    0.1965 H         1 <0>         0.0673
      9 C7          1.7351   -4.1138   -0.0261 C.3       1 <0>        -0.1263
     10 C8          2.5792   -4.4615   -1.2554 C.3       1 <0>        -0.1208
     11 C9          1.9227   -3.8616   -2.5018 C.3       1 <0>        -0.1199
     12 C10         1.7851   -2.3481   -2.3216 C.3       1 <0>         0.0567
     13 N2          0.9688   -2.0678   -1.1335 N.3       1 <0>        -0.5060
     14 C11         0.6997   -0.6292   -1.0075 C.3       1 <0>         0.0280
     15 C12        -0.2574   -0.2005   -2.0898 C.2       1 <0>         0.5313
     16 O1         -0.7602   -1.0298   -2.8180 O.2       1 <0>        -0.4731
     17 N3         -0.5547    1.1045   -2.2484 N.am      1 <0>        -0.5141
     18 C13        -1.5127    1.5036   -3.1787 C.ar      1 <0>         0.1642
     19 C14        -1.3406    1.2078   -4.5233 C.ar      1 <0>        -0.1026
     20 C15        -2.2693    1.6364   -5.4511 C.ar      1 <0>        -0.0744
     21 C16        -3.3753    2.3657   -5.0466 C.ar      1 <0>        -0.1154
     22 C17        -3.5691    2.6549   -3.7134 C.ar      1 <0>        -0.0474
     23 C18        -2.6476    2.2115   -2.7597 C.ar      1 <0>        -0.1411
     24 C19        -2.9034    2.4447   -1.3334 C.2       1 <0>         0.5707
     25 O2         -4.0572    2.3654   -0.9585 O.2       1 <0>        -0.5104
     26 N4         -1.9910    2.7332   -0.4177 N.am      1 <0>        -0.6551
     27 C20        -0.6242    2.9005   -0.6197 C.ar      1 <0>         0.1102
     28 C21         0.0889    2.0770   -1.4786 C.ar      1 <0>         0.3092
     29 N5          1.4031    2.2148   -1.5897 N.ar      1 <0>        -0.4700
     30 C22         2.0649    3.1482   -0.9342 C.ar      1 <0>         0.1109
     31 C23         1.4081    4.0281   -0.0975 C.ar      1 <0>        -0.1366
     32 C24         0.0479    3.9086    0.0649 C.ar      1 <0>        -0.0827
     33 H2          1.7033   -0.3735    3.7202 H         1 <0>         0.0839
     34 H3          3.3207   -0.0045    3.0750 H         1 <0>         0.1078
     35 H4          1.9320   -0.1427    1.9701 H         1 <0>         0.0745
     36 H5          3.3107   -2.1836    1.8614 H         1 <0>         0.1300
     37 H6          3.1503   -2.4026    3.6205 H         1 <0>         0.1356
     38 H7          0.3775   -1.4391    3.8189 H         1 <0>         0.1313
     39 H8         -0.4558   -2.9762    3.4855 H         1 <0>         0.1320
     40 H9          2.0590   -2.5880    5.1681 H         1 <0>         0.0811
     41 H10         0.4427   -3.0463    5.7561 H         1 <0>         0.1073
     42 H11         1.3718   -4.1726    4.7380 H         1 <0>         0.0805
     43 H12        -0.2381   -2.7042    1.1954 H         1 <0>         0.1434
     44 H13         0.6298   -1.1592    1.3622 H         1 <0>         0.1301
     45 H14         2.2199   -4.5017    0.8698 H         1 <0>         0.0627
     46 H15         0.7452   -4.5588   -0.1266 H         1 <0>         0.0911
     47 H16         3.5814   -4.0495   -1.1375 H         1 <0>         0.0652
     48 H17         2.6397   -5.5447   -1.3611 H         1 <0>         0.0790
     49 H18         2.5414   -4.0694   -3.3748 H         1 <0>         0.0795
     50 H19         0.9357   -4.3027   -2.6413 H         1 <0>         0.0802
     51 H20         2.7734   -1.9060   -2.1960 H         1 <0>         0.0424
     52 H21         1.3050   -1.9198   -3.2015 H         1 <0>         0.0945
     53 H22         0.2590   -0.4261   -0.0315 H         1 <0>         0.0980
     54 H23         1.6328   -0.0748   -1.1073 H         1 <0>         0.0911
     55 H24        -0.4789    0.6417   -4.8448 H         1 <0>         0.1348
     56 H25        -2.1325    1.4023   -6.4965 H         1 <0>         0.1412
     57 H26        -4.0894    2.7097   -5.7802 H         1 <0>         0.1425
     58 H27        -4.4332    3.2246   -3.4048 H         1 <0>         0.1431
     59 H28        -2.3100    2.8396    0.4921 H         1 <0>         0.4138
     60 H29         3.1355    3.2250   -1.0532 H         1 <0>         0.1728
     61 H30         1.9558    4.8012    0.4208 H         1 <0>         0.1545
     62 H31        -0.4866    4.5833    0.7172 H         1 <0>         0.1534
     63 H32         1.5754   -3.7264    2.4236 H         1 <0>         0.4239
@<TRIPOS>BOND
     1    1    2 1
     2    1   33 1
     3    1   34 1
     4    1   35 1
     5    2    3 1
     6    2   36 1
     7    2   37 1
     8    3    4 1
     9    3    6 1
    10    3   63 1
    11    4    5 1
    12    4   38 1
    13    4   39 1
    14    5   40 1
    15    5   41 1
    16    5   42 1
    17    6    7 1
    18    6   43 1
    19    6   44 1
    20    7    8 1
    21    7   13 1
    22    7    9 1
    23    9   10 1
    24    9   45 1
    25    9   46 1
    26   10   11 1
    27   10   47 1
    28   10   48 1
    29   11   12 1
    30   11   49 1
    31   11   50 1
    32   12   13 1
    33   12   51 1
    34   12   52 1
    35   13   14 1
    36   14   15 1
    37   14   53 1
    38   14   54 1
    39   15   16 2
    40   15   17 am
    41   17   28 1
    42   17   18 1
    43   18   23 ar
    44   18   19 ar
    45   19   20 ar
    46   19   55 1
    47   20   21 ar
    48   20   56 1
    49   21   22 ar
    50   21   57 1
    51   22   23 ar
    52   22   58 1
    53   23   24 1
    54   24   25 2
    55   24   26 am
    56   26   27 1
    57   26   59 1
    58   27   32 ar
    59   27   28 ar
    60   28   29 ar
    61   29   30 ar
    62   30   31 ar
    63   30   60 1
    64   31   32 ar
    65   31   61 1
    66   32   62 1
@<TRIPOS>MOLECULE
ZINC03936683
   54    58     0     0     0
SMALL
USER_CHARGES

@<TRIPOS>ATOM
      1 C1         -0.0161    1.3791    0.0139 C.ar      1 <0>        -0.1072
      2 C2          0.0881    0.1354    0.6081 C.ar      1 <0>        -0.1195
      3 C3          1.2942   -0.5398    0.5913 C.ar      1 <0>        -0.1025
      4 C4          2.3960    0.0285   -0.0201 C.ar      1 <0>        -0.1067
      5 C5          2.2916    1.2719   -0.6151 C.ar      1 <0>        -0.0987
      6 C6          1.0859    1.9477   -0.5971 C.ar      1 <0>        -0.1176
      7 C7          3.7112   -0.7071   -0.0376 C.3       1 <0>         0.2465
      8 H1          4.4779   -0.0690   -0.4769 H         1 <0>         0.1178
      9 C8          4.1045   -1.0655    1.3735 C.ar      1 <0>        -0.0920
     10 C9          4.5143   -0.0380    2.2125 C.ar      1 <0>        -0.1011
     11 C10         4.8763   -0.3016    3.5174 C.ar      1 <0>        -0.1131
     12 C11         4.8295   -1.5990    3.9930 C.ar      1 <0>        -0.1088
     13 C12         4.4268   -2.6211    3.1592 C.ar      1 <0>        -0.1180
     14 C13         4.0668   -2.3593    1.8427 C.ar      1 <0>        -0.0760
     15 C14         3.6633   -3.5285    0.9836 C.3       1 <0>        -0.0959
     16 C15         2.8595   -3.0609   -0.2287 C.3       1 <0>         0.0988
     17 N1          3.5762   -1.9293   -0.8374 N.am      1 <0>        -0.5753
     18 C16         4.0877   -2.0127   -2.0815 C.2       1 <0>         0.6539
     19 O1          4.6747   -1.0635   -2.5620 O.2       1 <0>        -0.5591
     20 O2          3.9482   -3.1478   -2.7920 O.3       1 <0>        -0.3491
     21 C17         4.5151   -3.1660   -4.1036 C.3       1 <0>         0.0967
     22 H2          4.5010   -2.1594   -4.5216 H         1 <0>         0.1228
     23 C18         5.9577   -3.6714   -4.0318 C.3       1 <0>        -0.0270
     24 N2          6.1041   -4.8865   -4.8366 N.4       1 <0>        -0.3731
     25 C19         5.8050   -4.6120   -6.2441 C.3       1 <0>        -0.0108
     26 C20         4.3573   -4.1377   -6.3893 C.3       1 <0>        -0.1360
     27 C21         3.7020   -4.1071   -5.0022 C.3       1 <0>        -0.0973
     28 C22         3.7681   -5.5203   -4.4080 C.3       1 <0>        -0.1345
     29 C23         5.2396   -5.9520   -4.3237 C.3       1 <0>        -0.0080
     30 H3         -0.9595    1.9047    0.0231 H         1 <0>         0.1263
     31 H4         -0.7727   -0.3087    1.0858 H         1 <0>         0.1258
     32 H5          1.3758   -1.5113    1.0562 H         1 <0>         0.1232
     33 H6          3.1526    1.7161   -1.0925 H         1 <0>         0.1247
     34 H7          1.0044    2.9193   -1.0616 H         1 <0>         0.1271
     35 H8          4.5496    0.9754    1.8408 H         1 <0>         0.1252
     36 H9          5.1952    0.5021    4.1646 H         1 <0>         0.1288
     37 H10         5.1079   -1.8116    5.0146 H         1 <0>         0.1274
     38 H11         4.3905   -3.6338    3.5328 H         1 <0>         0.1247
     39 H12         4.5586   -4.0478    0.6415 H         1 <0>         0.0793
     40 H13         3.0556   -4.2143    1.5739 H         1 <0>         0.0939
     41 H14         2.7730   -3.8739   -0.9496 H         1 <0>         0.0977
     42 H15         1.8668   -2.7410    0.0882 H         1 <0>         0.0907
     43 H16         6.6298   -2.9023   -4.4126 H         1 <0>         0.1437
     44 H17         6.2128   -3.8912   -2.9952 H         1 <0>         0.1372
     45 H18         6.4779   -3.8377   -6.6124 H         1 <0>         0.1331
     46 H19         5.9481   -5.5210   -6.8282 H         1 <0>         0.1353
     47 H20         4.3424   -3.1366   -6.8203 H         1 <0>         0.1049
     48 H21         3.8112   -4.8242   -7.0363 H         1 <0>         0.1117
     49 H22         2.6711   -3.7610   -5.0768 H         1 <0>         0.1268
     50 H23         3.3318   -5.5173   -3.4091 H         1 <0>         0.1060
     51 H24         3.2181   -6.2112   -5.0469 H         1 <0>         0.1046
     52 H25         5.3858   -6.8540   -4.9180 H         1 <0>         0.1332
     53 H26         5.4982   -6.1592   -3.2853 H         1 <0>         0.1301
     54 H27         7.0625   -5.1961   -4.7760 H         1 <0>         0.4295
@<TRIPOS>BOND
     1    1    6 ar
     2    1    2 ar
     3    1   30 1
     4    2    3 ar
     5    2   31 1
     6    3    4 ar
     7    3   32 1
     8    4    5 ar
     9    4    7 1
    10    5    6 ar
    11    5   33 1
    12    6   34 1
    13    7    8 1
    14    7   17 1
    15    7    9 1
    16    9   14 ar
    17    9   10 ar
    18   10   11 ar
    19   10   35 1
    20   11   12 ar
    21   11   36 1
    22   12   13 ar
    23   12   37 1
    24   13   14 ar
    25   13   38 1
    26   14   15 1
    27   15   16 1
    28   15   39 1
    29   15   40 1
    30   16   17 1
    31   16   41 1
    32   16   42 1
    33   17   18 am
    34   18   19 2
    35   18   20 1
    36   20   21 1
    37   21   22 1
    38   21   27 1
    39   21   23 1
    40   23   24 1
    41   23   43 1
    42   23   44 1
    43   24   29 1
    44   24   25 1
    45   24   54 1
    46   25   26 1
    47   25   45 1
    48   25   46 1
    49   26   27 1
    50   26   47 1
    51   26   48 1
    52   27   28 1
    53   27   49 1
    54   28   29 1
    55   28   50 1
    56   28   51 1
    57   29   52 1
    58   29   53 1
@<TRIPOS>MOLECULE
ZINC28090831
   39    40     0     0     0
SMALL
USER_CHARGES
2-(4-diethylaminobut-2-ynyl)isoindoline-1,3-dione
@<TRIPOS>ATOM
      1 C1         -0.8850   -3.0287   -2.2942 C.3       1 <0>        -0.1912
      2 C2         -1.8385   -2.6295   -1.1662 C.3       1 <0>        -0.0135
      3 N1         -1.3465   -3.1741    0.1064 N.4       1 <0>        -0.4014
      4 C3         -1.3095   -4.6422    0.0715 C.3       1 <0>        -0.0152
      5 C4         -2.7377   -5.1895    0.1114 C.3       1 <0>        -0.1883
      6 C5         -0.0268   -2.6220    0.4402 C.3       1 <0>         0.1284
      7 C6         -0.1506   -1.1787    0.7015 C.1       1 <0>        -0.2449
      8 C7         -0.2493   -0.0275    0.9099 C.1       1 <0>        -0.0773
      9 C8         -0.3730    1.4158    1.1711 C.3       1 <0>         0.2059
     10 N2          0.9431    1.9664    1.5041 N.am      1 <0>        -0.5810
     11 C9          1.4409    2.0478    2.7512 C.2       1 <0>         0.5778
     12 O1          0.8794    1.6815    3.7638 O.2       1 <0>        -0.4522
     13 C10         2.7869    2.6547    2.6824 C.ar      1 <0>        -0.1452
     14 C11         3.7525    2.9768    3.6226 C.ar      1 <0>        -0.0390
     15 C12         4.9421    3.5593    3.2141 C.ar      1 <0>        -0.0884
     16 C13         5.1712    3.8207    1.8762 C.ar      1 <0>        -0.0892
     17 C14         4.2145    3.5039    0.9245 C.ar      1 <0>        -0.0392
     18 C15         3.0205    2.9212    1.3182 C.ar      1 <0>        -0.1467
     19 C16         1.8106    2.4626    0.6035 C.2       1 <0>         0.5796
     20 O2          1.6299    2.5235   -0.5959 O.2       1 <0>        -0.4567
     21 H1         -1.2533   -2.6210   -3.2471 H         1 <0>         0.1068
     22 H2         -0.8338   -4.1255   -2.3600 H         1 <0>         0.0824
     23 H3          0.1176   -2.6266   -2.0864 H         1 <0>         0.0783
     24 H4         -1.8897   -1.5327   -1.1004 H         1 <0>         0.1281
     25 H5         -2.8411   -3.0316   -1.3740 H         1 <0>         0.1344
     26 H6         -0.8152   -4.9746   -0.8532 H         1 <0>         0.1324
     27 H7         -0.7493   -5.0157    0.9414 H         1 <0>         0.1336
     28 H8         -2.7099   -6.2888    0.0853 H         1 <0>         0.1086
     29 H9         -3.2979   -4.8161   -0.7585 H         1 <0>         0.0801
     30 H10        -3.2320   -4.8571    1.0361 H         1 <0>         0.0820
     31 H11         0.3648   -3.1247    1.3368 H         1 <0>         0.1527
     32 H12         0.6623   -2.7845   -0.4017 H         1 <0>         0.1484
     33 H13        -0.7645    1.9184    0.2744 H         1 <0>         0.1374
     34 H14        -1.0621    1.5784    2.0129 H         1 <0>         0.1381
     35 H15         3.5787    2.7752    4.6693 H         1 <0>         0.1460
     36 H16         5.6950    3.8111    3.9463 H         1 <0>         0.1485
     37 H17         6.1019    4.2752    1.5703 H         1 <0>         0.1483
     38 H18         4.3991    3.7100   -0.1195 H         1 <0>         0.1455
     39 H19        -2.0489   -2.8724    0.8974 H         1 <0>         0.4464
@<TRIPOS>BOND
     1    1    2 1
     2    1   21 1
     3    1   22 1
     4    1   23 1
     5    2    3 1
     6    2   24 1
     7    2   25 1
     8    3    4 1
     9    3    6 1
    10    3   39 1
    11    4    5 1
    12    4   26 1
    13    4   27 1
    14    5   28 1
    15    5   29 1
    16    5   30 1
    17    6    7 1
    18    6   31 1
    19    6   32 1
    20    7    8 3
    21    8    9 1
    22    9   10 1
    23    9   33 1
    24    9   34 1
    25   10   19 am
    26   10   11 am
    27   11   12 2
    28   11   13 1
    29   13   18 ar
    30   13   14 ar
    31   14   15 ar
    32   14   35 1
    33   15   16 ar
    34   15   36 1
    35   16   17 ar
    36   16   37 1
    37   17   18 ar
    38   17   38 1
    39   18   19 1
    40   19   20 2
@<TRIPOS>MOLECULE
ZINC28090831
   38    39     0     0     0
SMALL
USER_CHARGES
2-(4-diethylaminobut-2-ynyl)isoindoline-1,3-dione
@<TRIPOS>ATOM
      1 C1         -0.8850   -3.0287   -2.2942 C.3       1 <0>        -0.1966
      2 C2         -1.8385   -2.6295   -1.1662 C.3       1 <0>         0.0438
      3 N1         -1.3465   -3.1741    0.1064 N.3       1 <0>        -0.5327
      4 C3         -1.3095   -4.6422    0.0715 C.3       1 <0>         0.0424
      5 C4         -2.7377   -5.1895    0.1114 C.3       1 <0>        -0.1492
      6 C5         -0.0268   -2.6220    0.4402 C.3       1 <0>         0.1551
      7 C6         -0.1506   -1.1787    0.7015 C.1       1 <0>        -0.1239
      8 C7         -0.2493   -0.0275    0.9099 C.1       1 <0>        -0.2099
      9 C8         -0.3730    1.4158    1.1711 C.3       1 <0>         0.2305
     10 N2          0.9431    1.9664    1.5041 N.am      1 <0>        -0.5761
     11 C9          1.4409    2.0478    2.7512 C.2       1 <0>         0.5759
     12 O1          0.8794    1.6815    3.7638 O.2       1 <0>        -0.4557
     13 C10         2.7869    2.6547    2.6824 C.ar      1 <0>        -0.1403
     14 C11         3.7525    2.9768    3.6226 C.ar      1 <0>        -0.0435
     15 C12         4.9421    3.5593    3.2141 C.ar      1 <0>        -0.0940
     16 C13         5.1712    3.8207    1.8762 C.ar      1 <0>        -0.0942
     17 C14         4.2145    3.5039    0.9245 C.ar      1 <0>        -0.0437
     18 C15         3.0205    2.9212    1.3182 C.ar      1 <0>        -0.1407
     19 C16         1.8106    2.4626    0.6035 C.2       1 <0>         0.5760
     20 O2          1.6299    2.5235   -0.5959 O.2       1 <0>        -0.4566
     21 H1         -1.2533   -2.6210   -3.2471 H         1 <0>         0.0655
     22 H2         -0.8338   -4.1255   -2.3600 H         1 <0>         0.0612
     23 H3          0.1176   -2.6266   -2.0864 H         1 <0>         0.0563
     24 H4         -1.8897   -1.5327   -1.1004 H         1 <0>         0.0768
     25 H5         -2.8411   -3.0316   -1.3740 H         1 <0>         0.0821
     26 H6         -0.8152   -4.9746   -0.8532 H         1 <0>         0.0447
     27 H7         -0.7493   -5.0157    0.9414 H         1 <0>         0.0763
     28 H8         -2.7099   -6.2888    0.0853 H         1 <0>         0.0610
     29 H9         -3.2979   -4.8161   -0.7585 H         1 <0>         0.0553
     30 H10        -3.2320   -4.8571    1.0361 H         1 <0>         0.0641
     31 H11         0.3648   -3.1247    1.3368 H         1 <0>         0.1015
     32 H12         0.6623   -2.7845   -0.4017 H         1 <0>         0.0671
     33 H13        -0.7645    1.9184    0.2744 H         1 <0>         0.1226
     34 H14        -1.0621    1.5784    2.0129 H         1 <0>         0.1230
     35 H15         3.5787    2.7752    4.6693 H         1 <0>         0.1438
     36 H16         5.6950    3.8111    3.9463 H         1 <0>         0.1444
     37 H17         6.1019    4.2752    1.5703 H         1 <0>         0.1443
     38 H18         4.3991    3.7100   -0.1195 H         1 <0>         0.1435
@<TRIPOS>BOND
     1    1    2 1
     2    1   21 1
     3    1   22 1
     4    1   23 1
     5    2    3 1
     6    2   24 1
     7    2   25 1
     8    3    4 1
     9    3    6 1
    10    4    5 1
    11    4   26 1
    12    4   27 1
    13    5   28 1
    14    5   29 1
    15    5   30 1
    16    6    7 1
    17    6   31 1
    18    6   32 1
    19    7    8 3
    20    8    9 1
    21    9   10 1
    22    9   33 1
    23    9   34 1
    24   10   19 am
    25   10   11 am
    26   11   12 2
    27   11   13 1
    28   13   18 ar
    29   13   14 ar
    30   14   15 ar
    31   14   35 1
    32   15   16 ar
    33   15   36 1
    34   16   17 ar
    35   16   37 1
    36   17   18 ar
    37   17   38 1
    38   18   19 1
    39   19   20 2
@<TRIPOS>MOLECULE
ZINC00057479
   49    52     0     0     0
SMALL
USER_CHARGES
quinuclidin-3-yl 2-hydroxy-2,2-diphenyl-acetate
@<TRIPOS>ATOM
      1 C1          0.1683   -0.8233   -3.3647 C.ar      1 <0>        -0.1003
      2 C2         -0.5192   -0.9452   -2.1717 C.ar      1 <0>        -0.1206
      3 C3         -0.1575   -0.1733   -1.0835 C.ar      1 <0>        -0.0993
      4 C4          0.8920    0.7203   -1.1882 C.ar      1 <0>        -0.1324
      5 C5          1.5761    0.8460   -2.3828 C.ar      1 <0>        -0.0766
      6 C6          1.2172    0.0709   -3.4697 C.ar      1 <0>        -0.1211
      7 C7          1.2864    1.5618   -0.0018 C.3       1 <0>         0.2537
      8 C8          1.0779    3.0183   -0.3276 C.ar      1 <0>        -0.0915
      9 C9          1.9720    3.6773   -1.1505 C.ar      1 <0>        -0.1148
     10 C10         1.7784    5.0122   -1.4529 C.ar      1 <0>        -0.1150
     11 C11         0.6958    5.6905   -0.9250 C.ar      1 <0>        -0.1030
     12 C12        -0.1954    5.0328   -0.0978 C.ar      1 <0>        -0.1175
     13 C13        -0.0042    3.6968    0.2010 C.ar      1 <0>        -0.0769
     14 C14         2.7383    1.3225    0.3233 C.2       1 <0>         0.4475
     15 O1          3.4953    0.9410   -0.5376 O.2       1 <0>        -0.4746
     16 O2          3.1905    1.5333    1.5694 O.3       1 <0>        -0.3268
     17 C15         4.6003    1.2824    1.8103 C.3       1 <0>         0.0725
     18 H1          5.1660    1.4714    0.8980 H         1 <0>         0.1212
     19 C16         4.7957   -0.1736    2.2430 C.3       1 <0>        -0.0183
     20 C17         6.7236    0.4252    3.5821 C.3       1 <0>        -0.0050
     21 C18         6.5842    1.9003    3.1846 C.3       1 <0>        -0.1343
     22 C19         5.1031    2.2054    2.9275 C.3       1 <0>        -0.0961
     23 C20         4.3106    1.8963    4.2073 C.3       1 <0>        -0.1364
     24 C21         4.5144    0.4236    4.5738 C.3       1 <0>        -0.0018
     25 O3          0.4812    1.2054    1.1237 O.3       1 <0>        -0.5215
     26 H2         -0.1138   -1.4269   -4.2147 H         1 <0>         0.1288
     27 H3         -1.3387   -1.6439   -2.0896 H         1 <0>         0.1300
     28 H4         -0.6946   -0.2686   -0.1514 H         1 <0>         0.1308
     29 H5          2.3932    1.5473   -2.4659 H         1 <0>         0.1272
     30 H6          1.7546    0.1660   -4.4017 H         1 <0>         0.1287
     31 H7          2.8200    3.1484   -1.5599 H         1 <0>         0.1216
     32 H8          2.4745    5.5259   -2.0994 H         1 <0>         0.1296
     33 H9          0.5460    6.7341   -1.1590 H         1 <0>         0.1298
     34 H10        -1.0413    5.5627    0.3146 H         1 <0>         0.1313
     35 H11        -0.7005    3.1830    0.8472 H         1 <0>         0.1367
     36 H12         3.8303   -0.6791    2.2650 H         1 <0>         0.1352
     37 H13         5.4542   -0.6778    1.5357 H         1 <0>         0.1413
     38 H14         7.1600    0.3561    4.5785 H         1 <0>         0.1344
     39 H15         7.3687   -0.0837    2.8660 H         1 <0>         0.1308
     40 H16         7.1588    2.0893    2.2779 H         1 <0>         0.1040
     41 H17         6.9534    2.5353    3.9899 H         1 <0>         0.1126
     42 H18         4.9674    3.2484    2.6414 H         1 <0>         0.1260
     43 H19         3.2513    2.0866    4.0350 H         1 <0>         0.1099
     44 H20         4.6675    2.5279    5.0208 H         1 <0>         0.1048
     45 H21         3.5511   -0.0864    4.5797 H         1 <0>         0.1294
     46 H22         4.9688    0.3540    5.5622 H         1 <0>         0.1320
     47 H23         0.5651    0.2796    1.3900 H         1 <0>         0.3858
     48 N1          5.4008   -0.2351    3.5909 N.4       1 <0>        -0.3881
     49 H24         5.5211   -1.2193    3.8576 H         1 <0>         0.4368
@<TRIPOS>BOND
     1    1    6 ar
     2    1    2 ar
     3    1   26 1
     4    2    3 ar
     5    2   27 1
     6    3    4 ar
     7    3   28 1
     8    4    5 ar
     9    4    7 1
    10    5    6 ar
    11    5   29 1
    12    6   30 1
    13    7    8 1
    14    7   14 1
    15    7   25 1
    16    8   13 ar
    17    8    9 ar
    18    9   10 ar
    19    9   31 1
    20   10   11 ar
    21   10   32 1
    22   11   12 ar
    23   11   33 1
    24   12   13 ar
    25   12   34 1
    26   13   35 1
    27   14   15 2
    28   14   16 1
    29   16   17 1
    30   17   18 1
    31   17   22 1
    32   17   19 1
    33   19   36 1
    34   19   37 1
    35   19   48 1
    36   20   21 1
    37   20   38 1
    38   20   39 1
    39   20   48 1
    40   21   22 1
    41   21   40 1
    42   21   41 1
    43   22   23 1
    44   22   42 1
    45   23   24 1
    46   23   43 1
    47   23   44 1
    48   24   45 1
    49   24   46 1
    50   24   48 1
    51   25   47 1
    52   48   49 1
@<TRIPOS>MOLECULE
ZINC00534283
   47    51     0     0     0
SMALL
USER_CHARGES

@<TRIPOS>ATOM
      1 C1         -0.0167    1.3773    0.0096 C.ar      1 <0>        -0.1352
      2 C2          1.1710    2.0858    0.0021 C.ar      1 <0>        -0.0708
      3 C3          2.3757    1.4127   -0.0135 C.ar      1 <0>        -0.1321
      4 C4          2.3983    0.0222   -0.0208 C.ar      1 <0>         0.1292
      5 C5          1.2072   -0.6846   -0.0124 C.ar      1 <0>        -0.1524
      6 C6          0.0021   -0.0041    0.0020 C.ar      1 <0>        -0.0643
      7 C7          1.2044   -2.1890   -0.0170 C.3       1 <0>         0.0245
      8 C8          2.5426   -2.7202   -0.4529 C.ar      1 <0>        -0.1664
      9 C9          2.6467   -4.0361   -0.8694 C.ar      1 <0>        -0.0674
     10 C10         3.8668   -4.5433   -1.2724 C.ar      1 <0>        -0.1443
     11 C11         4.9900   -3.7367   -1.2609 C.ar      1 <0>        -0.0718
     12 C12         4.8920   -2.4237   -0.8471 C.ar      1 <0>        -0.1348
     13 C13         3.6655   -1.9096   -0.4406 C.ar      1 <0>         0.1337
     14 O1          3.5912   -0.6193   -0.0349 O.3       1 <0>        -0.2413
     15 C14         0.8998   -2.6893    1.3715 C.2       1 <0>         0.4704
     16 O2          0.7059   -1.9029    2.2681 O.2       1 <0>        -0.4748
     17 O3          0.8438   -4.0086    1.6123 O.3       1 <0>        -0.3333
     18 C15         0.5502   -4.4119    2.9514 C.3       1 <0>         0.0747
     19 H1         -0.0780   -3.6604    3.4297 H         1 <0>         0.1193
     20 C16         1.8538   -4.5665    3.7379 C.3       1 <0>        -0.0267
     21 N1          1.9882   -5.9431    4.2203 N.4       1 <0>        -0.3724
     22 C17         2.0403   -6.8807    3.0960 C.3       1 <0>        -0.0087
     23 C18         0.7429   -6.8028    2.2881 C.3       1 <0>        -0.1364
     24 C19        -0.1833   -5.7594    2.9335 C.3       1 <0>        -0.0957
     25 C20        -0.4515   -6.1836    4.3835 C.3       1 <0>        -0.1351
     26 C21         0.8869   -6.2825    5.1245 C.3       1 <0>        -0.0108
     27 H2         -0.9593    1.9042    0.0259 H         1 <0>         0.1351
     28 H3          1.1557    3.1657    0.0081 H         1 <0>         0.1408
     29 H4          3.3027    1.9668   -0.0205 H         1 <0>         0.1408
     30 H5         -0.9269   -0.5549    0.0079 H         1 <0>         0.1280
     31 H6          0.4357   -2.5448   -0.7030 H         1 <0>         0.1338
     32 H7          1.7712   -4.6684   -0.8790 H         1 <0>         0.1337
     33 H8          3.9436   -5.5707   -1.5963 H         1 <0>         0.1333
     34 H9          5.9436   -4.1341   -1.5754 H         1 <0>         0.1395
     35 H10         5.7697   -1.7944   -0.8387 H         1 <0>         0.1412
     36 H11         2.6973   -4.3261    3.0908 H         1 <0>         0.1370
     37 H12         1.8464   -3.8845    4.5881 H         1 <0>         0.1418
     38 H13         2.8828   -6.6273    2.4525 H         1 <0>         0.1309
     39 H14         2.1695   -7.8941    3.4759 H         1 <0>         0.1337
     40 H15         0.9679   -6.5066    1.2635 H         1 <0>         0.1079
     41 H16         0.2526   -7.7763    2.2897 H         1 <0>         0.1046
     42 H17        -1.1132   -5.6758    2.3710 H         1 <0>         0.1271
     43 H18        -1.0837   -5.4411    4.8703 H         1 <0>         0.1041
     44 H19        -0.9491   -7.1534    4.3943 H         1 <0>         0.1120
     45 H20         1.0224   -7.2991    5.4938 H         1 <0>         0.1359
     46 H21         0.8844   -5.5908    5.9670 H         1 <0>         0.1324
     47 H22         2.8553   -6.0194    4.7305 H         1 <0>         0.4296
@<TRIPOS>BOND
     1    1    6 ar
     2    1    2 ar
     3    1   27 1
     4    2    3 ar
     5    2   28 1
     6    3    4 ar
     7    3   29 1
     8    4   14 1
     9    4    5 ar
    10    5    6 ar
    11    5    7 1
    12    6   30 1
    13    7    8 1
    14    7   15 1
    15    7   31 1
    16    8   13 ar
    17    8    9 ar
    18    9   10 ar
    19    9   32 1
    20   10   11 ar
    21   10   33 1
    22   11   12 ar
    23   11   34 1
    24   12   13 ar
    25   12   35 1
    26   13   14 1
    27   15   16 2
    28   15   17 1
    29   17   18 1
    30   18   19 1
    31   18   24 1
    32   18   20 1
    33   20   21 1
    34   20   36 1
    35   20   37 1
    36   21   26 1
    37   21   22 1
    38   21   47 1
    39   22   23 1
    40   22   38 1
    41   22   39 1
    42   23   24 1
    43   23   40 1
    44   23   41 1
    45   24   25 1
    46   24   42 1
    47   25   26 1
    48   25   43 1
    49   25   44 1
    50   26   45 1
    51   26   46 1
@<TRIPOS>MOLECULE
ZINC13674440
   55    59     0     0     0
SMALL
USER_CHARGES
[(3R)-quinuclidin-3-yl] (1S,4R)-4-hydroxy-1-phenyl-3,4-dihydro-1H-isoquinoline-2-carboxylate
@<TRIPOS>ATOM
      1 C1          1.0999    5.7537    4.5798 C.ar      1 <0>        -0.1059
      2 C2          0.3558    4.9302    3.7558 C.ar      1 <0>        -0.1187
      3 C3          0.9861    4.1627    2.7942 C.ar      1 <0>        -0.1019
      4 C4          2.3605    4.2184    2.6570 C.ar      1 <0>        -0.1091
      5 C5          3.1051    5.0377    3.4848 C.ar      1 <0>        -0.0977
      6 C6          2.4743    5.8091    4.4429 C.ar      1 <0>        -0.1180
      7 C7          3.0477    3.3814    1.6091 C.3       1 <0>         0.2440
      8 H1          4.1278    3.4851    1.7128 H         1 <0>         0.1211
      9 C8          2.6634    1.9344    1.7911 C.ar      1 <0>        -0.0814
     10 C9          3.1723    1.2633    2.8948 C.ar      1 <0>        -0.1007
     11 C10         2.8495   -0.0588    3.1208 C.ar      1 <0>        -0.1064
     12 C11         2.0121   -0.7198    2.2412 C.ar      1 <0>        -0.1070
     13 C12         1.5094   -0.0554    1.1423 C.ar      1 <0>        -0.1139
     14 C13         1.8362    1.2753    0.9099 C.ar      1 <0>        -0.1146
     15 C14         1.2583    1.9321   -0.3160 C.3       1 <0>         0.1378
     16 H2          1.8381    1.6328   -1.1892 H         1 <0>         0.0684
     17 C15         1.2948    3.4540   -0.1862 C.3       1 <0>         0.1079
     18 N1          2.6394    3.8366    0.2757 N.am      1 <0>        -0.5746
     19 C16         3.4621    4.5749   -0.4955 C.2       1 <0>         0.6574
     20 O1          4.5669    4.8767   -0.0897 O.2       1 <0>        -0.5560
     21 O2          3.0596    4.9779   -1.7154 O.3       1 <0>        -0.3529
     22 C17         3.9976    5.7699   -2.4907 C.3       1 <0>         0.0990
     23 H3          4.6289    6.3504   -1.8180 H         1 <0>         0.1257
     24 C18         4.8707    4.8434   -3.3420 C.3       1 <0>        -0.0201
     25 C19         5.1029    6.5428   -5.0527 C.3       1 <0>        -0.0048
     26 C20         4.2372    7.5178   -4.2497 C.3       1 <0>        -0.1337
     27 C21         3.2266    6.7155   -3.4203 C.3       1 <0>        -0.0982
     28 C22         2.3701    5.8730   -4.3740 C.3       1 <0>        -0.1357
     29 C23         3.2882    4.9440   -5.1734 C.3       1 <0>        -0.0020
     30 O3         -0.0958    1.5070   -0.4828 O.3       1 <0>        -0.5530
     31 H4          0.6074    6.3536    5.3308 H         1 <0>         0.1268
     32 H5         -0.7180    4.8866    3.8630 H         1 <0>         0.1264
     33 H6          0.4048    3.5192    2.1504 H         1 <0>         0.1247
     34 H7          4.1793    5.0779    3.3805 H         1 <0>         0.1252
     35 H8          3.0556    6.4523    5.0869 H         1 <0>         0.1275
     36 H9          3.8261    1.7802    3.5817 H         1 <0>         0.1282
     37 H10         3.2488   -0.5751    3.9811 H         1 <0>         0.1315
     38 H11         1.7527   -1.7538    2.4142 H         1 <0>         0.1301
     39 H12         0.8557   -0.5736    0.4564 H         1 <0>         0.1232
     40 H13         1.0934    3.9117   -1.1548 H         1 <0>         0.1046
     41 H14         0.5484    3.7804    0.5381 H         1 <0>         0.1007
     42 H15         5.9180    4.9828   -3.0738 H         1 <0>         0.1432
     43 H16         4.5842    3.8072   -3.1622 H         1 <0>         0.1357
     44 H17         6.1487    6.6698   -4.7729 H         1 <0>         0.1316
     45 H18         4.9840    6.7431   -6.1175 H         1 <0>         0.1337
     46 H19         3.7052    8.1808   -4.9319 H         1 <0>         0.1124
     47 H20         4.8700    8.1059   -3.5851 H         1 <0>         0.1056
     48 H21         2.5918    7.3810   -2.8353 H         1 <0>         0.1265
     49 H22         1.8307    6.5294   -5.0568 H         1 <0>         0.1052
     50 H23         1.6603    5.2785   -3.7988 H         1 <0>         0.1069
     51 H24         3.1843    5.1573   -6.2372 H         1 <0>         0.1317
     52 H25         3.0128    3.9070   -4.9817 H         1 <0>         0.1282
     53 H26        -0.1993    0.5497   -0.5723 H         1 <0>         0.3874
     54 N2          4.6983    5.1474   -4.7789 N.4       1 <0>        -0.3887
     55 H27         5.2925    4.5143   -5.3270 H         1 <0>         0.4367
@<TRIPOS>BOND
     1    1    6 ar
     2    1    2 ar
     3    1   31 1
     4    2    3 ar
     5    2   32 1
     6    3    4 ar
     7    3   33 1
     8    4    5 ar
     9    4    7 1
    10    5    6 ar
    11    5   34 1
    12    6   35 1
    13    7    8 1
    14    7   18 1
    15    7    9 1
    16    9   14 ar
    17    9   10 ar
    18   10   11 ar
    19   10   36 1
    20   11   12 ar
    21   11   37 1
    22   12   13 ar
    23   12   38 1
    24   13   14 ar
    25   13   39 1
    26   14   15 1
    27   15   16 1
    28   15   17 1
    29   15   30 1
    30   17   18 1
    31   17   40 1
    32   17   41 1
    33   18   19 am
    34   19   20 2
    35   19   21 1
    36   21   22 1
    37   22   23 1
    38   22   27 1
    39   22   24 1
    40   24   42 1
    41   24   43 1
    42   24   54 1
    43   25   26 1
    44   25   44 1
    45   25   45 1
    46   25   54 1
    47   26   27 1
    48   26   46 1
    49   26   47 1
    50   27   28 1
    51   27   48 1
    52   28   29 1
    53   28   49 1
    54   28   50 1
    55   29   51 1
    56   29   52 1
    57   29   54 1
    58   30   53 1
    59   54   55 1
@<TRIPOS>MOLECULE
ZINC00492792
   28    29     0     0     0
SMALL
USER_CHARGES

@<TRIPOS>ATOM
      1 C1         -0.0184    1.5028    0.0103 C.3       1 <0>        -0.1507
      2 C2          0.0021   -0.0041    0.0020 C.2       1 <0>         0.4617
      3 O1          1.0565   -0.5939   -0.0112 O.2       1 <0>        -0.4976
      4 O2         -1.1511   -0.6910    0.0093 O.3       1 <0>        -0.3413
      5 C3         -1.0570   -2.1168    0.0008 C.3       1 <0>         0.0740
      6 H1         -0.1406   -2.4254    0.5039 H         1 <0>         0.1192
      7 C4         -1.0436   -2.6212   -1.4440 C.3       1 <0>        -0.0258
      8 N1         -2.1853   -3.5092   -1.6758 N.4       1 <0>        -0.3730
      9 C5         -2.1124   -4.6819   -0.8010 C.3       1 <0>        -0.0109
     10 C6         -2.1611   -4.2459    0.6651 C.3       1 <0>        -0.1372
     11 C7         -2.2688   -2.7165    0.7262 C.3       1 <0>        -0.0970
     12 C8         -3.5392   -2.2936   -0.0230 C.3       1 <0>        -0.1352
     13 C9         -3.4462   -2.7917   -1.4728 C.3       1 <0>        -0.0082
     14 H2          1.0042    1.8801    0.0026 H         1 <0>         0.1107
     15 H3         -0.5455    1.8639   -0.8728 H         1 <0>         0.1059
     16 H4         -0.5286    1.8543    0.9071 H         1 <0>         0.1083
     17 H5         -1.1023   -1.7716   -2.1242 H         1 <0>         0.1374
     18 H6         -0.1180   -3.1666   -1.6281 H         1 <0>         0.1421
     19 H7         -2.9541   -5.3420   -1.0102 H         1 <0>         0.1357
     20 H8         -1.1808   -5.2158   -0.9888 H         1 <0>         0.1328
     21 H9         -3.0288   -4.6929    1.1504 H         1 <0>         0.1116
     22 H10        -1.2510   -4.5667    1.1720 H         1 <0>         0.1041
     23 H11        -2.2938   -2.3788    1.7623 H         1 <0>         0.1265
     24 H12        -4.4119   -2.7319    0.4612 H         1 <0>         0.1047
     25 H13        -3.6227   -1.2068   -0.0162 H         1 <0>         0.1079
     26 H14        -3.4916   -1.9409   -2.1526 H         1 <0>         0.1310
     27 H15        -4.2808   -3.4619   -1.6787 H         1 <0>         0.1334
     28 H16        -2.1511   -3.8304   -2.6317 H         1 <0>         0.4298
@<TRIPOS>BOND
     1    1    2 1
     2    1   14 1
     3    1   15 1
     4    1   16 1
     5    2    3 2
     6    2    4 1
     7    4    5 1
     8    5    6 1
     9    5   11 1
    10    5    7 1
    11    7    8 1
    12    7   17 1
    13    7   18 1
    14    8   13 1
    15    8    9 1
    16    8   28 1
    17    9   10 1
    18    9   19 1
    19    9   20 1
    20   10   11 1
    21   10   21 1
    22   10   22 1
    23   11   12 1
    24   11   23 1
    25   12   13 1
    26   12   24 1
    27   12   25 1
    28   13   26 1
    29   13   27 1
@<TRIPOS>MOLECULE
ZINC01089661
   28    29     0     0     0
SMALL
USER_CHARGES

@<TRIPOS>ATOM
      1 C1         -0.0184    1.5028    0.0103 C.3       1 <0>        -0.1507
      2 C2          0.0021   -0.0041    0.0020 C.2       1 <0>         0.4617
      3 O1          1.0565   -0.5939   -0.0112 O.2       1 <0>        -0.4975
      4 O2         -1.1511   -0.6910    0.0093 O.3       1 <0>        -0.3414
      5 C3         -1.0570   -2.1168    0.0008 C.3       1 <0>         0.0738
      6 H1         -0.1504   -2.4199   -0.5230 H         1 <0>         0.1192
      7 C4         -1.0161   -2.6367    1.4395 C.3       1 <0>        -0.0258
      8 N1         -2.1528   -3.5279    1.6833 N.4       1 <0>        -0.3729
      9 C5         -3.4175   -2.8089    1.5124 C.3       1 <0>        -0.0083
     10 C6         -3.5382   -2.2946    0.0762 C.3       1 <0>        -0.1370
     11 C7         -2.2824   -2.7088   -0.7078 C.3       1 <0>        -0.0970
     12 C8         -2.1720   -4.2387   -0.6685 C.3       1 <0>        -0.1356
     13 C9         -2.0963   -4.6908    0.7944 C.3       1 <0>        -0.0107
     14 H2          1.0042    1.8801    0.0026 H         1 <0>         0.1107
     15 H3         -0.5455    1.8639   -0.8728 H         1 <0>         0.1083
     16 H4         -0.5286    1.8543    0.9071 H         1 <0>         0.1059
     17 H5         -0.0869   -3.1835    1.6002 H         1 <0>         0.1422
     18 H6         -1.0623   -1.7945    2.1299 H         1 <0>         0.1374
     19 H7         -4.2479   -3.4818    1.7266 H         1 <0>         0.1335
     20 H8         -3.4503   -1.9657    2.2025 H         1 <0>         0.1310
     21 H9         -4.4210   -2.7278   -0.3940 H         1 <0>         0.1044
     22 H10        -3.6217   -1.2078    0.0831 H         1 <0>         0.1080
     23 H11        -2.3372   -2.3458   -1.7341 H         1 <0>         0.1267
     24 H12        -3.0477   -4.6805   -1.1439 H         1 <0>         0.1117
     25 H13        -1.2706   -4.5534   -1.1944 H         1 <0>         0.1042
     26 H14        -1.1610   -5.2261    0.9583 H         1 <0>         0.1327
     27 H15        -2.9335   -5.3538    1.0125 H         1 <0>         0.1357
     28 H16        -2.1050   -3.8527    2.6374 H         1 <0>         0.4299
@<TRIPOS>BOND
     1    1    2 1
     2    1   14 1
     3    1   15 1
     4    1   16 1
     5    2    3 2
     6    2    4 1
     7    4    5 1
     8    5    6 1
     9    5   11 1
    10    5    7 1
    11    7    8 1
    12    7   17 1
    13    7   18 1
    14    8   13 1
    15    8    9 1
    16    8   28 1
    17    9   10 1
    18    9   19 1
    19    9   20 1
    20   10   11 1
    21   10   21 1
    22   10   22 1
    23   11   12 1
    24   11   23 1
    25   12   13 1
    26   12   24 1
    27   12   25 1
    28   13   26 1
    29   13   27 1
@<TRIPOS>MOLECULE
ZINC01532358
   43    44     0     0     0
SMALL
USER_CHARGES
3-(4-hexoxy-1,2,5-thiadiazol-3-yl)-1-methyl-5,6-dihydro-2H-pyridine
@<TRIPOS>ATOM
      1 C1          1.0740    2.6512    2.3197 C.3       1 <0>        -0.1554
      2 C2          0.1951    2.9518    1.1039 C.3       1 <0>        -0.1278
      3 C3          0.7800    2.2634   -0.1309 C.3       1 <0>        -0.1171
      4 C4         -0.0989    2.5640   -1.3467 C.3       1 <0>        -0.1207
      5 C5          0.4860    1.8755   -2.5815 C.3       1 <0>        -0.1161
      6 C6         -0.3928    2.1761   -3.7973 C.3       1 <0>         0.0610
      7 O1          0.1535    1.5331   -4.9507 O.3       1 <0>        -0.2935
      8 C7         -0.5121    1.7004   -6.1236 C.2       1 <0>         0.2720
      9 C8         -0.0861    1.1341   -7.3225 C.2       1 <0>         0.0553
     10 N1         -0.8263    1.3704   -8.3866 N.2       1 <0>        -0.4586
     11 S1         -2.0045    2.2848   -7.8798 S.3       1 <0>         0.5746
     12 N2         -1.6125    2.4167   -6.2258 N.2       1 <0>        -0.5044
     13 C9          1.1340    0.3040   -7.3965 C.2       1 <0>        -0.0891
     14 C10         1.5480   -0.0981   -8.5783 C.2       1 <0>        -0.0908
     15 C11         2.7753   -0.9465   -8.7629 C.3       1 <0>        -0.1216
     16 C12         3.6271   -0.9079   -7.4915 C.3       1 <0>        -0.0055
     17 C13         1.8402   -0.0463   -6.1184 C.3       1 <0>         0.0501
     18 C14         3.5479   -1.4488   -5.1301 C.3       1 <0>        -0.0400
     19 H1          2.0826    3.0233    2.1398 H         1 <0>         0.0541
     20 H2          0.6573    3.1417    3.1994 H         1 <0>         0.0574
     21 H3          1.1082    1.5746    2.4860 H         1 <0>         0.0539
     22 H4          0.1609    4.0285    0.9376 H         1 <0>         0.0631
     23 H5         -0.8135    2.5797    1.2838 H         1 <0>         0.0630
     24 H6          0.8142    1.1867    0.0354 H         1 <0>         0.0628
     25 H7          1.7886    2.6355   -0.3108 H         1 <0>         0.0632
     26 H8         -1.1075    2.1919   -1.1668 H         1 <0>         0.0694
     27 H9         -0.1331    3.6407   -1.5130 H         1 <0>         0.0697
     28 H10         1.4947    2.2476   -2.7614 H         1 <0>         0.0748
     29 H11         0.5203    0.7988   -2.4152 H         1 <0>         0.0733
     30 H12        -1.4014    1.8040   -3.6174 H         1 <0>         0.0767
     31 H13        -0.4270    3.2528   -3.9636 H         1 <0>         0.0770
     32 H14         0.9858    0.1967   -9.4520 H         1 <0>         0.1508
     33 H15         3.3586   -0.5672   -9.6019 H         1 <0>         0.1303
     34 H16         2.4741   -1.9741   -8.9666 H         1 <0>         0.1120
     35 H17         4.0838    0.0762   -7.3865 H         1 <0>         0.1344
     36 H18         4.4035   -1.6708   -7.5478 H         1 <0>         0.1386
     37 H19         2.4078    0.8170   -5.7712 H         1 <0>         0.1459
     38 H20         1.1040   -0.3192   -5.3623 H         1 <0>         0.1468
     39 H21         2.8803   -1.6945   -4.3043 H         1 <0>         0.1241
     40 H22         4.2168   -2.2885   -5.3187 H         1 <0>         0.1259
     41 H23         4.1350   -0.5673   -4.8728 H         1 <0>         0.1244
     42 N3          2.7409   -1.1920   -6.3446 N.4       1 <0>        -0.3957
     43 H24         2.1782   -2.0249   -6.5541 H         1 <0>         0.4318
@<TRIPOS>BOND
     1    1    2 1
     2    1   19 1
     3    1   20 1
     4    1   21 1
     5    2    3 1
     6    2   22 1
     7    2   23 1
     8    3    4 1
     9    3   24 1
    10    3   25 1
    11    4    5 1
    12    4   26 1
    13    4   27 1
    14    5    6 1
    15    5   28 1
    16    5   29 1
    17    6    7 1
    18    6   30 1
    19    6   31 1
    20    7    8 1
    21    8   12 2
    22    8    9 1
    23    9   10 2
    24    9   13 1
    25   10   11 1
    26   11   12 1
    27   13   17 1
    28   13   14 2
    29   14   15 1
    30   14   32 1
    31   15   16 1
    32   15   33 1
    33   15   34 1
    34   16   35 1
    35   16   36 1
    36   16   42 1
    37   17   37 1
    38   17   38 1
    39   17   42 1
    40   18   39 1
    41   18   40 1
    42   18   41 1
    43   18   42 1
    44   42   43 1
@<TRIPOS>MOLECULE
ZINC01547932
   33    33     0     0     0
SMALL
USER_CHARGES

@<TRIPOS>ATOM
      1 C1         -0.0178    1.4648    0.0101 C.3       1 <0>        -0.0459
      2 N1          0.0021   -0.0041    0.0020 N.4       1 <0>        -0.2730
      3 C2          0.7126   -0.4907    1.1921 C.3       1 <0>        -0.0460
      4 C3         -1.3761   -0.5125    0.0124 C.3       1 <0>        -0.0446
      5 C4          0.6897   -0.4778   -1.2066 C.3       1 <0>         0.1335
      6 C5          2.0706    0.0317   -1.2170 C.1       1 <0>        -0.2619
      7 C6          3.1720    0.4380   -1.2254 C.1       1 <0>        -0.0715
      8 C7          4.5530    0.9475   -1.2358 C.3       1 <0>         0.2174
      9 N2          5.2387    0.4751   -2.4411 N.am      1 <0>        -0.6239
     10 C8          5.9904   -0.7825   -2.5271 C.3       1 <0>         0.0986
     11 C9          6.1482   -1.0660   -4.0374 C.3       1 <0>        -0.1329
     12 C10         6.0500    0.3559   -4.6370 C.3       1 <0>        -0.1565
     13 C11         5.2554    1.1349   -3.6121 C.2       1 <0>         0.5206
     14 O1          4.7144    2.2010   -3.8165 O.2       1 <0>        -0.5253
     15 H1          1.0047    1.8421    0.0024 H         1 <0>         0.1193
     16 H2         -0.5450    1.8259   -0.8730 H         1 <0>         0.1219
     17 H3         -0.5280    1.8163    0.9069 H         1 <0>         0.1248
     18 H4          0.2024   -0.1392    2.0889 H         1 <0>         0.1245
     19 H5          0.7273   -1.5806    1.1861 H         1 <0>         0.1234
     20 H6          1.7352   -0.1134    1.1844 H         1 <0>         0.1187
     21 H7         -1.9033   -0.1515   -0.8706 H         1 <0>         0.1240
     22 H8         -1.3613   -1.6024    0.0064 H         1 <0>         0.1246
     23 H9         -1.8863   -0.1610    0.9092 H         1 <0>         0.1263
     24 H10         0.7044   -1.5677   -1.2126 H         1 <0>         0.1474
     25 H11         0.1625   -0.1167   -2.0897 H         1 <0>         0.1460
     26 H12         4.5382    2.0374   -1.2298 H         1 <0>         0.1219
     27 H13         5.0802    0.5865   -0.3528 H         1 <0>         0.1228
     28 H14         6.9689   -0.6697   -2.0602 H         1 <0>         0.0835
     29 H15         5.4339   -1.5881   -2.0482 H         1 <0>         0.0804
     30 H16         7.1191   -1.5132   -4.2510 H         1 <0>         0.0993
     31 H17         5.3398   -1.6998   -4.4019 H         1 <0>         0.0827
     32 H18         7.0434    0.7864   -4.7628 H         1 <0>         0.1133
     33 H19         5.5200    0.3326   -5.5892 H         1 <0>         0.1066
@<TRIPOS>BOND
     1    1    2 1
     2    1   15 1
     3    1   16 1
     4    1   17 1
     5    2    3 1
     6    2    4 1
     7    2    5 1
     8    3   18 1
     9    3   19 1
    10    3   20 1
    11    4   21 1
    12    4   22 1
    13    4   23 1
    14    5    6 1
    15    5   24 1
    16    5   25 1
    17    6    7 3
    18    7    8 1
    19    8    9 1
    20    8   26 1
    21    8   27 1
    22    9   13 am
    23    9   10 1
    24   10   11 1
    25   10   28 1
    26   10   29 1
    27   11   12 1
    28   11   30 1
    29   11   31 1
    30   12   13 1
    31   12   32 1
    32   12   33 1
    33   13   14 2
@<TRIPOS>MOLECULE
ZINC00346600
   34    35     0     0     0
SMALL
USER_CHARGES
3-ethyl-8-methyl-3,8-diazaspiro[4.5]decane-2,4-dione
@<TRIPOS>ATOM
      1 C1         -2.9345    1.2090    1.4642 C.3       1 <0>        -0.1699
      2 C2         -2.4697    1.4114    0.0206 C.3       1 <0>         0.0902
      3 N1         -1.1161    1.9717    0.0175 N.am      1 <0>        -0.5678
      4 C3         -0.8766    3.2898    0.0272 C.2       1 <0>         0.5209
      5 O1         -1.7230    4.1575    0.0394 O.2       1 <0>        -0.4521
      6 C4          0.6198    3.5235    0.0144 C.3       1 <0>        -0.1489
      7 C5          1.2012    2.1006    0.0019 C.3       1 <0>        -0.1122
      8 C6         -0.0144    1.2081    0.0087 C.2       1 <0>         0.5366
      9 O2          0.0021   -0.0041    0.0020 O.2       1 <0>        -0.4792
     10 C7          2.0273    1.8763   -1.2604 C.3       1 <0>        -0.1269
     11 C8          2.6234    0.4659   -1.2320 C.3       1 <0>        -0.0106
     12 C9          2.6459    0.4538    1.1928 C.3       1 <0>        -0.0104
     13 C10         2.0505    1.8638    1.2463 C.3       1 <0>        -0.1270
     14 C11         4.1585   -0.9783   -0.0409 C.3       1 <0>        -0.0414
     15 H1         -3.9416    0.7921    1.4665 H         1 <0>         0.0843
     16 H2         -2.2561    0.5230    1.9715 H         1 <0>         0.0602
     17 H3         -2.9369    2.1676    1.9829 H         1 <0>         0.0639
     18 H4         -3.1480    2.0973   -0.4868 H         1 <0>         0.1010
     19 H5         -2.4673    0.4528   -0.4981 H         1 <0>         0.0986
     20 H6          0.9328    4.0587    0.9108 H         1 <0>         0.1329
     21 H7          0.9161    4.0676   -0.8825 H         1 <0>         0.1333
     22 H8          1.3884    1.9836   -2.1371 H         1 <0>         0.1185
     23 H9          2.8318    2.6104   -1.3040 H         1 <0>         0.1118
     24 H10         3.2400    0.3141   -2.1179 H         1 <0>         0.1365
     25 H11         1.8183   -0.2688   -1.2193 H         1 <0>         0.1424
     26 H12         3.2787    0.2932    2.0656 H         1 <0>         0.1365
     27 H13         1.8405   -0.2807    1.1877 H         1 <0>         0.1424
     28 H14         2.8557    2.5975    1.2823 H         1 <0>         0.1118
     29 H15         1.4280    1.9623    2.1357 H         1 <0>         0.1183
     30 H16         3.4351   -1.7925    0.0007 H         1 <0>         0.1243
     31 H17         4.7456   -1.0602   -0.9556 H         1 <0>         0.1232
     32 H18         4.8211   -1.0365    0.8226 H         1 <0>         0.1231
     33 N2          3.4713    0.3294   -0.0281 N.4       1 <0>        -0.3918
     34 H19         4.1758    1.0763   -0.0310 H         1 <0>         0.4273
@<TRIPOS>BOND
     1    1    2 1
     2    1   15 1
     3    1   16 1
     4    1   17 1
     5    2    3 1
     6    2   18 1
     7    2   19 1
     8    3    8 am
     9    3    4 am
    10    4    5 2
    11    4    6 1
    12    6    7 1
    13    6   20 1
    14    6   21 1
    15    7   13 1
    16    7    8 1
    17    7   10 1
    18    8    9 2
    19   10   11 1
    20   10   22 1
    21   10   23 1
    22   11   24 1
    23   11   25 1
    24   11   33 1
    25   12   13 1
    26   12   26 1
    27   12   27 1
    28   12   33 1
    29   13   28 1
    30   13   29 1
    31   14   30 1
    32   14   31 1
    33   14   32 1
    34   14   33 1
    35   33   34 1
@<TRIPOS>MOLECULE
ZINC25967277
   25    26     0     0     0
SMALL
USER_CHARGES
3-methoxy-5-methyl-6,7-dihydro-4H-isoxazolo[4,5-c]pyridine
@<TRIPOS>ATOM
      1 C1         -3.7590    3.3725    5.4959 C.3       1 <0>        -0.0448
      2 N1         -3.9110    2.6584    4.2212 N.4       1 <0>        -0.4063
      3 C2         -4.7478    1.4616    4.3847 C.3       1 <0>        -0.0031
      4 C3         -5.2075    0.9542    3.0100 C.3       1 <0>        -0.0674
      5 C4         -3.9946    0.8737    2.1203 C.2       1 <0>         0.0030
      6 C5         -2.8244    1.4910    2.4158 C.2       1 <0>        -0.2686
      7 C6         -1.9730    1.1636    1.3480 C.2       1 <0>         0.2515
      8 N2         -2.6855    0.4156    0.5391 N.2       1 <0>        -0.3872
      9 O1         -3.8116    0.2445    0.9635 O.3       1 <0>         0.1395
     10 O2         -0.6816    1.5467    1.1837 O.3       1 <0>        -0.2802
     11 C7         -0.0127    1.0858    0.0080 C.3       1 <0>         0.0229
     12 C8         -2.5963    2.3235    3.6430 C.3       1 <0>         0.0983
     13 H1         -4.7526    3.6095    5.9041 H         1 <0>         0.1304
     14 H2         -3.1991    4.3046    5.3295 H         1 <0>         0.1289
     15 H3         -3.2115    2.7381    6.2085 H         1 <0>         0.1228
     16 H4         -4.1669    0.6739    4.8868 H         1 <0>         0.1358
     17 H5         -5.6296    1.7111    4.9931 H         1 <0>         0.1532
     18 H6         -5.6665   -0.0393    3.1206 H         1 <0>         0.1461
     19 H7         -5.9444    1.6537    2.5886 H         1 <0>         0.1297
     20 H8          1.0193    1.4666    0.0002 H         1 <0>         0.1195
     21 H9         -0.5447    1.4501   -0.8832 H         1 <0>         0.0688
     22 H10         0.0022   -0.0141    0.0020 H         1 <0>         0.0687
     23 H11        -2.0652    3.2499    3.3789 H         1 <0>         0.1480
     24 H12        -2.0050    1.7590    4.3791 H         1 <0>         0.1416
     25 H13        -4.4268    3.3278    3.5170 H         1 <0>         0.4489
@<TRIPOS>BOND
     1    1    2 1
     2    1   13 1
     3    1   14 1
     4    1   15 1
     5    2   12 1
     6    2    3 1
     7    2   25 1
     8    3    4 1
     9    3   16 1
    10    3   17 1
    11    4    5 1
    12    4   18 1
    13    4   19 1
    14    5    9 1
    15    5    6 2
    16    6    7 1
    17    6   12 1
    18    7    8 2
    19    7   10 1
    20    8    9 1
    21   10   11 1
    22   11   20 1
    23   11   21 1
    24   11   22 1
    25   12   23 1
    26   12   24 1
@<TRIPOS>MOLECULE
ZINC00056526
   36    37     0     0     0
SMALL
USER_CHARGES

@<TRIPOS>ATOM
      1 C1          2.5037    1.7126    3.2140 C.3       1 <0>        -0.1237
      2 C2          1.1585    2.2578    2.8086 C.ar      1 <0>        -0.0710
      3 C3          0.9379    3.6213    2.8044 C.ar      1 <0>        -0.1067
      4 C4         -0.2961    4.1223    2.4330 C.ar      1 <0>        -0.0798
      5 C5         -1.3133    3.2607    2.0647 C.ar      1 <0>        -0.1093
      6 C6         -1.0991    1.8965    2.0664 C.ar      1 <0>        -0.0914
      7 C7          0.1412    1.3902    2.4334 C.ar      1 <0>         0.0607
      8 N1          0.3631    0.0092    2.4310 N.pl3     1 <0>        -0.6353
      9 C8          0.4090   -0.6826    3.6204 C.cat     1 <0>         0.7405
     10 N2          0.7150   -1.9495    3.6259 N.pl3     1 <0>        -0.7671
     11 N3          0.1317   -0.0363    4.8039 N.pl3     1 <0>        -0.6291
     12 C9          0.1332   -0.7493    6.0072 C.ar      1 <0>         0.0596
     13 C10         1.1662   -0.5736    6.9191 C.ar      1 <0>        -0.0907
     14 C11         1.1645   -1.2787    8.1063 C.ar      1 <0>        -0.1071
     15 C12         0.1360   -2.1594    8.3878 C.ar      1 <0>        -0.0804
     16 C13        -0.8935   -2.3370    7.4821 C.ar      1 <0>        -0.1047
     17 C14        -0.9010   -1.6301    6.2954 C.ar      1 <0>        -0.0763
     18 C15        -2.0269   -1.8192    5.3117 C.3       1 <0>        -0.1303
     19 H1          3.1435    1.6334    2.3352 H         1 <0>         0.0869
     20 H2          2.9640    2.3834    3.9394 H         1 <0>         0.0836
     21 H3          2.3764    0.7265    3.6608 H         1 <0>         0.0530
     22 H4          1.7300    4.2968    3.0918 H         1 <0>         0.1408
     23 H5         -0.4662    5.1889    2.4309 H         1 <0>         0.1404
     24 H6         -2.2763    3.6551    1.7758 H         1 <0>         0.1415
     25 H7         -1.8940    1.2242    1.7789 H         1 <0>         0.1367
     26 H8          0.4847   -0.4610    1.5914 H         1 <0>         0.4415
     27 H9          0.6889   -2.4511    4.4558 H         1 <0>         0.4432
     28 H10        -0.0647    0.9136    4.8032 H         1 <0>         0.4406
     29 H11         1.9701    0.1134    6.6995 H         1 <0>         0.1367
     30 H12         1.9674   -1.1426    8.8157 H         1 <0>         0.1422
     31 H13         0.1371   -2.7100    9.3170 H         1 <0>         0.1410
     32 H14        -1.6949   -3.0260    7.7046 H         1 <0>         0.1415
     33 H15        -1.7760   -2.6259    4.6230 H         1 <0>         0.0747
     34 H16        -2.9407   -2.0717    5.8496 H         1 <0>         0.0884
     35 H17        -2.1784   -0.8967    4.7512 H         1 <0>         0.0670
     36 H18         0.9688   -2.3908    2.8003 H         1 <0>         0.4426
@<TRIPOS>BOND
     1    1    2 1
     2    1   19 1
     3    1   20 1
     4    1   21 1
     5    2    7 ar
     6    2    3 ar
     7    3    4 ar
     8    3   22 1
     9    4    5 ar
    10    4   23 1
    11    5    6 ar
    12    5   24 1
    13    6    7 ar
    14    6   25 1
    15    7    8 1
    16    8    9 1
    17    8   26 1
    18    9   10 2
    19    9   11 1
    20   10   27 1
    21   10   36 1
    22   11   12 1
    23   11   28 1
    24   12   17 ar
    25   12   13 ar
    26   13   14 ar
    27   13   29 1
    28   14   15 ar
    29   14   30 1
    30   15   16 ar
    31   15   31 1
    32   16   17 ar
    33   16   32 1
    34   17   18 1
    35   18   33 1
    36   18   34 1
    37   18   35 1
@<TRIPOS>MOLECULE
ZINC13489845
   33    35     0     0     0
SMALL
USER_CHARGES

@<TRIPOS>ATOM
      1 C1         -0.0428    1.3480    0.0142 C.ar      1 <0>        -0.1063
      2 C2          1.1416    2.0613    0.0194 C.ar      1 <0>        -0.1121
      3 C3          2.3455    1.3880    0.0007 C.ar      1 <0>        -0.1096
      4 C4          2.3766    0.0001   -0.0195 C.ar      1 <0>        -0.1117
      5 C5          1.1982   -0.7118   -0.0149 C.ar      1 <0>        -0.0759
      6 C6         -0.0132   -0.0307   -0.0038 C.ar      1 <0>        -0.1150
      7 C7          1.1531   -2.2170   -0.0053 C.3       1 <0>        -0.1003
      8 C8          2.4751   -2.8042   -0.4972 C.3       1 <0>         0.1024
      9 N1          3.5680   -2.1086    0.2022 N.pl3     1 <0>        -0.5714
     10 C9          3.7257   -0.6730   -0.0540 C.3       1 <0>         0.1495
     11 C10         4.4177   -2.7863    1.0719 C.ar      1 <0>         0.3450
     12 C11         4.1904   -4.1261    1.3957 C.ar      1 <0>        -0.2310
     13 C12         5.0520   -4.7648    2.2598 C.ar      1 <0>         0.1803
     14 N2          6.0847   -4.1285    2.7827 N.ar      1 <0>        -0.5401
     15 C13         6.3368   -2.8579    2.5030 C.ar      1 <0>         0.4801
     16 C14         5.5177   -2.1478    1.6357 C.ar      1 <0>        -0.2962
     17 N3          7.4361   -2.2314    3.0793 N.pl3     1 <0>        -0.8299
     18 H1         -0.9887    1.8690    0.0288 H         1 <0>         0.1298
     19 H2          1.1243    3.1410    0.0377 H         1 <0>         0.1305
     20 H3          3.2709    1.9447    0.0014 H         1 <0>         0.1268
     21 H4         -0.9395   -0.5860   -0.0091 H         1 <0>         0.1273
     22 H5          0.9629   -2.5635    1.0105 H         1 <0>         0.0858
     23 H6          0.3465   -2.5556   -0.6556 H         1 <0>         0.0995
     24 H7          2.5120   -3.8698   -0.2712 H         1 <0>         0.1016
     25 H8          2.5691   -2.6511   -1.5723 H         1 <0>         0.0966
     26 H9          4.1789   -0.5271   -1.0345 H         1 <0>         0.0979
     27 H10         4.3684   -0.2366    0.7106 H         1 <0>         0.1010
     28 H11         3.3486   -4.6548    0.9735 H         1 <0>         0.1752
     29 H12         4.8806   -5.8004    2.5137 H         1 <0>         0.2050
     30 H13         5.7286   -1.1138    1.4058 H         1 <0>         0.1700
     31 H14         8.0139   -2.7242    3.6828 H         1 <0>         0.4195
     32 H15         7.6251   -1.3016    2.8779 H         1 <0>         0.4367
     33 H16         6.6745   -4.6042    3.3883 H         1 <0>         0.4390
@<TRIPOS>BOND
     1    1    6 ar
     2    1    2 ar
     3    1   18 1
     4    2    3 ar
     5    2   19 1
     6    3    4 ar
     7    3   20 1
     8    4   10 1
     9    4    5 ar
    10    5    6 ar
    11    5    7 1
    12    6   21 1
    13    7    8 1
    14    7   22 1
    15    7   23 1
    16    8    9 1
    17    8   24 1
    18    8   25 1
    19    9   10 1
    20    9   11 1
    21   10   26 1
    22   10   27 1
    23   11   16 ar
    24   11   12 ar
    25   12   13 ar
    26   12   28 1
    27   13   14 ar
    28   13   29 1
    29   14   15 ar
    30   14   33 1
    31   15   16 ar
    32   15   17 1
    33   16   30 1
    34   17   31 1
    35   17   32 1
@<TRIPOS>MOLECULE
ZINC05821656
   37    38     0     0     0
SMALL
USER_CHARGES
3-(4-butylsulfanyl-1,2,5-thiadiazol-3-yl)-1-methyl-5,6-dihydro-2H-pyridine
@<TRIPOS>ATOM
      1 C1         -0.2128    2.3968   -3.6723 C.3       1 <0>        -0.1549
      2 C2          0.4230    1.7438   -2.4434 C.3       1 <0>        -0.1192
      3 C3         -0.3636    2.1384   -1.1918 C.3       1 <0>        -0.1058
      4 C4          0.2722    1.4854    0.0371 C.3       1 <0>        -0.1076
      5 S1         -0.6604    1.9533    1.5210 S.3       1 <0>        -0.0033
      6 C5          0.1847    1.1334    2.8318 C.2       1 <0>         0.0620
      7 C6         -0.2116    1.2274    4.1655 C.2       1 <0>         0.0728
      8 N1          0.5086    0.5639    5.0464 N.2       1 <0>        -0.4587
      9 S2          1.6393   -0.1471    4.2117 S.3       1 <0>         0.5406
     10 N2          1.2442    0.3726    2.6367 N.2       1 <0>        -0.4550
     11 C7         -1.3820    2.0324    4.5706 C.2       1 <0>        -0.0914
     12 C8         -2.5658    1.6962    4.1057 C.2       1 <0>        -0.0867
     13 C9         -3.8188    2.4497    4.4551 C.3       1 <0>        -0.1196
     14 C10        -3.5659    3.3360    5.6772 C.3       1 <0>        -0.0051
     15 C11        -1.1644    3.2002    5.4893 C.3       1 <0>         0.0533
     16 C12        -2.1869    5.1775    6.4405 C.3       1 <0>        -0.0408
     17 H1          0.3476    2.1156   -4.5640 H         1 <0>         0.0612
     18 H2         -1.2446    2.0593   -3.7702 H         1 <0>         0.0567
     19 H3         -0.1943    3.4806   -3.5583 H         1 <0>         0.0562
     20 H4          1.4548    2.0813   -2.3455 H         1 <0>         0.0671
     21 H5          0.4045    0.6599   -2.5574 H         1 <0>         0.0675
     22 H6         -1.3954    1.8009   -1.2897 H         1 <0>         0.0758
     23 H7         -0.3451    3.2223   -1.0778 H         1 <0>         0.0749
     24 H8          0.2537    0.4015   -0.0769 H         1 <0>         0.0986
     25 H9          1.3040    1.8229    0.1350 H         1 <0>         0.0979
     26 H10        -2.6412    0.8416    3.4496 H         1 <0>         0.1451
     27 H11        -4.6191    1.7441    4.6782 H         1 <0>         0.1318
     28 H12        -4.1108    3.0726    3.6096 H         1 <0>         0.1154
     29 H13        -3.4583    2.7132    6.5652 H         1 <0>         0.1346
     30 H14        -4.3996    4.0251    5.8122 H         1 <0>         0.1400
     31 H15        -1.0195    2.8369    6.5068 H         1 <0>         0.1452
     32 H16        -0.2759    3.7471    5.1738 H         1 <0>         0.1380
     33 H17        -1.2904    5.7572    6.2205 H         1 <0>         0.1243
     34 H18        -3.0606    5.8275    6.3933 H         1 <0>         0.1270
     35 H19        -2.1063    4.7490    7.4395 H         1 <0>         0.1245
     36 N3         -2.3285    4.1039    5.4308 N.4       1 <0>        -0.3956
     37 H20        -2.3775    4.5278    4.4970 H         1 <0>         0.4333
@<TRIPOS>BOND
     1    1    2 1
     2    1   17 1
     3    1   18 1
     4    1   19 1
     5    2    3 1
     6    2   20 1
     7    2   21 1
     8    3    4 1
     9    3   22 1
    10    3   23 1
    11    4    5 1
    12    4   24 1
    13    4   25 1
    14    5    6 1
    15    6   10 2
    16    6    7 1
    17    7    8 2
    18    7   11 1
    19    8    9 1
    20    9   10 1
    21   11   15 1
    22   11   12 2
    23   12   13 1
    24   12   26 1
    25   13   14 1
    26   13   27 1
    27   13   28 1
    28   14   29 1
    29   14   30 1
    30   14   36 1
    31   15   31 1
    32   15   32 1
    33   15   36 1
    34   16   33 1
    35   16   34 1
    36   16   35 1
    37   16   36 1
    38   36   37 1
@<TRIPOS>MOLECULE
ZINC12356108
   49    52     0     0     0
SMALL
USER_CHARGES

@<TRIPOS>ATOM
      1 C1         -0.0178    1.4648    0.0101 C.3       1 <0>        -0.0434
      2 N1          0.0021   -0.0041    0.0020 N.4       1 <0>        -0.3971
      3 C2         -1.3736   -0.5473    0.1574 C.3       1 <0>         0.0371
      4 H1         -2.0955   -0.0286   -0.4735 H         1 <0>         0.1516
      5 C3         -1.6823   -0.3750    1.6625 C.3       1 <0>        -0.1437
      6 C4         -0.3012   -0.3601    2.3500 C.3       1 <0>        -0.1451
      7 C5          0.7165   -0.5247    1.1979 C.3       1 <0>         0.0394
      8 H2          1.6459    0.0118    1.3892 H         1 <0>         0.1562
      9 C6          0.9375   -2.0297    0.9772 C.3       1 <0>        -0.1425
     10 C7         -0.4245   -2.7273    0.9179 C.3       1 <0>         0.0810
     11 C8         -1.3075   -2.0510   -0.1543 C.3       1 <0>        -0.1681
     12 O1         -0.2397   -4.1026    0.5766 O.3       1 <0>        -0.3529
     13 C9         -1.2328   -4.9747    1.1199 C.3       1 <0>         0.1814
     14 H3         -1.5989   -4.5665    2.0619 H         1 <0>         0.0823
     15 C10        -2.3776   -5.0996    0.1478 C.ar      1 <0>        -0.1196
     16 C11        -2.1257   -5.1974   -1.2079 C.ar      1 <0>        -0.0933
     17 C12        -3.1758   -5.3119   -2.0995 C.ar      1 <0>        -0.1205
     18 C13        -4.4778   -5.3292   -1.6354 C.ar      1 <0>        -0.1093
     19 C14        -4.7297   -5.2324   -0.2796 C.ar      1 <0>        -0.1167
     20 C15        -3.6794   -5.1222    0.6123 C.ar      1 <0>        -0.1103
     21 C16        -0.6291   -6.3341    1.3624 C.ar      1 <0>        -0.0900
     22 C17         0.3354   -6.8252    0.5023 C.ar      1 <0>        -0.0778
     23 C18         0.8894   -8.0718    0.7242 C.ar      1 <0>        -0.1113
     24 C19         0.4785   -8.8283    1.8073 C.ar      1 <0>        -0.0266
     25 C20        -0.4868   -8.3363    2.6677 C.ar      1 <0>        -0.1079
     26 C21        -1.0360   -7.0871    2.4479 C.ar      1 <0>        -0.0943
     27 Cl1         1.1735  -10.3944    2.0863 Cl        1 <0>        -0.0586
     28 H4          1.0047    1.8421    0.0024 H         1 <0>         0.1228
     29 H5         -0.5450    1.8259   -0.8730 H         1 <0>         0.1223
     30 H6         -0.5280    1.8163    0.9069 H         1 <0>         0.1210
     31 H7         -2.2034    0.5662    1.8375 H         1 <0>         0.1012
     32 H8         -2.2779   -1.2126    2.0258 H         1 <0>         0.1109
     33 H9         -0.1432    0.5886    2.8631 H         1 <0>         0.1017
     34 H10        -0.2177   -1.1902    3.0515 H         1 <0>         0.1124
     35 H11         1.4693   -2.1869    0.0388 H         1 <0>         0.0989
     36 H12         1.5211   -2.4379    1.8024 H         1 <0>         0.1193
     37 H13        -0.9099   -2.6582    1.8914 H         1 <0>         0.0847
     38 H14        -2.3108   -2.4756   -0.1193 H         1 <0>         0.1153
     39 H15        -0.8806   -2.1999   -1.1461 H         1 <0>         0.0986
     40 H16        -1.1085   -5.1838   -1.5704 H         1 <0>         0.1240
     41 H17        -2.9791   -5.3876   -3.1587 H         1 <0>         0.1248
     42 H18        -5.2983   -5.4180   -2.3320 H         1 <0>         0.1256
     43 H19        -5.7469   -5.2456    0.0829 H         1 <0>         0.1265
     44 H20        -3.8760   -5.0503    1.6719 H         1 <0>         0.1219
     45 H21         0.6558   -6.2347   -0.3433 H         1 <0>         0.1342
     46 H22         1.6427   -8.4555    0.0520 H         1 <0>         0.1369
     47 H23        -0.8081   -8.9265    3.5131 H         1 <0>         0.1387
     48 H24        -1.7861   -6.7009    3.1222 H         1 <0>         0.1318
     49 H25         0.4289   -0.3487   -0.8448 H         1 <0>         0.4267
@<TRIPOS>BOND
     1    1    2 1
     2    1   28 1
     3    1   29 1
     4    1   30 1
     5    2    7 1
     6    2    3 1
     7    2   49 1
     8    3    4 1
     9    3   11 1
    10    3    5 1
    11    5    6 1
    12    5   31 1
    13    5   32 1
    14    6    7 1
    15    6   33 1
    16    6   34 1
    17    7    8 1
    18    7    9 1
    19    9   10 1
    20    9   35 1
    21    9   36 1
    22   10   11 1
    23   10   12 1
    24   10   37 1
    25   11   38 1
    26   11   39 1
    27   12   13 1
    28   13   14 1
    29   13   15 1
    30   13   21 1
    31   15   20 ar
    32   15   16 ar
    33   16   17 ar
    34   16   40 1
    35   17   18 ar
    36   17   41 1
    37   18   19 ar
    38   18   42 1
    39   19   20 ar
    40   19   43 1
    41   20   44 1
    42   21   26 ar
    43   21   22 ar
    44   22   23 ar
    45   22   45 1
    46   23   24 ar
    47   23   46 1
    48   24   25 ar
    49   24   27 1
    50   25   26 ar
    51   25   47 1
    52   26   48 1
@<TRIPOS>MOLECULE
ZINC00002850
   26    28     0     0     0
SMALL
USER_CHARGES
5-(1-azabicyclo[2.2.1]hept-3-yl)-1,2,4-oxadiazol-3-amine
@<TRIPOS>ATOM
      1 C1          0.1283    0.8406   -2.4362 C.3       1 <0>        -0.1505
      2 C2          1.5635    1.4135   -2.3739 C.3       1 <0>        -0.0115
      3 C3          0.1512    3.0010   -1.4131 C.3       1 <0>        -0.0208
      4 C4         -0.6227    1.6364   -1.3209 C.3       1 <0>        -0.1000
      5 H1         -1.7104    1.6628   -1.3863 H         1 <0>         0.1578
      6 C5         -0.0127    1.0858    0.0080 C.3       1 <0>        -0.0167
      7 H2          0.0021   -0.0041    0.0020 H         1 <0>         0.1563
      8 C6          1.4267    1.6514   -0.0027 C.3       1 <0>        -0.0032
      9 C7         -0.7770    1.5991    1.2011 C.2       1 <0>         0.1685
     10 N1         -1.3729    0.8734    2.1152 N.2       1 <0>        -0.4795
     11 C8         -1.9185    1.7554    2.9799 C.2       1 <0>         0.4378
     12 N2         -1.6338    2.9528    2.5422 N.2       1 <0>        -0.4206
     13 O1         -0.9799    2.8802    1.5232 O.3       1 <0>         0.0637
     14 N3         -2.6508    1.4471    4.1184 N.pl3     1 <0>        -0.8073
     15 H3         -0.3195    1.0299   -3.4118 H         1 <0>         0.1141
     16 H4          0.1302   -0.2269   -2.2158 H         1 <0>         0.1122
     17 H5          1.8222    1.8882   -3.3203 H         1 <0>         0.1447
     18 H6          2.2761    0.6227   -2.1397 H         1 <0>         0.1410
     19 H7         -0.0974    3.6663   -0.5863 H         1 <0>         0.1491
     20 H8          0.0059    3.4866   -2.3781 H         1 <0>         0.1565
     21 H9          1.5814    2.3070    0.8542 H         1 <0>         0.1452
     22 H10         2.1523    0.8380    0.0087 H         1 <0>         0.1562
     23 H11        -3.0054    2.1585    4.6744 H         1 <0>         0.4251
     24 H12        -2.8078    0.5203    4.3580 H         1 <0>         0.4255
     25 N4          1.4461    2.3757   -1.2735 N.4       1 <0>        -0.3803
     26 H13         2.2073    3.0643   -1.2978 H         1 <0>         0.4365
@<TRIPOS>BOND
     1    1    4 1
     2    1    2 1
     3    1   15 1
     4    1   16 1
     5    2   17 1
     6    2   18 1
     7    2   25 1
     8    3    4 1
     9    3   19 1
    10    3   20 1
    11    3   25 1
    12    4    5 1
    13    4    6 1
    14    6    7 1
    15    6    8 1
    16    6    9 1
    17    8   21 1
    18    8   22 1
    19    8   25 1
    20    9   13 1
    21    9   10 2
    22   10   11 1
    23   11   12 2
    24   11   14 1
    25   12   13 1
    26   14   23 1
    27   14   24 1
    28   25   26 1
@<TRIPOS>MOLECULE
ZINC05134197
   26    28     0     0     0
SMALL
USER_CHARGES
5-(1-azabicyclo[2.2.1]hept-3-yl)-1,2,4-oxadiazol-3-amine
@<TRIPOS>ATOM
      1 C1          0.9389    1.8466   -0.1988 C.3       1 <0>        -0.1647
      2 C2         -0.4417    1.1782   -0.3966 C.3       1 <0>        -0.0104
      3 C3          0.9144   -0.3666    0.7043 C.3       1 <0>        -0.0113
      4 C4          1.9002    0.6301   -0.0059 C.3       1 <0>        -0.0981
      5 H1          2.8487    0.8299    0.4928 H         1 <0>         0.1623
      6 C5          1.9572   -0.0309   -1.4204 C.3       1 <0>        -0.0182
      7 H2          2.7220   -0.8069   -1.4519 H         1 <0>         0.1554
      8 C6          0.5462   -0.6432   -1.5817 C.3       1 <0>        -0.0054
      9 C7          2.2112    1.0072   -2.4829 C.2       1 <0>         0.1751
     10 N1          3.3662    1.2932   -3.0319 N.2       1 <0>        -0.4786
     11 C8          3.1111    2.2745   -3.9236 C.2       1 <0>         0.4394
     12 N2          1.8320    2.5320   -3.8599 N.2       1 <0>        -0.4220
     13 O1          1.3020    1.8139   -3.0386 O.3       1 <0>         0.0593
     14 N3          4.0367    2.8980   -4.7495 N.pl3     1 <0>        -0.8067
     15 H3          1.2182    2.4213   -1.0819 H         1 <0>         0.1031
     16 H4          0.9364    2.4795    0.6886 H         1 <0>         0.1141
     17 H5         -0.8528    1.4414   -1.3712 H         1 <0>         0.1408
     18 H6         -1.1251    1.4809    0.3968 H         1 <0>         0.1465
     19 H7          0.5878    0.0067    1.6749 H         1 <0>         0.1549
     20 H8          1.3335   -1.3700    0.7802 H         1 <0>         0.1531
     21 H9          0.6141   -1.7257   -1.6896 H         1 <0>         0.1594
     22 H10         0.0417   -0.2076   -2.4441 H         1 <0>         0.1453
     23 H11         3.7510    3.5992   -5.3558 H         1 <0>         0.4252
     24 H12         4.9692    2.6323   -4.7203 H         1 <0>         0.4258
     25 N4         -0.0903   -0.2438   -0.3266 N.4       1 <0>        -0.3806
     26 H13        -0.9149   -0.8220   -0.1270 H         1 <0>         0.4365
@<TRIPOS>BOND
     1    1    4 1
     2    1    2 1
     3    1   15 1
     4    1   16 1
     5    2   17 1
     6    2   18 1
     7    2   25 1
     8    3    4 1
     9    3   19 1
    10    3   20 1
    11    3   25 1
    12    4    5 1
    13    4    6 1
    14    6    7 1
    15    6    8 1
    16    6    9 1
    17    8   21 1
    18    8   22 1
    19    8   25 1
    20    9   13 1
    21    9   10 2
    22   10   11 1
    23   11   12 2
    24   11   14 1
    25   12   13 1
    26   14   23 1
    27   14   24 1
    28   25   26 1
@<TRIPOS>MOLECULE
ZINC00007360
   49    52     0     0     0
SMALL
USER_CHARGES

@<TRIPOS>ATOM
      1 C1         -0.0178    1.4648    0.0101 C.3       1 <0>        -0.0434
      2 N1          0.0021   -0.0041    0.0020 N.4       1 <0>        -0.3971
      3 C2         -1.3736   -0.5473    0.1574 C.3       1 <0>         0.0374
      4 H1         -2.0955   -0.0286   -0.4735 H         1 <0>         0.1528
      5 C3         -1.6823   -0.3750    1.6625 C.3       1 <0>        -0.1440
      6 C4         -0.3012   -0.3601    2.3500 C.3       1 <0>        -0.1455
      7 C5          0.7165   -0.5247    1.1979 C.3       1 <0>         0.0392
      8 H2          1.6459    0.0118    1.3892 H         1 <0>         0.1564
      9 C6          0.9375   -2.0297    0.9772 C.3       1 <0>        -0.1422
     10 C7         -0.4245   -2.7273    0.9179 C.3       1 <0>         0.0777
     11 C8         -1.3075   -2.0510   -0.1543 C.3       1 <0>        -0.1686
     12 O1         -0.2397   -4.1026    0.5766 O.3       1 <0>        -0.3532
     13 C9         -1.2328   -4.9747    1.1199 C.3       1 <0>         0.1859
     14 C10        -1.4248   -6.1524    0.1994 C.ar      1 <0>        -0.1075
     15 C11        -0.3305   -6.7414   -0.4061 C.ar      1 <0>        -0.0593
     16 C12        -0.5053   -7.8217   -1.2501 C.ar      1 <0>        -0.1549
     17 C13        -1.7772   -8.3141   -1.4891 C.ar      1 <0>         0.1125
     18 C14        -2.8725   -7.7233   -0.8821 C.ar      1 <0>        -0.1521
     19 C15        -2.6946   -6.6464   -0.0344 C.ar      1 <0>        -0.0770
     20 F1         -1.9493   -9.3698   -2.3143 F         1 <0>        -0.1331
     21 C16        -0.7862   -5.4630    2.4738 C.ar      1 <0>        -0.1344
     22 C17         0.5548   -5.6957    2.7163 C.ar      1 <0>        -0.0651
     23 C18         0.9656   -6.1430    3.9577 C.ar      1 <0>        -0.1547
     24 C19         0.0336   -6.3582    4.9587 C.ar      1 <0>         0.1114
     25 C20        -1.3092   -6.1249    4.7146 C.ar      1 <0>        -0.1517
     26 C21        -1.7171   -5.6725    3.4741 C.ar      1 <0>        -0.0782
     27 F2          0.4339   -6.7960    6.1725 F         1 <0>        -0.1332
     28 H3          1.0047    1.8421    0.0024 H         1 <0>         0.1229
     29 H4         -0.5450    1.8259   -0.8730 H         1 <0>         0.1227
     30 H5         -0.5280    1.8163    0.9069 H         1 <0>         0.1211
     31 H6         -2.2034    0.5662    1.8375 H         1 <0>         0.1016
     32 H7         -2.2779   -1.2126    2.0258 H         1 <0>         0.1111
     33 H8         -0.1432    0.5886    2.8631 H         1 <0>         0.1017
     34 H9         -0.2177   -1.1902    3.0515 H         1 <0>         0.1128
     35 H10         1.4693   -2.1869    0.0388 H         1 <0>         0.0996
     36 H11         1.5211   -2.4379    1.8024 H         1 <0>         0.1193
     37 H12        -0.9099   -2.6582    1.8914 H         1 <0>         0.0873
     38 H13        -2.3108   -2.4756   -0.1193 H         1 <0>         0.1128
     39 H14        -0.8806   -2.1999   -1.1461 H         1 <0>         0.1006
     40 H15        -2.1744   -4.4351    1.2207 H         1 <0>         0.0831
     41 H16         0.6614   -6.3570   -0.2198 H         1 <0>         0.1352
     42 H17         0.3497   -8.2815   -1.7233 H         1 <0>         0.1398
     43 H18        -3.8650   -8.1063   -1.0681 H         1 <0>         0.1412
     44 H19        -3.5484   -6.1883    0.4427 H         1 <0>         0.1331
     45 H20         1.2816   -5.5281    1.9353 H         1 <0>         0.1362
     46 H21         2.0132   -6.3250    4.1468 H         1 <0>         0.1393
     47 H22        -2.0372   -6.2927    5.4946 H         1 <0>         0.1405
     48 H23        -2.7639   -5.4862    3.2849 H         1 <0>         0.1330
     49 H24         0.4289   -0.3487   -0.8448 H         1 <0>         0.4271
@<TRIPOS>BOND
     1    1    2 1
     2    1   28 1
     3    1   29 1
     4    1   30 1
     5    2    7 1
     6    2    3 1
     7    2   49 1
     8    3    4 1
     9    3   11 1
    10    3    5 1
    11    5    6 1
    12    5   31 1
    13    5   32 1
    14    6    7 1
    15    6   33 1
    16    6   34 1
    17    7    8 1
    18    7    9 1
    19    9   10 1
    20    9   35 1
    21    9   36 1
    22   10   11 1
    23   10   12 1
    24   10   37 1
    25   11   38 1
    26   11   39 1
    27   12   13 1
    28   13   14 1
    29   13   21 1
    30   13   40 1
    31   14   19 ar
    32   14   15 ar
    33   15   16 ar
    34   15   41 1
    35   16   17 ar
    36   16   42 1
    37   17   18 ar
    38   17   20 1
    39   18   19 ar
    40   18   43 1
    41   19   44 1
    42   21   26 ar
    43   21   22 ar
    44   22   23 ar
    45   22   45 1
    46   23   24 ar
    47   23   46 1
    48   24   25 ar
    49   24   27 1
    50   25   26 ar
    51   25   47 1
    52   26   48 1
@<TRIPOS>MOLECULE
ZINC04098786
   61    64     0     0     0
SMALL
USER_CHARGES
2-(1,6-dimethyl-2-piperidyl)vinyl-methyl-BLAHone
@<TRIPOS>ATOM
      1 C1         -2.9130    3.0343   -0.0841 C.3       1 <0>        -0.1827
      2 C2         -2.9707    1.5061   -0.1296 C.3       1 <0>         0.0315
      3 H1         -4.0104    1.1834   -0.1844 H         1 <0>         0.1356
      4 C3         -2.3253    0.9335    1.1343 C.3       1 <0>        -0.1430
      5 C4         -0.8589    1.3724    1.1974 C.3       1 <0>        -0.1398
      6 C5         -0.1391    0.8997   -0.0687 C.3       1 <0>        -0.1354
      7 C6         -0.8479    1.4733   -1.2978 C.3       1 <0>         0.0691
      8 H2         -0.8167    2.5622   -1.2599 H         1 <0>         0.1368
      9 C7         -2.9201    1.4410   -2.5491 C.3       1 <0>        -0.0484
     10 C8         -0.1537    0.9945   -2.5468 C.2       1 <0>        -0.2265
     11 C9          0.3666    1.8610   -3.3802 C.2       1 <0>        -0.0732
     12 C10         1.0608    1.3822   -4.6291 C.3       1 <0>        -0.0449
     13 H3          1.1135    0.2937   -4.6081 H         1 <0>         0.0950
     14 C11         2.4826    1.9469   -4.6534 C.3       1 <0>        -0.0774
     15 H4          2.4518    3.0362   -4.6336 H         1 <0>         0.0789
     16 C12         3.2477    1.4088   -3.4415 C.3       1 <0>        -0.1090
     17 C13         4.6934    1.9045   -3.4791 C.3       1 <0>        -0.1240
     18 C14         5.3652    1.4032   -4.7597 C.3       1 <0>        -0.1218
     19 C15         4.6104    2.0108   -5.9455 C.3       1 <0>        -0.1160
     20 C16         3.1658    1.5048   -5.9295 C.3       1 <0>        -0.0763
     21 H5          3.1401    0.4170   -5.9929 H         1 <0>         0.0805
     22 C17         2.4151    2.1089   -7.1147 C.3       1 <0>        -0.1130
     23 C18         0.9722    1.6072   -7.1768 C.3       1 <0>        -0.1399
     24 H6          0.8967    0.5819   -7.5389 H         1 <0>         0.1243
     25 C19         0.2577    1.8076   -5.8260 C.3       1 <0>        -0.1075
     26 H7         -0.6933    1.2750   -5.8348 H         1 <0>         0.0951
     27 C20        -0.0024    3.3251   -5.8858 C.3       1 <0>         0.0826
     28 H8          0.8854    3.8800   -5.5822 H         1 <0>         0.1034
     29 O1         -0.2985    3.5573   -7.3009 O.3       1 <0>        -0.3426
     30 C21         0.2140    2.5799   -8.0675 C.2       1 <0>         0.4798
     31 O2          0.1019    2.4998   -9.2679 O.2       1 <0>        -0.4399
     32 C22        -1.2016    3.7025   -5.0139 C.3       1 <0>        -0.1653
     33 H9         -3.3735    3.4423   -0.9839 H         1 <0>         0.0798
     34 H10        -3.4510    3.3922    0.7937 H         1 <0>         0.1052
     35 H11        -1.8733    3.3571   -0.0297 H         1 <0>         0.0815
     36 H12        -2.8539    1.3039    2.0127 H         1 <0>         0.1112
     37 H13        -2.3791   -0.1549    1.1094 H         1 <0>         0.0879
     38 H14        -0.3829    0.9313    2.0731 H         1 <0>         0.0954
     39 H15        -0.8065    2.4593    1.2619 H         1 <0>         0.0830
     40 H16        -0.1578   -0.1892   -0.1130 H         1 <0>         0.0887
     41 H17         0.8945    1.2455   -0.0503 H         1 <0>         0.1102
     42 H18        -2.4052    1.0086   -3.4070 H         1 <0>         0.1223
     43 H19        -3.9537    1.0954   -2.5337 H         1 <0>         0.1223
     44 H20        -2.9015    2.5282   -2.6242 H         1 <0>         0.1213
     45 H21        -0.0852   -0.0631   -2.7548 H         1 <0>         0.1367
     46 H22         0.2980    2.9186   -3.1721 H         1 <0>         0.1284
     47 H23         2.7687    1.7578   -2.5266 H         1 <0>         0.0600
     48 H24         3.2388    0.3191   -3.4621 H         1 <0>         0.0648
     49 H25         4.7051    2.9944   -3.4644 H         1 <0>         0.0632
     50 H26         5.2317    1.5230   -2.6114 H         1 <0>         0.0639
     51 H27         6.3988    1.7483   -4.7878 H         1 <0>         0.0656
     52 H28         5.3445    0.3136   -4.7792 H         1 <0>         0.0683
     53 H29         5.1008    1.6782   -6.8604 H         1 <0>         0.0662
     54 H30         4.6133    3.1002   -5.9094 H         1 <0>         0.0693
     55 H31         2.9273    1.8363   -8.0374 H         1 <0>         0.0834
     56 H32         2.4111    3.1946   -7.0181 H         1 <0>         0.0697
     57 H33        -0.9545    3.5378   -3.9651 H         1 <0>         0.0787
     58 H34        -1.4471    4.7532   -5.1686 H         1 <0>         0.0795
     59 H35        -2.0577    3.0854   -5.2867 H         1 <0>         0.0688
     60 N1         -2.2463    0.9941   -1.3124 N.4       1 <0>        -0.3879
     61 H36        -2.2468   -0.0323   -1.2847 H         1 <0>         0.4267
@<TRIPOS>BOND
     1    1    2 1
     2    1   33 1
     3    1   34 1
     4    1   35 1
     5    2    3 1
     6    2    4 1
     7    2   60 1
     8    4    5 1
     9    4   36 1
    10    4   37 1
    11    5    6 1
    12    5   38 1
    13    5   39 1
    14    6    7 1
    15    6   40 1
    16    6   41 1
    17    7    8 1
    18    7   10 1
    19    7   60 1
    20    9   42 1
    21    9   43 1
    22    9   44 1
    23    9   60 1
    24   10   11 2
    25   10   45 1
    26   11   12 1
    27   11   46 1
    28   12   13 1
    29   12   25 1
    30   12   14 1
    31   14   15 1
    32   14   20 1
    33   14   16 1
    34   16   17 1
    35   16   47 1
    36   16   48 1
    37   17   18 1
    38   17   49 1
    39   17   50 1
    40   18   19 1
    41   18   51 1
    42   18   52 1
    43   19   20 1
    44   19   53 1
    45   19   54 1
    46   20   21 1
    47   20   22 1
    48   22   23 1
    49   22   55 1
    50   22   56 1
    51   23   24 1
    52   23   30 1
    53   23   25 1
    54   25   26 1
    55   25   27 1
    56   27   28 1
    57   27   29 1
    58   27   32 1
    59   29   30 1
    60   30   31 2
    61   32   57 1
    62   32   58 1
    63   32   59 1
    64   60   61 1
@<TRIPOS>MOLECULE
ZINC12957692
   51    54     0     0     0
SMALL
USER_CHARGES

@<TRIPOS>ATOM
      1 C1         -0.0178    1.4648    0.0101 C.3       1 <0>        -0.0434
      2 N1          0.0021   -0.0041    0.0020 N.4       1 <0>        -0.3969
      3 C2         -1.3736   -0.5473    0.1574 C.3       1 <0>         0.0372
      4 H1         -2.0955   -0.0286   -0.4735 H         1 <0>         0.1514
      5 C3         -1.6823   -0.3750    1.6625 C.3       1 <0>        -0.1436
      6 C4         -0.3012   -0.3601    2.3500 C.3       1 <0>        -0.1450
      7 C5          0.7165   -0.5247    1.1979 C.3       1 <0>         0.0394
      8 H2          1.6459    0.0118    1.3892 H         1 <0>         0.1562
      9 C6          0.9375   -2.0297    0.9772 C.3       1 <0>        -0.1424
     10 C7         -0.4245   -2.7273    0.9179 C.3       1 <0>         0.0804
     11 C8         -1.3075   -2.0510   -0.1543 C.3       1 <0>        -0.1683
     12 O1         -0.2397   -4.1026    0.5766 O.3       1 <0>        -0.3502
     13 C9         -1.2328   -4.9747    1.1199 C.3       1 <0>         0.1921
     14 H3         -1.5989   -4.5665    2.0619 H         1 <0>         0.0692
     15 C10        -2.3776   -5.0996    0.1478 C.ar      1 <0>        -0.1140
     16 C11        -2.1257   -5.1974   -1.2079 C.ar      1 <0>        -0.0918
     17 C12        -3.1758   -5.3119   -2.0995 C.ar      1 <0>        -0.1192
     18 C13        -4.4778   -5.3292   -1.6354 C.ar      1 <0>        -0.1118
     19 C14        -4.7297   -5.2324   -0.2796 C.ar      1 <0>        -0.1159
     20 C15        -3.6794   -5.1222    0.6123 C.ar      1 <0>        -0.1143
     21 C16        -0.6291   -6.3341    1.3624 C.ar      1 <0>        -0.1750
     22 C17         0.4725   -6.7411    0.6352 C.ar      1 <0>        -0.0455
     23 C18         1.0266   -7.9883    0.8567 C.ar      1 <0>        -0.1787
     24 C19         0.4807   -8.8323    1.8068 C.ar      1 <0>        -0.0615
     25 C20        -0.6202   -8.4315    2.5376 C.ar      1 <0>        -0.1954
     26 C21        -1.1763   -7.1768    2.3212 C.ar      1 <0>         0.2307
     27 N2         -2.2867   -6.7661    3.0623 N.pl3     1 <0>        -0.8785
     28 H4          1.0047    1.8421    0.0024 H         1 <0>         0.1228
     29 H5         -0.5450    1.8259   -0.8730 H         1 <0>         0.1222
     30 H6         -0.5280    1.8163    0.9069 H         1 <0>         0.1207
     31 H7         -2.2034    0.5662    1.8375 H         1 <0>         0.1011
     32 H8         -2.2779   -1.2126    2.0258 H         1 <0>         0.1102
     33 H9         -0.1432    0.5886    2.8631 H         1 <0>         0.1016
     34 H10        -0.2177   -1.1902    3.0515 H         1 <0>         0.1120
     35 H11         1.4693   -2.1869    0.0388 H         1 <0>         0.0993
     36 H12         1.5211   -2.4379    1.8024 H         1 <0>         0.1193
     37 H13        -0.9099   -2.6582    1.8914 H         1 <0>         0.0824
     38 H14        -2.3108   -2.4756   -0.1193 H         1 <0>         0.1146
     39 H15        -0.8806   -2.1999   -1.1461 H         1 <0>         0.0989
     40 H16        -1.1085   -5.1838   -1.5704 H         1 <0>         0.1245
     41 H17        -2.9791   -5.3876   -3.1587 H         1 <0>         0.1245
     42 H18        -5.2983   -5.4180   -2.3320 H         1 <0>         0.1250
     43 H19        -5.7469   -5.2456    0.0829 H         1 <0>         0.1252
     44 H20        -3.8760   -5.0503    1.6719 H         1 <0>         0.1153
     45 H21         0.9012   -6.0846   -0.1074 H         1 <0>         0.1245
     46 H22         1.8875   -8.3044    0.2863 H         1 <0>         0.1216
     47 H23         0.9158   -9.8060    1.9771 H         1 <0>         0.1249
     48 H24        -1.0462   -9.0911    3.2791 H         1 <0>         0.1243
     49 H25        -2.6766   -5.8915    2.9076 H         1 <0>         0.3905
     50 H26        -2.6680   -7.3555    3.7317 H         1 <0>         0.4025
     51 H27         0.4289   -0.3487   -0.8448 H         1 <0>         0.4269
@<TRIPOS>BOND
     1    1    2 1
     2    1   28 1
     3    1   29 1
     4    1   30 1
     5    2    7 1
     6    2    3 1
     7    2   51 1
     8    3    4 1
     9    3   11 1
    10    3    5 1
    11    5    6 1
    12    5   31 1
    13    5   32 1
    14    6    7 1
    15    6   33 1
    16    6   34 1
    17    7    8 1
    18    7    9 1
    19    9   10 1
    20    9   35 1
    21    9   36 1
    22   10   11 1
    23   10   12 1
    24   10   37 1
    25   11   38 1
    26   11   39 1
    27   12   13 1
    28   13   14 1
    29   13   15 1
    30   13   21 1
    31   15   20 ar
    32   15   16 ar
    33   16   17 ar
    34   16   40 1
    35   17   18 ar
    36   17   41 1
    37   18   19 ar
    38   18   42 1
    39   19   20 ar
    40   19   43 1
    41   20   44 1
    42   21   26 ar
    43   21   22 ar
    44   22   23 ar
    45   22   45 1
    46   23   24 ar
    47   23   46 1
    48   24   25 ar
    49   24   47 1
    50   25   26 ar
    51   25   48 1
    52   26   27 1
    53   27   49 1
    54   27   50 1
@<TRIPOS>MOLECULE
ZINC13739802
   33    34     0     0     0
SMALL
USER_CHARGES
1-ethyl-3-(2-ethyltetrazol-5-yl)-5,6-dihydro-2H-pyridine
@<TRIPOS>ATOM
      1 C1         -1.6347    2.3955    1.4657 C.3       1 <0>        -0.1733
      2 C2         -1.2221    2.1137    0.0196 C.3       1 <0>         0.1175
      3 N1         -0.0154    1.2830    0.0091 N.pl3     1 <0>        -0.1204
      4 N2          1.1945    1.7266   -0.0001 N.2       1 <0>        -0.2889
      5 C3          2.0057    0.6859   -0.0134 C.2       1 <0>         0.1816
      6 N3          1.2273   -0.4070   -0.0118 N.2       1 <0>        -0.2789
      7 N4          0.0021   -0.0041    0.0020 N.2       1 <0>        -0.0402
      8 C4          3.4843    0.7179   -0.0278 C.2       1 <0>        -0.0724
      9 C5          4.0856    1.8863   -0.0277 C.2       1 <0>        -0.0857
     10 C6          5.5819    2.0294   -0.0492 C.3       1 <0>        -0.1207
     11 C7          6.2331    0.7000    0.3406 C.3       1 <0>        -0.0058
     12 C8          4.2284   -0.5865   -0.0357 C.3       1 <0>         0.0512
     13 C9          6.3966   -1.6159   -0.3558 C.3       1 <0>        -0.0031
     14 C10         5.8812   -2.6263   -1.3826 C.3       1 <0>        -0.1925
     15 H1         -2.5325    3.0136    1.4735 H         1 <0>         0.1009
     16 H2         -1.8374    1.4538    1.9758 H         1 <0>         0.0728
     17 H3         -0.8281    2.9200    1.9780 H         1 <0>         0.0703
     18 H4         -1.0193    3.0554   -0.4905 H         1 <0>         0.1229
     19 H5         -2.0287    1.5892   -0.4927 H         1 <0>         0.1267
     20 H6          3.4800    2.7804   -0.0111 H         1 <0>         0.1506
     21 H7          5.9048    2.3114   -1.0513 H         1 <0>         0.1147
     22 H8          5.8825    2.8018    0.6587 H         1 <0>         0.1327
     23 H9          7.3030    0.7428    0.1368 H         1 <0>         0.1401
     24 H10         6.0668    0.5077    1.4005 H         1 <0>         0.1355
     25 H11         4.2135   -1.0166    0.9657 H         1 <0>         0.1470
     26 H12         3.7438   -1.2743   -0.7287 H         1 <0>         0.1462
     27 H13         7.4481   -1.4044   -0.5503 H         1 <0>         0.1331
     28 H14         6.2887   -2.0297    0.6469 H         1 <0>         0.1323
     29 H15         6.4575   -3.5483   -1.3060 H         1 <0>         0.1081
     30 H16         4.8298   -2.8378   -1.1880 H         1 <0>         0.0822
     31 H17         5.9891   -2.2126   -2.3852 H         1 <0>         0.0807
     32 N5          5.6172   -0.3629   -0.4794 N.4       1 <0>        -0.3955
     33 H18         5.6124   -0.0680   -1.4629 H         1 <0>         0.4302
@<TRIPOS>BOND
     1    1    2 1
     2    1   15 1
     3    1   16 1
     4    1   17 1
     5    2    3 1
     6    2   18 1
     7    2   19 1
     8    3    7 1
     9    3    4 1
    10    4    5 2
    11    5    6 1
    12    5    8 1
    13    6    7 2
    14    8   12 1
    15    8    9 2
    16    9   10 1
    17    9   20 1
    18   10   11 1
    19   10   21 1
    20   10   22 1
    21   11   23 1
    22   11   24 1
    23   11   32 1
    24   12   25 1
    25   12   26 1
    26   12   32 1
    27   13   14 1
    28   13   27 1
    29   13   28 1
    30   13   32 1
    31   14   29 1
    32   14   30 1
    33   14   31 1
    34   32   33 1
@<TRIPOS>MOLECULE
ZINC00017560
   32    34     0     0     0
SMALL
USER_CHARGES
3-(6-chloro-3-pyridyl)-8-methyl-8-azabicyclo[3.2.1]oct-3-ene
@<TRIPOS>ATOM
      1 C1          0.9322    9.9909   -0.3809 C.3       1 <0>        -0.0372
      2 C2          0.4196    8.1428    1.1221 C.3       1 <0>         0.0338
      3 H1          1.0401    8.6682    1.8481 H         1 <0>         0.1584
      4 C3         -1.0682    8.5023    1.2967 C.3       1 <0>        -0.1437
      5 C4         -1.6422    8.5436   -0.1355 C.3       1 <0>        -0.1386
      6 C5         -0.4584    8.0985   -1.0341 C.3       1 <0>         0.0715
      7 H2         -0.5044    8.5176   -2.0392 H         1 <0>         0.1681
      8 C6         -0.4590    6.5824   -1.0102 C.2       1 <0>        -0.1770
      9 C7          0.0173    5.9339    0.0338 C.2       1 <0>        -0.0424
     10 C8          0.6068    6.6278    1.2291 C.3       1 <0>        -0.1128
     11 C9         -0.0250    4.4565    0.0258 C.ar      1 <0>        -0.1353
     12 C10        -1.2506    3.7798    0.0338 C.ar      1 <0>        -0.0393
     13 C11        -1.2363    2.3969    0.0210 C.ar      1 <0>        -0.1496
     14 C12        -0.0215    1.7317    0.0116 C.ar      1 <0>         0.1882
     15 N1          1.1186    2.3969    0.0043 N.ar      1 <0>        -0.4717
     16 C13         1.1553    3.7137    0.0105 C.ar      1 <0>         0.1421
     17 Cl1         0.0021   -0.0041    0.0020 Cl        1 <0>        -0.0075
     18 H3          1.7509   10.2999    0.2691 H         1 <0>         0.1251
     19 H4          1.1686   10.2524   -1.4123 H         1 <0>         0.1266
     20 H5          0.0164   10.4987   -0.0780 H         1 <0>         0.1190
     21 H6         -1.5755    7.7384    1.8859 H         1 <0>         0.1100
     22 H7         -1.1686    9.4775    1.7730 H         1 <0>         0.1031
     23 H8         -2.4765    7.8488   -0.2321 H         1 <0>         0.1130
     24 H9         -1.9580    9.5551   -0.3907 H         1 <0>         0.1015
     25 H10        -0.8549    6.0316   -1.8506 H         1 <0>         0.1527
     26 H11         0.1139    6.2681    2.1323 H         1 <0>         0.1253
     27 H12         1.6713    6.4008    1.2871 H         1 <0>         0.1103
     28 H13        -2.1834    4.3239    0.0457 H         1 <0>         0.1490
     29 H14        -2.1626    1.8415    0.0223 H         1 <0>         0.1559
     30 H15         2.1079    4.2226    0.0042 H         1 <0>         0.1658
     31 N2          0.7119    8.5119   -0.2566 N.4       1 <0>        -0.3947
     32 H16         1.5493    8.0170   -0.5854 H         1 <0>         0.4302
@<TRIPOS>BOND
     1    1   18 1
     2    1   19 1
     3    1   20 1
     4    1   31 1
     5    2    3 1
     6    2   10 1
     7    2    4 1
     8    2   31 1
     9    4    5 1
    10    4   21 1
    11    4   22 1
    12    5    6 1
    13    5   23 1
    14    5   24 1
    15    6    7 1
    16    6    8 1
    17    6   31 1
    18    8    9 2
    19    8   25 1
    20    9   10 1
    21    9   11 1
    22   10   26 1
    23   10   27 1
    24   11   16 ar
    25   11   12 ar
    26   12   13 ar
    27   12   28 1
    28   13   14 ar
    29   13   29 1
    30   14   15 ar
    31   14   17 1
    32   15   16 ar
    33   16   30 1
    34   31   32 1
@<TRIPOS>MOLECULE
ZINC13746018
   28    29     0     0     0
SMALL
USER_CHARGES
N-methyl-N-(2-vinylpyrrol-1-yl)pyridin-4-amine
@<TRIPOS>ATOM
      1 C1         -0.0178    1.4608    0.0101 C.3       1 <0>         0.0942
      2 N1          0.0021   -0.0041    0.0020 N.pl3     1 <0>        -0.4321
      3 C2          0.0230   -0.7063    1.2034 C.ar      1 <0>         0.2410
      4 C3          0.0363   -2.1009    1.2168 C.ar      1 <0>        -0.2277
      5 C4          0.0627   -2.7590    2.4283 C.ar      1 <0>         0.1402
      6 N2          0.0643   -2.0862    3.5640 N.ar      1 <0>        -0.5151
      7 C5          0.0465   -0.7667    3.5932 C.ar      1 <0>         0.1410
      8 C6          0.0254   -0.0339    2.4253 C.ar      1 <0>        -0.2363
      9 N3         -0.0000   -0.6980   -1.2151 N.pl3     1 <0>        -0.2438
     10 C7          1.1053   -1.0718   -1.9196 C.2       1 <0>         0.0021
     11 C8          0.7046   -1.7218   -3.0343 C.2       1 <0>        -0.1862
     12 C9         -0.6985   -1.7477   -3.0331 C.2       1 <0>        -0.1666
     13 C10        -1.1158   -1.1100   -1.9006 C.2       1 <0>         0.0435
     14 C11        -2.5128   -0.9013   -1.4880 C.2       1 <0>        -0.0889
     15 C12        -2.7827   -0.2605   -0.3549 C.2       1 <0>        -0.2008
     16 H1          1.0048    1.8381    0.0023 H         1 <0>         0.0656
     17 H2         -0.5450    1.8219   -0.8730 H         1 <0>         0.0804
     18 H3         -0.5280    1.8123    0.9069 H         1 <0>         0.0918
     19 H4          0.0302   -2.6576    0.2913 H         1 <0>         0.1330
     20 H5          0.0772   -3.8387    2.4483 H         1 <0>         0.1582
     21 H6          0.0482   -0.2545    4.5440 H         1 <0>         0.1608
     22 H7          0.0106    1.0456    2.4563 H         1 <0>         0.1389
     23 H8          2.1294   -0.8829   -1.6334 H         1 <0>         0.1645
     24 H9          1.3486   -2.1416   -3.7929 H         1 <0>         0.1483
     25 H10        -1.3311   -2.1901   -3.7885 H         1 <0>         0.1485
     26 H11        -3.3189   -1.2688   -2.1057 H         1 <0>         0.1340
     27 H12        -1.9766    0.1070    0.2628 H         1 <0>         0.1067
     28 H13        -3.8080   -0.1074   -0.0521 H         1 <0>         0.1048
@<TRIPOS>BOND
     1    1    2 1
     2    1   16 1
     3    1   17 1
     4    1   18 1
     5    2    3 1
     6    2    9 1
     7    3    8 ar
     8    3    4 ar
     9    4    5 ar
    10    4   19 1
    11    5    6 ar
    12    5   20 1
    13    6    7 ar
    14    7    8 ar
    15    7   21 1
    16    8   22 1
    17    9   13 1
    18    9   10 1
    19   10   11 2
    20   10   23 1
    21   11   12 1
    22   11   24 1
    23   12   13 2
    24   12   25 1
    25   13   14 1
    26   14   15 2
    27   14   26 1
    28   15   27 1
    29   15   28 1
